REMARK  Name = No_0-gen_results/8p0m/2024-11-26-14-13-15/
REMARK  7 active torsions:
REMARK  status: ('A' for Active; 'I' for Inactive)
REMARK    1  A    between atoms: C_2  and  C_3
REMARK    2  A    between atoms: C_6  and  C_13
REMARK    3  A    between atoms: N_15  and  C_16
REMARK    4  A    between atoms: C_19  and  C_22
REMARK    5  A    between atoms: C_25  and  C_28
REMARK    6  A    between atoms: N_29  and  C_31
REMARK    7  A    between atoms: C_32  and  C_33
REMARK                            x       y       z     vdW  Elec       q    Type
REMARK                         _______ _______ _______ _____ _____    ______ ____
ROOT
ATOM      1  C   UNL A   1     -33.164   1.534  28.731  0.00  0.00    +0.074 A 
ATOM      2  C   UNL A   1     -33.956   0.907  29.499  0.00  0.00    +0.017 A 
ATOM      3  C   UNL A   1     -35.232   1.033  29.553  0.00  0.00    +0.001 A 
ATOM      4  C   UNL A   1     -35.801   2.046  28.620  0.00  0.00    +0.000 A 
ATOM      5  C   UNL A   1     -34.951   2.700  27.783  0.00  0.00    +0.001 A 
ATOM      6  C   UNL A   1     -33.567   2.483  27.811  0.00  0.00    +0.017 A 
ENDROOT
BRANCH   4   7
ATOM      7  C   UNL A   1     -37.207   2.264  28.836  0.00  0.00    +0.000 A 
ATOM      8  C   UNL A   1     -37.661   3.505  28.587  0.00  0.00    +0.000 A 
ATOM      9  C   UNL A   1     -39.002   3.844  28.836  0.00  0.00    +0.005 A 
ATOM     10  C   UNL A   1     -39.874   2.797  29.214  0.00  0.00    +0.055 A 
ATOM     11  C   UNL A   1     -39.380   1.551  29.404  0.00  0.00    +0.005 A 
ATOM     12  C   UNL A   1     -38.040   1.280  29.279  0.00  0.00    +0.000 A 
BRANCH  10  13
ATOM     13  C   UNL A   1     -41.304   3.088  29.403  0.00  0.00    +0.269 C 
ATOM     14  N   UNL A   1     -41.659   4.196  29.799  0.00  0.00    -0.174 NA
ATOM     15  O   UNL A   1     -42.073   2.142  29.178  0.00  0.00    -0.268 OA
BRANCH  14  16
ATOM     16  C   UNL A   1     -40.938   5.360  30.218  0.00  0.00    +0.089 C 
ATOM     17  C   UNL A   1     -41.633   6.506  30.498  0.00  0.00    +0.018 C 
BRANCH  17  18
ATOM     18  C   UNL A   1     -40.922   7.555  31.127  0.00  0.00    -0.003 C 
ATOM     19  C   UNL A   1     -39.541   7.506  31.283  0.00  0.00    -0.026 C 
ATOM     20  C   UNL A   1     -38.864   6.338  30.953  0.00  0.00    +0.031 C 
ENDBRANCH  17  18
ENDBRANCH  14  16
ENDBRANCH  10  13
ENDBRANCH   4   7
BRANCH   1  23
ATOM     21  C   UNL A   1     -30.905   1.299  27.773  0.00  0.00    +0.269 C 
ATOM     22  O   UNL A   1     -31.321   1.705  26.817  0.00  0.00    -0.268 OA
ATOM     23  N   UNL A   1     -31.803   1.141  28.848  0.00  0.00    -0.175 NA
BRANCH  21  27
ATOM     24  C   UNL A   1     -28.016  -0.814  28.878  0.00  0.00    +0.000 A 
ATOM     25  C   UNL A   1     -27.064  -0.119  28.608  0.00  0.00    +0.000 A 
ATOM     26  C   UNL A   1     -29.297  -0.184  28.940  0.00  0.00    +0.005 A 
ATOM     27  C   UNL A   1     -29.565   0.800  28.035  0.00  0.00    +0.055 A 
ATOM     28  C   UNL A   1     -28.470   1.441  27.424  0.00  0.00    +0.005 A 
ATOM     29  C   UNL A   1     -27.137   1.079  27.797  0.00  0.00    +0.000 A 
BRANCH  25  30
ATOM     30  C   UNL A   1     -25.792  -0.430  29.076  0.00  0.00    +0.000 A 
ATOM     31  C   UNL A   1     -25.270  -0.049  30.012  0.00  0.00    +0.000 A 
ATOM     32  C   UNL A   1     -23.899  -0.356  30.525  0.00  0.00    +0.000 A 
ATOM     33  C   UNL A   1     -23.108  -1.195  29.737  0.00  0.00    +0.000 A 
ATOM     34  C   UNL A   1     -23.642  -1.678  28.592  0.00  0.00    +0.000 A 
ATOM     35  C   UNL A   1     -24.909  -1.330  28.189  0.00  0.00    +0.000 A 
ENDBRANCH  25  30
ENDBRANCH  21  27
ENDBRANCH   1  23
TORSDOF 7
