MODEL 0
MODEL 1
REMARK VINA RESULT:    -8.032      0.000      0.000
REMARK INTER + INTRA:         -13.289
REMARK INTER:                 -11.319
REMARK INTRA:                  -1.970
REMARK UNBOUND:                -1.970
REMARK  Name = No_0-gen_results/8p0m/2024-11-26-14-13-15/
REMARK  7 active torsions:
REMARK  status: ('A' for Active; 'I' for Inactive)
REMARK    1  A    between atoms: C_2  and  C_3
REMARK    2  A    between atoms: C_6  and  C_13
REMARK    3  A    between atoms: N_15  and  C_16
REMARK    4  A    between atoms: C_19  and  C_22
REMARK    5  A    between atoms: C_25  and  C_28
REMARK    6  A    between atoms: N_29  and  C_31
REMARK    7  A    between atoms: C_32  and  C_33
REMARK                            x       y       z     vdW  Elec       q    Type
REMARK                         _______ _______ _______ _____ _____    ______ ____
ROOT
ATOM      1  C   UNL A   1     -28.160   1.735  23.947  0.00  0.00    +0.074 A 
ATOM      2  C   UNL A   1     -27.586   2.514  24.768  0.00  0.00    +0.017 A 
ATOM      3  C   UNL A   1     -26.592   2.230  25.529  0.00  0.00    +0.001 A 
ATOM      4  C   UNL A   1     -26.108   0.825  25.427  0.00  0.00    +0.000 A 
ATOM      5  C   UNL A   1     -26.711  -0.001  24.530  0.00  0.00    +0.001 A 
ATOM      6  C   UNL A   1     -27.795   0.417  23.746  0.00  0.00    +0.017 A 
ENDROOT
BRANCH   4   7
ATOM      7  C   UNL A   1     -25.107   0.515  26.414  0.00  0.00    +0.000 A 
ATOM      8  C   UNL A   1     -25.333  -0.575  27.167  0.00  0.00    +0.000 A 
ATOM      9  C   UNL A   1     -24.456  -0.924  28.209  0.00  0.00    +0.005 A 
ATOM     10  C   UNL A   1     -23.265  -0.172  28.330  0.00  0.00    +0.055 A 
ATOM     11  C   UNL A   1     -23.057   0.888  27.515  0.00  0.00    +0.005 A 
ATOM     12  C   UNL A   1     -23.994   1.282  26.592  0.00  0.00    +0.000 A 
BRANCH  10  13
ATOM     13  C   UNL A   1     -22.277  -0.554  29.352  0.00  0.00    +0.269 C 
ATOM     14  N   UNL A   1     -22.526  -0.380  30.543  0.00  0.00    -0.174 NA
ATOM     15  O   UNL A   1     -21.208  -1.005  28.915  0.00  0.00    -0.268 OA
BRANCH  14  16
ATOM     16  C   UNL A   1     -23.627   0.221  31.233  0.00  0.00    +0.089 C 
ATOM     17  C   UNL A   1     -23.830   1.569  31.112  0.00  0.00    +0.018 C 
BRANCH  17  18
ATOM     18  C   UNL A   1     -25.049   2.086  31.610  0.00  0.00    -0.003 C 
ATOM     19  C   UNL A   1     -26.038   2.565  30.758  0.00  0.00    -0.026 C 
ATOM     20  C   UNL A   1     -25.764   2.680  29.401  0.00  0.00    +0.031 C 
ENDBRANCH  17  18
ENDBRANCH  14  16
ENDBRANCH  10  13
ENDBRANCH   4   7
BRANCH   1  23
ATOM     21  C   UNL A   1     -30.553   2.106  23.487  0.00  0.00    +0.269 C 
ATOM     22  O   UNL A   1     -30.774   1.386  24.314  0.00  0.00    -0.268 OA
ATOM     23  N   UNL A   1     -29.196   2.345  23.189  0.00  0.00    -0.175 NA
BRANCH  21  27
ATOM     24  C   UNL A   1     -32.602   3.020  20.487  0.00  0.00    +0.000 A 
ATOM     25  C   UNL A   1     -33.173   4.021  20.854  0.00  0.00    +0.000 A 
ATOM     26  C   UNL A   1     -31.456   2.603  21.232  0.00  0.00    +0.005 A 
ATOM     27  C   UNL A   1     -31.487   2.761  22.586  0.00  0.00    +0.055 A 
ATOM     28  C   UNL A   1     -32.391   3.704  23.113  0.00  0.00    +0.005 A 
ATOM     29  C   UNL A   1     -33.200   4.483  22.227  0.00  0.00    +0.000 A 
BRANCH  25  30
ATOM     30  C   UNL A   1     -33.862   4.826  19.954  0.00  0.00    +0.000 A 
ATOM     31  C   UNL A   1     -34.826   4.597  19.395  0.00  0.00    +0.000 A 
ATOM     32  C   UNL A   1     -35.575   5.438  18.411  0.00  0.00    +0.000 A 
ATOM     33  C   UNL A   1     -35.007   6.671  18.080  0.00  0.00    +0.000 A 
ATOM     34  C   UNL A   1     -33.846   7.016  18.683  0.00  0.00    +0.000 A 
ATOM     35  C   UNL A   1     -33.218   6.171  19.566  0.00  0.00    +0.000 A 
ENDBRANCH  25  30
ENDBRANCH  21  27
ENDBRANCH   1  23
TORSDOF 7
ENDMDL
ENDMDL
