REMARK  Name = No_1-gen_results/8p0m/2024-11-26-14-13-15/
REMARK  2 active torsions:
REMARK  status: ('A' for Active; 'I' for Inactive)
REMARK    1  A    between atoms: C_3  and  C_4
REMARK    2  A    between atoms: C_5  and  C_6
REMARK                            x       y       z     vdW  Elec       q    Type
REMARK                         _______ _______ _______ _____ _____    ______ ____
ROOT
ATOM      1  C   UNL A   1     -27.713   1.125  27.678  0.00  0.00    +0.002 C 
ATOM      2  C   UNL A   1     -27.293   0.296  26.824  0.00  0.00    -0.000 C 
ENDROOT
BRANCH   1   5
ATOM      3  F   UNL A   1     -28.073  -1.254  28.532  0.00  0.00    -0.202 F 
ATOM      4  C   UNL A   1     -28.266  -0.421  29.193  0.00  0.00    +0.167 C 
ATOM      5  C   UNL A   1     -28.184   0.565  29.042  0.00  0.00    +0.032 C 
ENDBRANCH   1   5
BRANCH   2   6
ATOM      6  C   UNL A   1     -26.990   0.844  25.482  0.00  0.00    -0.005 C 
ATOM      7  C   UNL A   1     -26.979   2.187  25.285  0.00  0.00    -0.026 C 
ATOM      8  C   UNL A   1     -27.401   3.073  26.207  0.00  0.00    +0.031 C 
ENDBRANCH   2   6
TORSDOF 2
