REMARK  Name = No_10-gen_results/8p0m/2024-11-26-14-13-15/
REMARK  1 active torsions:
REMARK  status: ('A' for Active; 'I' for Inactive)
REMARK    1  A    between atoms: C_1  and  C_2
REMARK                            x       y       z     vdW  Elec       q    Type
REMARK                         _______ _______ _______ _____ _____    ______ ____
ROOT
ATOM      1  C   UNL A   1     -28.016  -0.814  28.878  0.00  0.00    +0.080 A 
ATOM      2  C   UNL A   1     -28.182   0.428  28.113  0.00  0.00    +0.007 A 
ATOM      3  C   UNL A   1     -27.450   0.643  26.850  0.00  0.00    +0.000 A 
ATOM      4  C   UNL A   1     -26.181   0.036  26.715  0.00  0.00    +0.000 A 
ATOM      5  C   UNL A   1     -25.780  -0.933  27.694  0.00  0.00    +0.000 A 
ATOM      6  C   UNL A   1     -26.557  -1.213  28.741  0.00  0.00    +0.007 A 
ENDROOT
BRANCH   1   7
ATOM      7  C   UNL A   1     -28.469  -0.785  29.829  0.00  0.00    +0.388 C 
ATOM      8  O   UNL A   1     -28.532  -1.949  30.614  0.00  0.00    -0.241 OA
ATOM      9  O   UNL A   1     -29.440   0.025  30.360  0.00  0.00    -0.241 OA
ENDBRANCH   1   7
TORSDOF 1
