REMARK  Name = No_100-gen_results/8p0m/2024-11-26-14-13-15/
REMARK  3 active torsions:
REMARK  status: ('A' for Active; 'I' for Inactive)
REMARK    1  A    between atoms: C_4  and  C_8
REMARK    2  A    between atoms: C_11  and  C_14
REMARK    3  A    between atoms: C_14  and  O_16
REMARK                            x       y       z     vdW  Elec       q    Type
REMARK                         _______ _______ _______ _____ _____    ______ ____
ROOT
ATOM      1  C   UNL A   1     -24.370  -0.821  30.139  0.00  0.00    +0.001 A 
ATOM      2  C   UNL A   1     -23.662  -1.327  30.749  0.00  0.00    +0.000 A 
ATOM      3  C   UNL A   1     -23.748   0.145  29.141  0.00  0.00    +0.006 A 
ATOM      4  C   UNL A   1     -22.657   0.364  29.173  0.00  0.00    +0.076 A 
ATOM      5  C   UNL A   1     -22.223  -1.222  30.900  0.00  0.00    +0.000 A 
ATOM      6  C   UNL A   1     -21.710  -0.349  29.928  0.00  0.00    +0.006 A 
ENDROOT
BRANCH   1  10
ATOM      7  C   UNL A   1     -28.016  -0.814  28.878  0.00  0.00    +0.023 A 
ATOM      8  C   UNL A   1     -28.469  -0.785  29.829  0.00  0.00    +0.059 A 
ATOM      9  C   UNL A   1     -26.504  -0.778  28.877  0.00  0.00    +0.059 A 
ATOM     10  C   UNL A   1     -25.810  -0.853  30.103  0.00  0.00    +0.011 A 
ATOM     11  C   UNL A   1     -27.991  -0.892  31.226  0.00  0.00    +0.011 A 
ATOM     12  C   UNL A   1     -26.604  -0.868  31.265  0.00  0.00    +0.002 A 
ATOM     13 CL   UNL A   1     -30.294  -0.838  29.835  0.00  0.00    -0.082 Cl
ATOM     14 CL   UNL A   1     -25.688  -0.701  27.395  0.00  0.00    -0.082 Cl
ENDBRANCH   1  10
BRANCH   4  15
ATOM     15  C   UNL A   1     -21.978   1.302  28.097  0.00  0.00    +0.341 C 
ATOM     16  O   UNL A   1     -20.832   1.783  28.312  0.00  0.00    -0.245 OA
BRANCH  15  17
ATOM     17  O   UNL A   1     -22.745   1.932  27.215  0.00  0.00    -0.441 OA
ATOM     18  C   UNL A   1     -22.520   1.854  25.912  0.00  0.00    +0.256 C 
ENDBRANCH  15  17
ENDBRANCH   4  15
TORSDOF 3
