MODEL 1000
MODEL 1
REMARK VINA RESULT:    -6.564      0.000      0.000
REMARK INTER + INTRA:         -10.312
REMARK INTER:                  -8.867
REMARK INTRA:                  -1.446
REMARK UNBOUND:                -1.446
REMARK  Name = No_1000-gen_results/8p0m/2024-11-26-14-13-15/
REMARK  6 active torsions:
REMARK  status: ('A' for Active; 'I' for Inactive)
REMARK    1  A    between atoms: C_1  and  C_11
REMARK    2  A    between atoms: C_5  and  C_8
REMARK    3  A    between atoms: C_11  and  O_13
REMARK    4  A    between atoms: O_13  and  C_15
REMARK    5  A    between atoms: C_15  and  C_16
REMARK    6  A    between atoms: C_21  and  C_22
REMARK                            x       y       z     vdW  Elec       q    Type
REMARK                         _______ _______ _______ _____ _____    ______ ____
ROOT
ATOM      1  C   UNL A   1     -30.150 -13.174  12.659  0.00  0.00    +0.342 C 
ATOM      2  O   UNL A   1     -30.886 -13.148  13.644  0.00  0.00    -0.245 OA
ENDROOT
BRANCH   1   3
ATOM      3  C   UNL A   1     -30.050 -11.984  11.717  0.00  0.00    +0.078 A 
ATOM      4  C   UNL A   1     -30.935 -11.161  11.675  0.00  0.00    +0.036 A 
ATOM      5  C   UNL A   1     -30.963 -10.063  10.832  0.00  0.00    +0.137 A 
ATOM      6  C   UNL A   1     -29.873  -9.914   9.924  0.00  0.00    +0.012 A 
ATOM      7  C   UNL A   1     -28.988 -10.923   9.880  0.00  0.00    +0.078 A 
ATOM      8  C   UNL A   1     -29.066 -11.944  10.684  0.00  0.00    +0.013 A 
ATOM      9  F   UNL A   1     -31.906  -9.111  10.864  0.00  0.00    -0.204 F 
ATOM     10  C   UNL A   1     -29.915  -8.721   9.045  0.00  0.00    +0.034 C 
BRANCH   7  11
ATOM     11  C   UNL A   1     -27.889 -10.743   8.903  0.00  0.00    +0.388 C 
ATOM     12  O   UNL A   1     -26.808 -10.242   9.222  0.00  0.00    -0.241 OA
ATOM     13  O   UNL A   1     -27.958 -11.298   7.726  0.00  0.00    -0.241 OA
ENDBRANCH   7  11
ENDBRANCH   1   3
BRANCH   1  14
ATOM     14  O   UNL A   1     -29.349 -14.147  12.505  0.00  0.00    -0.440 OA
BRANCH  14  15
ATOM     15  C   UNL A   1     -29.757 -15.399  12.150  0.00  0.00    +0.235 C 
BRANCH  15  16
ATOM     16  C   UNL A   1     -30.209 -15.624  10.819  0.00  0.00    +0.021 A 
ATOM     17  C   UNL A   1     -31.386 -15.401  10.488  0.00  0.00    -0.001 A 
ATOM     18  C   UNL A   1     -31.917 -15.424   9.560  0.00  0.00    +0.004 A 
ATOM     19  C   UNL A   1     -29.264 -15.963   9.796  0.00  0.00    -0.001 A 
ATOM     20  C   UNL A   1     -29.776 -16.093   8.480  0.00  0.00    +0.004 A 
ATOM     21  C   UNL A   1     -31.139 -15.803   8.329  0.00  0.00    +0.071 A 
BRANCH  21  22
ATOM     22  C   UNL A   1     -31.694 -15.940   6.961  0.00  0.00    +0.419 C 
ATOM     23  F   UNL A   1     -32.757 -15.563   6.673  0.00  0.00    -0.166 F 
ATOM     24  F   UNL A   1     -30.727 -15.323   6.133  0.00  0.00    -0.166 F 
ATOM     25  F   UNL A   1     -31.516 -17.285   6.701  0.00  0.00    -0.166 F 
ENDBRANCH  21  22
ENDBRANCH  15  16
ENDBRANCH  14  15
ENDBRANCH   1  14
TORSDOF 6
ENDMDL
ENDMDL
