REMARK  Name = No_1000-gen_results/8p0m/2024-11-26-14-13-15/
REMARK  6 active torsions:
REMARK  status: ('A' for Active; 'I' for Inactive)
REMARK    1  A    between atoms: C_1  and  C_11
REMARK    2  A    between atoms: C_5  and  C_8
REMARK    3  A    between atoms: C_11  and  O_13
REMARK    4  A    between atoms: O_13  and  C_15
REMARK    5  A    between atoms: C_15  and  C_16
REMARK    6  A    between atoms: C_21  and  C_22
REMARK                            x       y       z     vdW  Elec       q    Type
REMARK                         _______ _______ _______ _____ _____    ______ ____
ROOT
ATOM      1  C   UNL A   1     -28.018  -1.660  30.142  0.00  0.00    +0.342 C 
ATOM      2  O   UNL A   1     -27.128  -2.480  30.363  0.00  0.00    -0.245 OA
ENDROOT
BRANCH   1   3
ATOM      3  C   UNL A   1     -28.016  -0.814  28.878  0.00  0.00    +0.078 A 
ATOM      4  C   UNL A   1     -27.064  -0.119  28.608  0.00  0.00    +0.036 A 
ATOM      5  C   UNL A   1     -26.972   0.714  27.506  0.00  0.00    +0.137 A 
ATOM      6  C   UNL A   1     -28.105   0.774  26.642  0.00  0.00    +0.012 A 
ATOM      7  C   UNL A   1     -29.204   0.118  27.048  0.00  0.00    +0.078 A 
ATOM      8  C   UNL A   1     -29.213  -0.609  28.128  0.00  0.00    +0.013 A 
ATOM      9  F   UNL A   1     -25.874   1.407  27.173  0.00  0.00    -0.204 F 
ATOM     10  C   UNL A   1     -27.976   1.658  25.458  0.00  0.00    +0.034 C 
BRANCH   7  11
ATOM     11  C   UNL A   1     -30.367   0.230  26.137  0.00  0.00    +0.388 C 
ATOM     12  O   UNL A   1     -30.306  -0.117  24.955  0.00  0.00    -0.241 OA
ATOM     13  O   UNL A   1     -31.549   0.506  26.611  0.00  0.00    -0.241 OA
ENDBRANCH   7  11
ENDBRANCH   1   3
BRANCH   1  14
ATOM     14  O   UNL A   1     -29.032  -1.621  30.905  0.00  0.00    -0.440 OA
BRANCH  14  15
ATOM     15  C   UNL A   1     -29.460  -2.693  31.631  0.00  0.00    +0.235 C 
BRANCH  15  16
ATOM     16  C   UNL A   1     -30.709  -3.292  31.304  0.00  0.00    +0.021 A 
ATOM     17  C   UNL A   1     -31.567  -2.681  30.644  0.00  0.00    -0.001 A 
ATOM     18  C   UNL A   1     -32.516  -2.946  30.228  0.00  0.00    +0.004 A 
ATOM     19  C   UNL A   1     -30.932  -4.677  31.599  0.00  0.00    -0.001 A 
ATOM     20  C   UNL A   1     -32.168  -5.224  31.172  0.00  0.00    +0.004 A 
ATOM     21  C   UNL A   1     -32.996  -4.356  30.447  0.00  0.00    +0.071 A 
BRANCH  21  22
ATOM     22  C   UNL A   1     -34.297  -4.908  29.997  0.00  0.00    +0.419 C 
ATOM     23  F   UNL A   1     -34.895  -5.691  30.616  0.00  0.00    -0.166 F 
ATOM     24  F   UNL A   1     -35.097  -3.764  29.771  0.00  0.00    -0.166 F 
ATOM     25  F   UNL A   1     -34.008  -5.345  28.719  0.00  0.00    -0.166 F 
ENDBRANCH  21  22
ENDBRANCH  15  16
ENDBRANCH  14  15
ENDBRANCH   1  14
TORSDOF 6
