MODEL 1001
MODEL 1
REMARK VINA RESULT:    -4.296      0.000      0.000
REMARK INTER + INTRA:          -4.296
REMARK INTER:                  -4.296
REMARK INTRA:                   0.000
REMARK UNBOUND:                 0.000
REMARK  Name = No_1001-gen_results/8p0m/2024-11-26-14-13-15/
REMARK  0 active torsions:
REMARK  status: ('A' for Active; 'I' for Inactive)
REMARK                            x       y       z     vdW  Elec       q    Type
REMARK                         _______ _______ _______ _____ _____    ______ ____
ROOT
ATOM      1  C   UNL A   1     -24.946  -5.409  28.983  0.00  0.00    +0.000 A 
ATOM      2  C   UNL A   1     -24.189  -4.724  28.721  0.00  0.00    +0.000 A 
ATOM      3  C   UNL A   1     -26.124  -4.781  29.580  0.00  0.00    +0.000 A 
ATOM      4  C   UNL A   1     -26.217  -3.422  29.754  0.00  0.00    +0.000 A 
ATOM      5  C   UNL A   1     -24.017  -3.273  28.781  0.00  0.00    +0.000 A 
ATOM      6  C   UNL A   1     -25.152  -2.655  29.358  0.00  0.00    +0.000 A 
ENDROOT
TORSDOF 0
ENDMDL
ENDMDL
