MODEL 1002
MODEL 1
REMARK VINA RESULT:    -6.569      0.000      0.000
REMARK INTER + INTRA:          -7.804
REMARK INTER:                  -7.337
REMARK INTRA:                  -0.467
REMARK UNBOUND:                -0.467
REMARK  Name = No_1002-gen_results/8p0m/2024-11-26-14-13-15/
REMARK  2 active torsions:
REMARK  status: ('A' for Active; 'I' for Inactive)
REMARK    1  A    between atoms: C_2  and  C_7
REMARK    2  A    between atoms: C_7  and  C_8
REMARK                            x       y       z     vdW  Elec       q    Type
REMARK                         _______ _______ _______ _____ _____    ______ ____
ROOT
ATOM      1  C   UNL A   1     -24.634  -0.945  29.164  0.00  0.00    +0.053 C 
ENDROOT
BRANCH   1   3
ATOM      2  C   UNL A   1     -23.849  -3.150  28.639  0.00  0.00    -0.004 A 
ATOM      3  C   UNL A   1     -24.707  -2.430  29.095  0.00  0.00    -0.018 A 
ATOM      4  C   UNL A   1     -25.875  -2.957  29.634  0.00  0.00    -0.004 A 
ATOM      5  C   UNL A   1     -26.122  -4.376  29.623  0.00  0.00    -0.000 A 
ATOM      6  C   UNL A   1     -25.089  -5.133  29.054  0.00  0.00    -0.000 A 
ATOM      7  C   UNL A   1     -24.011  -4.584  28.543  0.00  0.00    -0.000 A 
ENDBRANCH   1   3
BRANCH   1   8
ATOM      8  C   UNL A   1     -24.088  -0.224  28.250  0.00  0.00    -0.018 A 
ATOM      9  C   UNL A   1     -24.673   0.156  27.019  0.00  0.00    -0.004 A 
ATOM     10  C   UNL A   1     -24.148   1.180  26.171  0.00  0.00    -0.000 A 
ATOM     11  C   UNL A   1     -22.916   1.786  26.565  0.00  0.00    -0.000 A 
ATOM     12  C   UNL A   1     -22.335   1.437  27.796  0.00  0.00    -0.000 A 
ATOM     13  C   UNL A   1     -22.865   0.514  28.617  0.00  0.00    -0.004 A 
ENDBRANCH   1   8
TORSDOF 2
ENDMDL
ENDMDL
