MODEL 1003
MODEL 1
REMARK VINA RESULT:    -7.536      0.000      0.000
REMARK INTER + INTRA:         -11.836
REMARK INTER:                 -10.619
REMARK INTRA:                  -1.217
REMARK UNBOUND:                -1.217
REMARK  Name = No_1003-gen_results/8p0m/2024-11-26-14-13-15/
REMARK  7 active torsions:
REMARK  status: ('A' for Active; 'I' for Inactive)
REMARK    1  A    between atoms: C_1  and  C_2
REMARK    2  A    between atoms: C_1  and  C_8
REMARK    3  A    between atoms: C_5  and  C_10
REMARK    4  A    between atoms: C_14  and  O_28
REMARK    5  A    between atoms: C_20  and  C_25
REMARK    6  A    between atoms: O_28  and  C_29
REMARK    7  A    between atoms: C_29  and  C_31
REMARK                            x       y       z     vdW  Elec       q    Type
REMARK                         _______ _______ _______ _____ _____    ______ ____
ROOT
ATOM      1  C   UNL A   1     -10.078   0.481  36.262  0.00  0.00    +0.049 C 
ATOM      2  C   UNL A   1     -10.933   1.623  36.220  0.00  0.00    -0.012 A 
ATOM      3  C   UNL A   1     -12.155   1.492  36.630  0.00  0.00    +0.034 A 
ATOM      4  C   UNL A   1     -12.962   2.713  36.540  0.00  0.00    +0.145 A 
ATOM      5  C   UNL A   1     -12.457   3.840  36.050  0.00  0.00    +0.038 A 
ATOM      6  C   UNL A   1     -11.171   3.954  35.623  0.00  0.00    +0.006 A 
ATOM      7  C   UNL A   1     -10.346   2.845  35.688  0.00  0.00    +0.035 A 
ATOM      8  C   UNL A   1      -8.695   0.585  35.777  0.00  0.00    -0.015 A 
ATOM      9  C   UNL A   1      -7.847  -0.377  35.635  0.00  0.00    +0.001 A 
ATOM     10  C   UNL A   1      -6.756  -0.320  35.073  0.00  0.00    +0.056 A 
ATOM     11  C   UNL A   1      -6.262   0.931  34.591  0.00  0.00    +0.005 A 
ATOM     12  C   UNL A   1      -7.073   2.050  34.708  0.00  0.00    +0.003 A 
ATOM     13  C   UNL A   1      -8.285   1.883  35.260  0.00  0.00    +0.035 A 
ATOM     14  C   UNL A   1      -9.210   2.943  35.316  0.00  0.00    +0.195 C 
ATOM     15  O   UNL A   1      -8.700   4.107  34.837  0.00  0.00    -0.287 OA
ENDROOT
BRANCH  10  16
ATOM     16  C   UNL A   1      -5.715  -1.442  34.929  0.00  0.00    +0.284 C 
ATOM     17  N   UNL A   1      -4.592  -1.416  35.261  0.00  0.00    -0.084 NA
ATOM     18  O   UNL A   1      -6.242  -2.653  34.650  0.00  0.00    -0.267 OA
ENDBRANCH  10  16
BRANCH   1  19
ATOM     19  C   UNL A   1     -10.589  -0.801  36.882  0.00  0.00    +0.035 C 
BRANCH  19  20
ATOM     20  C   UNL A   1     -10.396  -0.866  38.074  0.00  0.00    -0.025 A 
ATOM     21  C   UNL A   1      -9.517   0.005  38.708  0.00  0.00    -0.004 A 
ATOM     22  C   UNL A   1      -9.187   0.020  40.162  0.00  0.00    +0.004 A 
ATOM     23  C   UNL A   1      -9.967  -0.843  40.987  0.00  0.00    +0.047 A 
ATOM     24  C   UNL A   1     -10.895  -1.676  40.331  0.00  0.00    -0.001 A 
ATOM     25  C   UNL A   1     -11.110  -1.680  39.007  0.00  0.00    -0.026 A 
ATOM     26  C   UNL A   1     -12.156  -2.612  38.523  0.00  0.00    +0.031 C 
BRANCH  23  27
ATOM     27  C   UNL A   1      -9.694  -0.797  42.405  0.00  0.00    +0.242 C 
ATOM     28  N   UNL A   1      -8.684  -0.053  42.892  0.00  0.00    -0.116 NA
ATOM     29  F   UNL A   1     -10.586  -1.260  43.149  0.00  0.00    -0.181 F 
ENDBRANCH  23  27
ENDBRANCH  19  20
ENDBRANCH   1  19
BRANCH   4  30
ATOM     30  O   UNL A   1     -14.253   2.572  36.961  0.00  0.00    -0.447 OA
BRANCH  30  31
ATOM     31  C   UNL A   1     -15.071   3.265  37.316  0.00  0.00    +0.225 C 
ATOM     32  C   UNL A   1     -15.000   3.838  38.667  0.00  0.00    +0.048 C 
BRANCH  31  33
ATOM     33  C   UNL A   1     -16.174   3.827  36.566  0.00  0.00    +0.422 C 
ATOM     34  O   UNL A   1     -16.999   4.535  37.196  0.00  0.00    -0.237 OA
ATOM     35  O   UNL A   1     -16.294   3.732  35.319  0.00  0.00    -0.237 OA
ENDBRANCH  31  33
ENDBRANCH  30  31
ENDBRANCH   4  30
TORSDOF 7
ENDMDL
ENDMDL
