MODEL 1004
MODEL 1
REMARK VINA RESULT:    -4.458      0.000      0.000
REMARK INTER + INTRA:          -4.458
REMARK INTER:                  -4.458
REMARK INTRA:                   0.000
REMARK UNBOUND:                 0.000
REMARK  Name = No_1004-gen_results/8p0m/2024-11-26-14-13-15/
REMARK  0 active torsions:
REMARK  status: ('A' for Active; 'I' for Inactive)
REMARK                            x       y       z     vdW  Elec       q    Type
REMARK                         _______ _______ _______ _____ _____    ______ ____
ROOT
ATOM      1  F   UNL A   1     -23.438  -5.019  28.169  0.00  0.00    -0.204 F 
ATOM      2  C   UNL A   1     -24.363  -4.537  28.643  0.00  0.00    +0.140 A 
ATOM      3  C   UNL A   1     -25.309  -5.163  29.184  0.00  0.00    +0.030 A 
ATOM      4  C   UNL A   1     -24.161  -3.076  28.936  0.00  0.00    +0.030 A 
ATOM      5  C   UNL A   1     -25.286  -2.345  29.530  0.00  0.00    +0.002 A 
ATOM      6  C   UNL A   1     -26.464  -4.445  29.802  0.00  0.00    +0.002 A 
ATOM      7  C   UNL A   1     -26.397  -3.071  29.971  0.00  0.00    +0.000 A 
ENDROOT
TORSDOF 0
ENDMDL
ENDMDL
