MODEL 1005
MODEL 1
REMARK VINA RESULT:    -4.229      0.000      0.000
REMARK INTER + INTRA:          -4.229
REMARK INTER:                  -4.229
REMARK INTRA:                   0.000
REMARK UNBOUND:                 0.000
REMARK  Name = No_1005-gen_results/8p0m/2024-11-26-14-13-15/
REMARK  0 active torsions:
REMARK  status: ('A' for Active; 'I' for Inactive)
REMARK                            x       y       z     vdW  Elec       q    Type
REMARK                         _______ _______ _______ _____ _____    ______ ____
ROOT
ATOM      1  C   UNL A   1     -25.045  -5.367  29.000  0.00  0.00    +0.000 A 
ATOM      2  C   UNL A   1     -24.224  -4.737  28.796  0.00  0.00    +0.000 A 
ATOM      3  C   UNL A   1     -26.206  -4.745  29.656  0.00  0.00    +0.000 A 
ATOM      4  C   UNL A   1     -26.251  -3.336  29.865  0.00  0.00    +0.000 A 
ATOM      5  C   UNL A   1     -24.041  -3.262  28.859  0.00  0.00    +0.000 A 
ATOM      6  C   UNL A   1     -25.094  -2.650  29.471  0.00  0.00    +0.000 A 
ENDROOT
TORSDOF 0
ENDMDL
ENDMDL
