REMARK  Name = No_1006-gen_results/8p0m/2024-11-26-14-13-15/
REMARK  3 active torsions:
REMARK  status: ('A' for Active; 'I' for Inactive)
REMARK    1  A    between atoms: C_3  and  C_7
REMARK    2  A    between atoms: C_9  and  C_13
REMARK    3  A    between atoms: C_18  and  C_19
REMARK                            x       y       z     vdW  Elec       q    Type
REMARK                         _______ _______ _______ _____ _____    ______ ____
ROOT
ATOM      1  C   UNL A   1     -27.549   0.503  26.678  0.00  0.00    -0.015 A 
ATOM      2  C   UNL A   1     -28.170   0.318  25.530  0.00  0.00    -0.004 A 
ATOM      3  C   UNL A   1     -26.099   0.615  26.654  0.00  0.00    -0.004 A 
ATOM      4  C   UNL A   1     -25.423   0.756  25.407  0.00  0.00    -0.000 A 
ATOM      5  C   UNL A   1     -27.505   0.420  24.262  0.00  0.00    -0.000 A 
ATOM      6  C   UNL A   1     -26.132   0.559  24.235  0.00  0.00    -0.000 A 
ENDROOT
BRANCH   1   9
ATOM      7  C   UNL A   1     -28.016  -0.814  28.878  0.00  0.00    +0.012 C 
ATOM      8  C   UNL A   1     -28.469  -0.785  29.829  0.00  0.00    +0.001 C 
ATOM      9  C   UNL A   1     -28.196   0.348  28.055  0.00  0.00    +0.080 C 
ATOM     10  C   UNL A   1     -29.019   1.350  28.378  0.00  0.00    +0.154 C 
ATOM     11  C   UNL A   1     -29.625   1.268  29.601  0.00  0.00    +0.065 C 
ATOM     12  C   UNL A   1     -29.382   0.182  30.400  0.00  0.00    +0.008 C 
ATOM     13  O   UNL A   1     -29.256   2.414  27.642  0.00  0.00    -0.296 OA
ENDBRANCH   1   9
BRANCH   3  14
ATOM     14  C   UNL A   1     -25.242   0.772  27.839  0.00  0.00    -0.000 A 
ATOM     15  C   UNL A   1     -24.444   0.209  28.188  0.00  0.00    -0.000 A 
ATOM     16  C   UNL A   1     -23.522   0.424  29.329  0.00  0.00    +0.000 A 
ATOM     17  C   UNL A   1     -23.905   1.339  30.224  0.00  0.00    +0.007 A 
ATOM     18  C   UNL A   1     -25.725   1.955  28.720  0.00  0.00    +0.007 A 
ATOM     19  C   UNL A   1     -24.982   2.198  29.875  0.00  0.00    +0.080 A 
BRANCH  19  20
ATOM     20  C   UNL A   1     -25.454   3.234  30.860  0.00  0.00    +0.388 C 
ATOM     21  O   UNL A   1     -25.656   4.322  30.493  0.00  0.00    -0.241 OA
ATOM     22  O   UNL A   1     -25.684   2.799  32.069  0.00  0.00    -0.241 OA
ENDBRANCH  19  20
ENDBRANCH   3  14
TORSDOF 3
