MODEL 1006
MODEL 1
REMARK VINA RESULT:    -7.925      0.000      0.000
REMARK INTER + INTRA:         -10.677
REMARK INTER:                  -9.315
REMARK INTRA:                  -1.362
REMARK UNBOUND:                -1.362
REMARK  Name = No_1006-gen_results/8p0m/2024-11-26-14-13-15/
REMARK  3 active torsions:
REMARK  status: ('A' for Active; 'I' for Inactive)
REMARK    1  A    between atoms: C_3  and  C_7
REMARK    2  A    between atoms: C_9  and  C_13
REMARK    3  A    between atoms: C_18  and  C_19
REMARK                            x       y       z     vdW  Elec       q    Type
REMARK                         _______ _______ _______ _____ _____    ______ ____
ROOT
ATOM      1  C   UNL A   1     -23.800   0.899  27.097  0.00  0.00    -0.015 A 
ATOM      2  C   UNL A   1     -22.784   1.633  26.690  0.00  0.00    -0.004 A 
ATOM      3  C   UNL A   1     -23.559  -0.064  28.160  0.00  0.00    -0.004 A 
ATOM      4  C   UNL A   1     -22.329  -0.026  28.879  0.00  0.00    -0.000 A 
ATOM      5  C   UNL A   1     -21.524   1.662  27.376  0.00  0.00    -0.000 A 
ATOM      6  C   UNL A   1     -21.302   0.773  28.408  0.00  0.00    -0.000 A 
ENDROOT
BRANCH   1   9
ATOM      7  C   UNL A   1     -25.363  -0.106  25.268  0.00  0.00    +0.012 C 
ATOM      8  C   UNL A   1     -26.343  -0.134  24.882  0.00  0.00    +0.001 C 
ATOM      9  C   UNL A   1     -25.142   0.786  26.370  0.00  0.00    +0.080 C 
ATOM     10  C   UNL A   1     -26.057   1.663  26.794  0.00  0.00    +0.154 C 
ATOM     11  C   UNL A   1     -27.279   1.608  26.183  0.00  0.00    +0.065 C 
ATOM     12  C   UNL A   1     -27.489   0.698  25.180  0.00  0.00    +0.008 C 
ATOM     13  O   UNL A   1     -25.892   2.533  27.766  0.00  0.00    -0.296 OA
ENDBRANCH   1   9
BRANCH   3  14
ATOM     14  C   UNL A   1     -24.559  -0.997  28.701  0.00  0.00    -0.000 A 
ATOM     15  C   UNL A   1     -25.438  -0.832  29.225  0.00  0.00    -0.000 A 
ATOM     16  C   UNL A   1     -26.492  -1.769  29.684  0.00  0.00    +0.000 A 
ATOM     17  C   UNL A   1     -26.169  -3.065  29.664  0.00  0.00    +0.007 A 
ATOM     18  C   UNL A   1     -24.115  -2.469  28.490  0.00  0.00    +0.007 A 
ATOM     19  C   UNL A   1     -24.991  -3.444  28.965  0.00  0.00    +0.080 A 
BRANCH  19  20
ATOM     20  C   UNL A   1     -24.584  -4.893  28.928  0.00  0.00    +0.388 C 
ATOM     21  O   UNL A   1     -25.171  -5.669  29.571  0.00  0.00    -0.241 OA
ATOM     22  O   UNL A   1     -23.627  -5.189  28.092  0.00  0.00    -0.241 OA
ENDBRANCH  19  20
ENDBRANCH   3  14
TORSDOF 3
ENDMDL
ENDMDL
