MODEL 1007
MODEL 1
REMARK VINA RESULT:    -6.350      0.000      0.000
REMARK INTER + INTRA:         -10.724
REMARK INTER:                  -9.320
REMARK INTRA:                  -1.404
REMARK UNBOUND:                -1.404
REMARK  Name = No_1007-gen_results/8p0m/2024-11-26-14-13-15/
REMARK  8 active torsions:
REMARK  status: ('A' for Active; 'I' for Inactive)
REMARK    1  A    between atoms: C_2  and  N_13
REMARK    2  A    between atoms: C_4  and  C_7
REMARK    3  A    between atoms: N_13  and  C_14
REMARK    4  A    between atoms: N_13  and  C_21
REMARK    5  A    between atoms: C_15  and  C_16
REMARK    6  A    between atoms: C_17  and  C_18
REMARK    7  A    between atoms: C_21  and  C_22
REMARK    8  A    between atoms: C_22  and  C_23
REMARK                            x       y       z     vdW  Elec       q    Type
REMARK                         _______ _______ _______ _____ _____    ______ ____
ROOT
ATOM      1  C   UNL A   1     -25.000  -0.603  30.833  0.00  0.00    +0.015 A 
ATOM      2  C   UNL A   1     -24.043  -1.044  30.858  0.00  0.00    +0.052 A 
ATOM      3  C   UNL A   1     -25.655  -0.376  32.131  0.00  0.00    +0.001 A 
ATOM      4  C   UNL A   1     -24.953  -0.615  33.348  0.00  0.00    +0.000 A 
ATOM      5  C   UNL A   1     -23.689  -1.133  33.222  0.00  0.00    +0.001 A 
ATOM      6  C   UNL A   1     -23.146  -1.347  32.004  0.00  0.00    +0.015 A 
ENDROOT
BRANCH   4   7
ATOM      7  C   UNL A   1     -25.586  -0.376  34.632  0.00  0.00    +0.000 A 
ATOM      8  C   UNL A   1     -26.353   0.340  34.841  0.00  0.00    +0.000 A 
ATOM      9  C   UNL A   1     -26.916   0.759  36.182  0.00  0.00    +0.000 A 
ATOM     10  C   UNL A   1     -26.305   0.139  37.216  0.00  0.00    +0.000 A 
ATOM     11  C   UNL A   1     -25.245  -0.774  37.065  0.00  0.00    +0.000 A 
ATOM     12  C   UNL A   1     -24.838  -1.050  35.693  0.00  0.00    +0.000 A 
ENDBRANCH   4   7
BRANCH   2  13
ATOM     13  N   UNL A   1     -23.348  -1.327  29.563  0.00  0.00    -0.285 N 
BRANCH  13  14
ATOM     14  C   UNL A   1     -22.087  -0.837  29.340  0.00  0.00    +0.065 C 
ATOM     15  C   UNL A   1     -21.864   0.140  28.821  0.00  0.00    +0.016 C 
BRANCH  15  16
ATOM     16  C   UNL A   1     -22.725   1.023  28.245  0.00  0.00    +0.001 C 
ATOM     17  C   UNL A   1     -22.402   1.737  26.959  0.00  0.00    -0.000 C 
BRANCH  17  18
ATOM     18  C   UNL A   1     -23.360   2.613  26.391  0.00  0.00    -0.005 C 
ATOM     19  C   UNL A   1     -24.744   2.317  26.581  0.00  0.00    -0.026 C 
ATOM     20  C   UNL A   1     -25.590   3.298  25.904  0.00  0.00    +0.031 C 
ENDBRANCH  17  18
ENDBRANCH  15  16
ENDBRANCH  13  14
BRANCH  13  21
ATOM     21  C   UNL A   1     -24.133  -2.123  28.688  0.00  0.00    +0.102 C 
BRANCH  21  22
ATOM     22  C   UNL A   1     -23.904  -3.575  28.915  0.00  0.00    +0.071 C 
BRANCH  22  23
ATOM     23  C   UNL A   1     -25.052  -4.167  29.164  0.00  0.00    +0.098 C 
ATOM     24  N   UNL A   1     -25.137  -5.270  29.272  0.00  0.00    -0.151 NA
ENDBRANCH  22  23
ENDBRANCH  21  22
ENDBRANCH  13  21
ENDBRANCH   2  13
TORSDOF 8
ENDMDL
ENDMDL
