REMARK  Name = No_1007-gen_results/8p0m/2024-11-26-14-13-15/
REMARK  8 active torsions:
REMARK  status: ('A' for Active; 'I' for Inactive)
REMARK    1  A    between atoms: C_2  and  N_13
REMARK    2  A    between atoms: C_4  and  C_7
REMARK    3  A    between atoms: N_13  and  C_14
REMARK    4  A    between atoms: N_13  and  C_21
REMARK    5  A    between atoms: C_15  and  C_16
REMARK    6  A    between atoms: C_17  and  C_18
REMARK    7  A    between atoms: C_21  and  C_22
REMARK    8  A    between atoms: C_22  and  C_23
REMARK                            x       y       z     vdW  Elec       q    Type
REMARK                         _______ _______ _______ _____ _____    ______ ____
ROOT
ATOM      1  C   UNL A   1     -28.016  -0.814  28.878  0.00  0.00    +0.015 A 
ATOM      2  C   UNL A   1     -28.469  -0.785  29.829  0.00  0.00    +0.052 A 
ATOM      3  C   UNL A   1     -26.546  -0.876  28.850  0.00  0.00    +0.001 A 
ATOM      4  C   UNL A   1     -25.804  -1.032  30.057  0.00  0.00    +0.000 A 
ATOM      5  C   UNL A   1     -26.537  -1.039  31.217  0.00  0.00    +0.001 A 
ATOM      6  C   UNL A   1     -27.884  -0.953  31.186  0.00  0.00    +0.015 A 
ENDROOT
BRANCH   4   7
ATOM      7  C   UNL A   1     -24.355  -1.112  30.035  0.00  0.00    +0.000 A 
ATOM      8  C   UNL A   1     -23.708  -1.192  30.883  0.00  0.00    +0.000 A 
ATOM      9  C   UNL A   1     -22.199  -1.095  30.934  0.00  0.00    +0.000 A 
ATOM     10  C   UNL A   1     -21.656  -0.835  29.724  0.00  0.00    +0.000 A 
ATOM     11  C   UNL A   1     -22.411  -0.649  28.551  0.00  0.00    +0.000 A 
ATOM     12  C   UNL A   1     -23.855  -0.778  28.701  0.00  0.00    +0.000 A 
ENDBRANCH   4   7
BRANCH   2  13
ATOM     13  N   UNL A   1     -29.960  -0.688  29.913  0.00  0.00    -0.285 N 
BRANCH  13  14
ATOM     14  C   UNL A   1     -30.558   0.528  30.124  0.00  0.00    +0.065 C 
ATOM     15  C   UNL A   1     -30.001   1.504  30.229  0.00  0.00    +0.016 C 
BRANCH  15  16
ATOM     16  C   UNL A   1     -28.659   1.730  30.242  0.00  0.00    +0.001 C 
ATOM     17  C   UNL A   1     -28.080   3.113  30.388  0.00  0.00    -0.000 C 
BRANCH  17  18
ATOM     18  C   UNL A   1     -26.673   3.275  30.435  0.00  0.00    -0.005 C 
ATOM     19  C   UNL A   1     -25.852   2.134  30.184  0.00  0.00    -0.026 C 
ATOM     20  C   UNL A   1     -24.434   2.469  30.306  0.00  0.00    +0.031 C 
ENDBRANCH  17  18
ENDBRANCH  15  16
ENDBRANCH  13  14
BRANCH  13  21
ATOM     21  C   UNL A   1     -30.596  -1.946  29.743  0.00  0.00    +0.102 C 
BRANCH  21  22
ATOM     22  C   UNL A   1     -31.613  -2.193  30.799  0.00  0.00    +0.071 C 
BRANCH  22  23
ATOM     23  C   UNL A   1     -32.816  -1.997  30.304  0.00  0.00    +0.098 C 
ATOM     24  N   UNL A   1     -33.687  -2.622  30.601  0.00  0.00    -0.151 NA
ENDBRANCH  22  23
ENDBRANCH  21  22
ENDBRANCH  13  21
ENDBRANCH   2  13
TORSDOF 8
