MODEL 1008
MODEL 1
REMARK VINA RESULT:    -6.515      0.000      0.000
REMARK INTER + INTRA:          -7.280
REMARK INTER:                  -6.896
REMARK INTRA:                  -0.384
REMARK UNBOUND:                -0.384
REMARK  Name = No_1008-gen_results/8p0m/2024-11-26-14-13-15/
REMARK  1 active torsions:
REMARK  status: ('A' for Active; 'I' for Inactive)
REMARK    1  A    between atoms: C_3  and  C_7
REMARK                            x       y       z     vdW  Elec       q    Type
REMARK                         _______ _______ _______ _____ _____    ______ ____
ROOT
ATOM      1  C   UNL A   1     -25.910  -2.576  29.702  0.00  0.00    +0.000 A 
ATOM      2  C   UNL A   1     -26.324  -3.532  29.864  0.00  0.00    +0.000 A 
ATOM      3  C   UNL A   1     -24.601  -2.607  29.052  0.00  0.00    +0.000 A 
ATOM      4  C   UNL A   1     -23.998  -3.783  28.680  0.00  0.00    +0.000 A 
ATOM      5  C   UNL A   1     -25.928  -4.911  29.581  0.00  0.00    +0.000 A 
ATOM      6  C   UNL A   1     -24.661  -4.952  28.951  0.00  0.00    +0.000 A 
ENDROOT
BRANCH   3   7
ATOM      7  C   UNL A   1     -23.878  -1.347  28.695  0.00  0.00    +0.000 A 
ATOM      8  C   UNL A   1     -22.621  -1.233  29.186  0.00  0.00    +0.000 A 
ATOM      9  C   UNL A   1     -24.437  -0.380  27.880  0.00  0.00    +0.000 A 
ATOM     10  C   UNL A   1     -23.663   0.638  27.381  0.00  0.00    +0.000 A 
ATOM     11  C   UNL A   1     -21.874  -0.043  28.888  0.00  0.00    +0.000 A 
ATOM     12  C   UNL A   1     -22.421   0.866  27.941  0.00  0.00    +0.000 A 
ENDBRANCH   3   7
TORSDOF 1
ENDMDL
ENDMDL
