REMARK  Name = No_1009-gen_results/8p0m/2024-11-26-14-13-15/
REMARK  2 active torsions:
REMARK  status: ('A' for Active; 'I' for Inactive)
REMARK    1  A    between atoms: C_3  and  C_4
REMARK    2  A    between atoms: C_5  and  C_6
REMARK                            x       y       z     vdW  Elec       q    Type
REMARK                         _______ _______ _______ _____ _____    ______ ____
ROOT
ATOM      1  C   UNL A   1     -26.849   3.842  33.137  0.00  0.00    +0.250 C 
ATOM      2  N   UNL A   1     -26.325   4.933  33.051  0.00  0.00    -0.276 N 
ATOM      3  C   UNL A   1     -25.680   5.657  33.993  0.00  0.00    +0.094 C 
ATOM      4  C   UNL A   1     -26.262   5.517  31.683  0.00  0.00    +0.094 C 
ATOM      5  O   UNL A   1     -26.753   3.394  34.570  0.00  0.00    -0.270 OA
ATOM      6  C   UNL A   1     -25.887   6.767  31.568  0.00  0.00    +0.022 C 
ATOM      7  C   UNL A   1     -25.240   7.081  33.783  0.00  0.00    +0.022 C 
ATOM      8  C   UNL A   1     -25.276   7.560  32.544  0.00  0.00    +0.004 C 
ENDROOT
BRANCH   1  10
ATOM      9  C   UNL A   1     -27.733   1.723  31.980  0.00  0.00    +0.055 C 
ATOM     10  C   UNL A   1     -27.356   2.782  32.515  0.00  0.00    +0.067 C 
BRANCH   9  13
ATOM     11 BR   UNL A   1     -28.115  -0.626  29.081  0.00  0.00    +0.011 Br
ATOM     12  C   UNL A   1     -28.069   0.210  30.172  0.00  0.00    -0.018 C 
ATOM     13  C   UNL A   1     -28.000   0.887  30.918  0.00  0.00    -0.052 C 
ENDBRANCH   9  13
ENDBRANCH   1  10
TORSDOF 2
