MODEL 1009
MODEL 1
REMARK VINA RESULT:    -5.349      0.000      0.000
REMARK INTER + INTRA:          -6.107
REMARK INTER:                  -5.975
REMARK INTRA:                  -0.132
REMARK UNBOUND:                -0.132
REMARK  Name = No_1009-gen_results/8p0m/2024-11-26-14-13-15/
REMARK  2 active torsions:
REMARK  status: ('A' for Active; 'I' for Inactive)
REMARK    1  A    between atoms: C_3  and  C_4
REMARK    2  A    between atoms: C_5  and  C_6
REMARK                            x       y       z     vdW  Elec       q    Type
REMARK                         _______ _______ _______ _____ _____    ______ ____
ROOT
ATOM      1  C   UNL A   1     -10.563   1.407  34.512  0.00  0.00    +0.250 C 
ATOM      2  N   UNL A   1     -11.599   1.802  35.005  0.00  0.00    -0.276 N 
ATOM      3  C   UNL A   1     -12.743   2.200  34.406  0.00  0.00    +0.094 C 
ATOM      4  C   UNL A   1     -11.683   1.721  36.489  0.00  0.00    +0.094 C 
ATOM      5  O   UNL A   1     -10.697   1.502  33.016  0.00  0.00    -0.270 OA
ATOM      6  C   UNL A   1     -12.693   2.312  37.078  0.00  0.00    +0.022 C 
ATOM      7  C   UNL A   1     -13.886   2.839  35.149  0.00  0.00    +0.022 C 
ATOM      8  C   UNL A   1     -13.861   2.790  36.477  0.00  0.00    +0.004 C 
ENDROOT
BRANCH   1  10
ATOM      9  C   UNL A   1      -8.263   0.278  34.731  0.00  0.00    +0.055 C 
ATOM     10  C   UNL A   1      -9.396   0.792  34.679  0.00  0.00    +0.067 C 
BRANCH   9  13
ATOM     11 BR   UNL A   1      -5.549  -2.301  34.511  0.00  0.00    +0.011 Br
ATOM     12  C   UNL A   1      -6.595  -1.419  34.651  0.00  0.00    -0.018 C 
ATOM     13  C   UNL A   1      -7.359  -0.759  34.665  0.00  0.00    -0.052 C 
ENDBRANCH   9  13
ENDBRANCH   1  10
TORSDOF 2
ENDMDL
ENDMDL
