MODEL 100
MODEL 1
REMARK VINA RESULT:    -6.612      0.000      0.000
REMARK INTER + INTRA:          -8.302
REMARK INTER:                  -7.771
REMARK INTRA:                  -0.531
REMARK UNBOUND:                -0.531
REMARK  Name = No_100-gen_results/8p0m/2024-11-26-14-13-15/
REMARK  3 active torsions:
REMARK  status: ('A' for Active; 'I' for Inactive)
REMARK    1  A    between atoms: C_4  and  C_8
REMARK    2  A    between atoms: C_11  and  C_14
REMARK    3  A    between atoms: C_14  and  O_16
REMARK                            x       y       z     vdW  Elec       q    Type
REMARK                         _______ _______ _______ _____ _____    ______ ____
ROOT
ATOM      1  C   UNL A   1     -24.045  -1.467  29.202  0.00  0.00    +0.001 A 
ATOM      2  C   UNL A   1     -23.060  -1.383  29.592  0.00  0.00    +0.000 A 
ATOM      3  C   UNL A   1     -24.344  -0.503  28.063  0.00  0.00    +0.006 A 
ATOM      4  C   UNL A   1     -23.610   0.287  27.786  0.00  0.00    +0.076 A 
ATOM      5  C   UNL A   1     -21.961  -0.473  29.332  0.00  0.00    +0.000 A 
ATOM      6  C   UNL A   1     -22.285   0.360  28.249  0.00  0.00    +0.006 A 
ENDROOT
BRANCH   1  10
ATOM      7  C   UNL A   1     -26.366  -4.515  29.655  0.00  0.00    +0.023 A 
ATOM      8  C   UNL A   1     -27.177  -3.985  30.069  0.00  0.00    +0.059 A 
ATOM      9  C   UNL A   1     -25.177  -3.673  29.251  0.00  0.00    +0.059 A 
ATOM     10  C   UNL A   1     -25.161  -2.299  29.572  0.00  0.00    +0.011 A 
ATOM     11  C   UNL A   1     -27.400  -2.596  30.532  0.00  0.00    +0.011 A 
ATOM     12  C   UNL A   1     -26.324  -1.792  30.183  0.00  0.00    +0.002 A 
ATOM     13 CL   UNL A   1     -28.611  -4.999  30.568  0.00  0.00    -0.082 Cl
ATOM     14 CL   UNL A   1     -23.873  -4.419  28.468  0.00  0.00    -0.082 Cl
ENDBRANCH   1  10
BRANCH   4  15
ATOM     15  C   UNL A   1     -23.865   1.247  26.556  0.00  0.00    +0.341 C 
ATOM     16  O   UNL A   1     -24.565   0.855  25.584  0.00  0.00    -0.245 OA
BRANCH  15  17
ATOM     17  O   UNL A   1     -23.019   2.246  26.331  0.00  0.00    -0.441 OA
ATOM     18  C   UNL A   1     -22.592   2.538  25.112  0.00  0.00    +0.256 C 
ENDBRANCH  15  17
ENDBRANCH   4  15
TORSDOF 3
ENDMDL
ENDMDL
