REMARK  Name = No_101-gen_results/8p0m/2024-11-26-14-13-15/
REMARK  5 active torsions:
REMARK  status: ('A' for Active; 'I' for Inactive)
REMARK    1  A    between atoms: C_1  and  C_2
REMARK    2  A    between atoms: C_5  and  C_11
REMARK    3  A    between atoms: N_8  and  C_10
REMARK    4  A    between atoms: C_17  and  C_20
REMARK    5  A    between atoms: N_22  and  C_23
REMARK                            x       y       z     vdW  Elec       q    Type
REMARK                         _______ _______ _______ _____ _____    ______ ____
ROOT
ATOM      1  C   UNL A   1     -28.016  -0.814  28.878  0.00  0.00    +0.269 C 
ATOM      2  N   UNL A   1     -27.982  -1.637  30.075  0.00  0.00    -0.175 NA
ATOM      3  O   UNL A   1     -29.216  -0.413  28.663  0.00  0.00    -0.268 OA
ENDROOT
BRANCH   1   4
ATOM      4  C   UNL A   1     -27.064  -0.119  28.608  0.00  0.00    +0.055 A 
ATOM      5  C   UNL A   1     -26.929   1.171  29.008  0.00  0.00    +0.004 A 
ATOM      6  C   UNL A   1     -25.770   2.034  28.688  0.00  0.00    +0.004 A 
ATOM      7  C   UNL A   1     -24.714   1.443  27.919  0.00  0.00    +0.071 A 
ATOM      8  C   UNL A   1     -24.859   0.078  27.584  0.00  0.00    +0.004 A 
ATOM      9  C   UNL A   1     -25.965  -0.661  27.916  0.00  0.00    +0.004 A 
BRANCH   7  10
ATOM     10  C   UNL A   1     -23.526   2.147  27.567  0.00  0.00    +0.419 C 
ATOM     11  F   UNL A   1     -23.391   2.716  26.624  0.00  0.00    -0.166 F 
ATOM     12  F   UNL A   1     -23.043   2.883  28.669  0.00  0.00    -0.166 F 
ATOM     13  F   UNL A   1     -22.395   1.163  27.616  0.00  0.00    -0.166 F 
ENDBRANCH   7  10
ENDBRANCH   1   4
BRANCH   2  14
ATOM     14  C   UNL A   1     -28.675  -2.461  30.476  0.00  0.00    +0.074 A 
ATOM     15  C   UNL A   1     -28.565  -3.893  30.101  0.00  0.00    +0.017 A 
ATOM     16  C   UNL A   1     -29.018  -4.673  30.802  0.00  0.00    +0.006 A 
ATOM     17  C   UNL A   1     -30.017  -4.506  31.833  0.00  0.00    +0.056 A 
ATOM     18  C   UNL A   1     -30.188  -3.192  32.236  0.00  0.00    +0.006 A 
ATOM     19  C   UNL A   1     -29.468  -2.200  31.647  0.00  0.00    +0.017 A 
BRANCH  17  20
ATOM     20  C   UNL A   1     -30.660  -5.678  32.464  0.00  0.00    +0.269 C 
ATOM     21  O   UNL A   1     -30.575  -6.770  32.075  0.00  0.00    -0.268 OA
ATOM     22  N   UNL A   1     -31.421  -5.458  33.601  0.00  0.00    -0.174 NA
BRANCH  22  23
ATOM     23  C   UNL A   1     -31.687  -4.243  34.216  0.00  0.00    +0.089 C 
ATOM     24  C   UNL A   1     -31.012  -3.102  33.528  0.00  0.00    +0.019 C 
ENDBRANCH  22  23
ENDBRANCH  17  20
ENDBRANCH   2  14
TORSDOF 5
