REMARK  Name = No_1010-gen_results/8p0m/2024-11-26-14-13-15/
REMARK  6 active torsions:
REMARK  status: ('A' for Active; 'I' for Inactive)
REMARK    1  A    between atoms: C_1  and  C_12
REMARK    2  A    between atoms: C_3  and  C_21
REMARK    3  A    between atoms: C_12  and  N_13
REMARK    4  A    between atoms: C_24  and  C_27
REMARK    5  A    between atoms: C_24  and  C_31
REMARK    6  A    between atoms: C_33  and  C_34
REMARK                            x       y       z     vdW  Elec       q    Type
REMARK                         _______ _______ _______ _____ _____    ______ ____
ROOT
ATOM      1  C   UNL A   1     -28.016  -0.814  28.878  0.00  0.00    +0.022 C 
ATOM      2  C   UNL A   1     -27.064  -0.119  28.608  0.00  0.00    -0.033 C 
ATOM      3  C   UNL A   1     -26.972   0.714  27.506  0.00  0.00    +0.080 C 
ATOM      4  C   UNL A   1     -25.820   1.491  27.116  0.00  0.00    +0.176 C 
ATOM      5  C   UNL A   1     -24.656   1.424  27.918  0.00  0.00    +0.031 A 
ATOM      6  C   UNL A   1     -23.460   2.116  27.616  0.00  0.00    +0.003 A 
ATOM      7  C   UNL A   1     -22.363   1.915  28.448  0.00  0.00    +0.000 A 
ATOM      8  C   UNL A   1     -22.414   0.921  29.458  0.00  0.00    -0.000 A 
ATOM      9  C   UNL A   1     -23.553   0.232  29.768  0.00  0.00    -0.004 A 
ATOM     10  C   UNL A   1     -24.676   0.436  28.985  0.00  0.00    -0.015 A 
ATOM     11  C   UNL A   1     -25.781  -0.264  29.312  0.00  0.00    +0.049 C 
ATOM     12  O   UNL A   1     -25.875   2.336  26.138  0.00  0.00    -0.291 OA
ENDROOT
BRANCH   3  13
ATOM     13  C   UNL A   1     -28.205   0.927  26.694  0.00  0.00    +0.012 C 
ATOM     14  C   UNL A   1     -29.089   1.858  27.133  0.00  0.00    +0.013 C 
ATOM     15  C   UNL A   1     -28.058   0.877  25.269  0.00  0.00    +0.001 C 
ATOM     16  C   UNL A   1     -30.411   1.828  26.632  0.00  0.00    +0.106 C 
ATOM     17  C   UNL A   1     -30.434   1.929  25.182  0.00  0.00    +0.012 C 
ATOM     18  C   UNL A   1     -29.454   0.959  24.538  0.00  0.00    +0.001 C 
BRANCH  16  19
ATOM     19  C   UNL A   1     -31.227   0.546  26.974  0.00  0.00    +0.401 C 
ATOM     20  F   UNL A   1     -31.622   0.741  28.239  0.00  0.00    -0.170 F 
ATOM     21  F   UNL A   1     -32.316   0.482  26.270  0.00  0.00    -0.170 F 
ATOM     22  F   UNL A   1     -30.543  -0.545  26.852  0.00  0.00    -0.170 F 
ENDBRANCH  16  19
BRANCH  16  23
ATOM     23  C   UNL A   1     -31.272   3.071  27.186  0.00  0.00    -0.019 C 
ATOM     24  C   UNL A   1     -31.668   3.230  28.143  0.00  0.00    -0.004 C 
BRANCH  24  25
ATOM     25  C   UNL A   1     -32.220   4.432  28.771  0.00  0.00    -0.000 C 
ATOM     26  C   UNL A   1     -32.373   5.443  27.810  0.00  0.00    -0.000 C 
ENDBRANCH  24  25
ENDBRANCH  16  23
ENDBRANCH   3  13
BRANCH   1  27
ATOM     27  C   UNL A   1     -28.038  -1.612  30.154  0.00  0.00    +0.262 C 
ATOM     28  F   UNL A   1     -27.092  -1.972  30.890  0.00  0.00    -0.210 F 
BRANCH  27  29
ATOM     29  N   UNL A   1     -29.146  -2.296  30.562  0.00  0.00    -0.250 N 
ATOM     30  C   UNL A   1     -30.386  -1.862  30.377  0.00  0.00    +0.096 C 
ATOM     31  C   UNL A   1     -31.446  -2.821  30.587  0.00  0.00    +0.022 C 
ATOM     32  C   UNL A   1     -29.042  -3.641  31.078  0.00  0.00    +0.228 C 
ATOM     33  O   UNL A   1     -27.835  -4.176  31.060  0.00  0.00    -0.275 OA
ATOM     34  C   UNL A   1     -30.172  -4.405  31.275  0.00  0.00    +0.085 C 
ATOM     35  C   UNL A   1     -31.380  -3.971  31.078  0.00  0.00    +0.011 C 
ENDBRANCH  27  29
ENDBRANCH   1  27
TORSDOF 6
