MODEL 1011
MODEL 1
REMARK VINA RESULT:    -8.056      0.000      0.000
REMARK INTER + INTRA:         -11.842
REMARK INTER:                 -10.882
REMARK INTRA:                  -0.960
REMARK UNBOUND:                -0.960
REMARK  Name = No_1011-gen_results/8p0m/2024-11-26-14-13-15/
REMARK  6 active torsions:
REMARK  status: ('A' for Active; 'I' for Inactive)
REMARK    1  A    between atoms: C_7  and  O_12
REMARK    2  A    between atoms: O_12  and  C_13
REMARK    3  A    between atoms: C_13  and  C_15
REMARK    4  A    between atoms: C_17  and  O_21
REMARK    5  A    between atoms: O_21  and  C_22
REMARK    6  A    between atoms: C_22  and  C_23
REMARK                            x       y       z     vdW  Elec       q    Type
REMARK                         _______ _______ _______ _____ _____    ______ ____
ROOT
ATOM      1  C   UNL A   1     -23.940   2.063  26.488  0.00  0.00    +0.145 C 
ATOM      2  C   UNL A   1     -23.491   2.695  25.606  0.00  0.00    +0.041 C 
ENDROOT
BRANCH   1   3
ATOM      3  C   UNL A   1     -23.039   1.334  27.434  0.00  0.00    +0.038 A 
ATOM      4  C   UNL A   1     -23.473   0.294  28.223  0.00  0.00    +0.040 A 
ATOM      5  C   UNL A   1     -22.578  -0.464  28.909  0.00  0.00    +0.139 A 
ATOM      6  C   UNL A   1     -21.208  -0.155  28.834  0.00  0.00    +0.037 A 
ATOM      7  C   UNL A   1     -20.731   0.832  28.025  0.00  0.00    +0.003 A 
ATOM      8  C   UNL A   1     -21.623   1.586  27.264  0.00  0.00    +0.003 A 
BRANCH   5   9
ATOM      9  O   UNL A   1     -22.967  -1.424  29.775  0.00  0.00    -0.471 OA
BRANCH   9  10
ATOM     10  C   UNL A   1     -24.116  -1.600  30.199  0.00  0.00    +0.232 C 
BRANCH  10  11
ATOM     11  C   UNL A   1     -24.768  -2.534  29.817  0.00  0.00    +0.021 A 
ATOM     12  C   UNL A   1     -26.125  -2.677  30.105  0.00  0.00    -0.001 A 
ATOM     13  C   UNL A   1     -26.710  -3.843  30.020  0.00  0.00    -0.000 A 
ATOM     14  C   UNL A   1     -26.086  -4.935  29.364  0.00  0.00    -0.000 A 
ATOM     15  C   UNL A   1     -24.806  -4.867  28.977  0.00  0.00    -0.000 A 
ATOM     16  C   UNL A   1     -24.069  -3.711  29.280  0.00  0.00    -0.001 A 
ENDBRANCH  10  11
ENDBRANCH   9  10
ENDBRANCH   5   9
ENDBRANCH   1   3
BRANCH   1  17
ATOM     17  O   UNL A   1     -25.144   2.138  26.995  0.00  0.00    -0.452 OA
BRANCH  17  24
ATOM     18 BR   UNL A   1     -26.336   4.556  27.096  0.00  0.00    -0.045 Br
ATOM     19  C   UNL A   1     -27.037   3.524  26.106  0.00  0.00    +0.083 A 
ATOM     20  C   UNL A   1     -27.924   3.448  25.551  0.00  0.00    +0.095 A 
ATOM     21  C   UNL A   1     -28.490   2.367  24.740  0.00  0.00    +0.158 A 
ATOM     22  C   UNL A   1     -27.714   1.178  24.740  0.00  0.00    +0.076 A 
ATOM     23  C   UNL A   1     -26.625   1.147  25.509  0.00  0.00    +0.101 A 
ATOM     24  C   UNL A   1     -26.270   2.196  26.206  0.00  0.00    +0.163 A 
ATOM     25 CL   UNL A   1     -29.011   4.849  25.371  0.00  0.00    -0.079 Cl
ATOM     26 BR   UNL A   1     -28.396  -0.299  23.732  0.00  0.00    -0.046 Br
ATOM     27  F   UNL A   1     -29.636   2.444  24.029  0.00  0.00    -0.203 F 
ATOM     28 CL   UNL A   1     -25.724  -0.370  25.635  0.00  0.00    -0.079 Cl
ENDBRANCH  17  24
ENDBRANCH   1  17
TORSDOF 6
ENDMDL
ENDMDL
