MODEL 1012
MODEL 1
REMARK VINA RESULT:    -6.954      0.000      0.000
REMARK INTER + INTRA:          -8.893
REMARK INTER:                  -8.174
REMARK INTRA:                  -0.719
REMARK UNBOUND:                -0.719
REMARK  Name = No_1012-gen_results/8p0m/2024-11-26-14-13-15/
REMARK  3 active torsions:
REMARK  status: ('A' for Active; 'I' for Inactive)
REMARK    1  A    between atoms: C_3  and  C_8
REMARK    2  A    between atoms: C_6  and  O_7
REMARK    3  A    between atoms: O_7  and  C_14
REMARK                            x       y       z     vdW  Elec       q    Type
REMARK                         _______ _______ _______ _____ _____    ______ ____
ROOT
ATOM      1  C   UNL A   1     -23.386   0.788  28.100  0.00  0.00    +0.091 A 
ATOM      2  C   UNL A   1     -23.436  -0.410  28.253  0.00  0.00    +0.015 A 
ATOM      3  C   UNL A   1     -24.570  -1.021  28.775  0.00  0.00    +0.001 A 
ATOM      4  C   UNL A   1     -25.706  -0.240  29.194  0.00  0.00    +0.003 A 
ATOM      5  C   UNL A   1     -25.554   1.139  29.004  0.00  0.00    +0.038 A 
ATOM      6  C   UNL A   1     -24.453   1.669  28.521  0.00  0.00    +0.149 A 
ATOM      7 CL   UNL A   1     -21.968   1.553  27.480  0.00  0.00    -0.079 Cl
ENDROOT
BRANCH   3   8
ATOM      8  C   UNL A   1     -24.757  -2.502  29.002  0.00  0.00    +0.000 A 
ATOM      9  C   UNL A   1     -23.890  -3.368  28.509  0.00  0.00    +0.000 A 
ATOM     10  C   UNL A   1     -24.115  -4.785  28.665  0.00  0.00    +0.000 A 
ATOM     11  C   UNL A   1     -25.301  -5.283  29.234  0.00  0.00    +0.000 A 
ATOM     12  C   UNL A   1     -25.975  -3.007  29.555  0.00  0.00    +0.000 A 
ATOM     13  C   UNL A   1     -26.194  -4.417  29.687  0.00  0.00    +0.000 A 
ENDBRANCH   3   8
BRANCH   6  14
ATOM     14  O   UNL A   1     -24.373   3.023  28.405  0.00  0.00    -0.469 OA
BRANCH  14  15
ATOM     15  C   UNL A   1     -25.301   3.709  27.649  0.00  0.00    +0.241 C 
ATOM     16  C   UNL A   1     -25.883   4.761  28.383  0.00  0.00    +0.266 C 
ATOM     17  O   UNL A   1     -25.398   5.205  29.310  0.00  0.00    -0.271 OA
ATOM     18  N   UNL A   1     -27.027   5.387  27.931  0.00  0.00    -0.275 N 
ATOM     19  C   UNL A   1     -27.775   4.939  26.712  0.00  0.00    +0.094 C 
ATOM     20  C   UNL A   1     -25.865   3.200  26.438  0.00  0.00    +0.055 C 
ATOM     21  C   UNL A   1     -26.746   3.646  25.970  0.00  0.00    +0.026 C 
ATOM     22  C   UNL A   1     -27.676   6.480  28.544  0.00  0.00    +0.115 C 
ENDBRANCH  14  15
ENDBRANCH   6  14
TORSDOF 3
ENDMDL
ENDMDL
