REMARK  Name = No_1012-gen_results/8p0m/2024-11-26-14-13-15/
REMARK  3 active torsions:
REMARK  status: ('A' for Active; 'I' for Inactive)
REMARK    1  A    between atoms: C_3  and  C_8
REMARK    2  A    between atoms: C_6  and  O_7
REMARK    3  A    between atoms: O_7  and  C_14
REMARK                            x       y       z     vdW  Elec       q    Type
REMARK                         _______ _______ _______ _____ _____    ______ ____
ROOT
ATOM      1  C   UNL A   1     -28.016  -0.814  28.878  0.00  0.00    +0.091 A 
ATOM      2  C   UNL A   1     -27.064  -0.119  28.608  0.00  0.00    +0.015 A 
ATOM      3  C   UNL A   1     -25.792  -0.430  29.076  0.00  0.00    +0.001 A 
ATOM      4  C   UNL A   1     -25.576  -1.565  29.936  0.00  0.00    +0.003 A 
ATOM      5  C   UNL A   1     -26.735  -2.300  30.217  0.00  0.00    +0.038 A 
ATOM      6  C   UNL A   1     -27.918  -1.954  29.763  0.00  0.00    +0.149 A 
ATOM      7 CL   UNL A   1     -29.601  -0.414  28.324  0.00  0.00    -0.079 Cl
ENDROOT
BRANCH   3   8
ATOM      8  C   UNL A   1     -24.529   0.349  28.800  0.00  0.00    +0.000 A 
ATOM      9  C   UNL A   1     -24.481   1.211  27.800  0.00  0.00    +0.000 A 
ATOM     10  C   UNL A   1     -23.248   1.897  27.495  0.00  0.00    +0.000 A 
ATOM     11  C   UNL A   1     -22.050   1.589  28.164  0.00  0.00    +0.000 A 
ATOM     12  C   UNL A   1     -23.307   0.015  29.462  0.00  0.00    +0.000 A 
ATOM     13  C   UNL A   1     -22.085   0.690  29.137  0.00  0.00    +0.000 A 
ENDBRANCH   3   8
BRANCH   6  14
ATOM     14  O   UNL A   1     -29.000  -2.701  30.115  0.00  0.00    -0.469 OA
BRANCH  14  15
ATOM     15  C   UNL A   1     -29.363  -2.812  31.442  0.00  0.00    +0.241 C 
ATOM     16  C   UNL A   1     -29.783  -4.121  31.750  0.00  0.00    +0.266 C 
ATOM     17  O   UNL A   1     -29.509  -5.021  31.112  0.00  0.00    -0.271 OA
ATOM     18  N   UNL A   1     -30.455  -4.386  32.926  0.00  0.00    -0.275 N 
ATOM     19  C   UNL A   1     -30.870  -3.315  33.888  0.00  0.00    +0.094 C 
ATOM     20  C   UNL A   1     -29.636  -1.689  32.282  0.00  0.00    +0.055 C 
ATOM     21  C   UNL A   1     -30.127  -1.790  33.253  0.00  0.00    +0.026 C 
ATOM     22  C   UNL A   1     -30.882  -5.655  33.373  0.00  0.00    +0.115 C 
ENDBRANCH  14  15
ENDBRANCH   6  14
TORSDOF 3
