REMARK  Name = No_1013-gen_results/8p0m/2024-11-26-14-13-15/
REMARK  2 active torsions:
REMARK  status: ('A' for Active; 'I' for Inactive)
REMARK    1  A    between atoms: N_4  and  C_5
REMARK    2  A    between atoms: C_7  and  C_11
REMARK                            x       y       z     vdW  Elec       q    Type
REMARK                         _______ _______ _______ _____ _____    ______ ____
ROOT
ATOM      1  C   UNL A   1     -26.657   0.427  30.108  0.00  0.00    +0.077 A 
ATOM      2  C   UNL A   1     -26.142   1.256  29.170  0.00  0.00    +0.021 A 
ATOM      3  C   UNL A   1     -24.731   1.625  29.073  0.00  0.00    +0.073 A 
ATOM      4  C   UNL A   1     -23.850   1.085  30.061  0.00  0.00    +0.004 A 
ATOM      5  C   UNL A   1     -24.311   0.227  31.041  0.00  0.00    +0.001 A 
ATOM      6  C   UNL A   1     -25.628  -0.126  31.065  0.00  0.00    +0.017 A 
ENDROOT
BRANCH   1  10
ATOM      7  O   UNL A   1     -28.123  -1.335  28.487  0.00  0.00    -0.220 OA
ATOM      8  C   UNL A   1     -28.521  -0.436  29.078  0.00  0.00    +0.467 C 
ATOM      9  O   UNL A   1     -29.622  -0.059  29.108  0.00  0.00    -0.220 OA
ATOM     10  N   UNL A   1     -27.625   0.039  30.115  0.00  0.00    -0.140 NA
ENDBRANCH   1  10
BRANCH   3  11
ATOM     11  C   UNL A   1     -24.190   2.567  28.104  0.00  0.00    +0.419 C 
ATOM     12  F   UNL A   1     -24.590   3.723  28.212  0.00  0.00    -0.166 F 
ATOM     13  F   UNL A   1     -22.813   2.621  28.162  0.00  0.00    -0.166 F 
ATOM     14  F   UNL A   1     -24.483   2.114  26.878  0.00  0.00    -0.166 F 
ENDBRANCH   3  11
TORSDOF 2
