REMARK  Name = No_1014-gen_results/8p0m/2024-11-26-14-13-15/
REMARK  5 active torsions:
REMARK  status: ('A' for Active; 'I' for Inactive)
REMARK    1  A    between atoms: C_2  and  N_7
REMARK    2  A    between atoms: C_16  and  C_18
REMARK    3  A    between atoms: C_18  and  C_19
REMARK    4  A    between atoms: C_20  and  C_24
REMARK    5  A    between atoms: N_26  and  C_27
REMARK                            x       y       z     vdW  Elec       q    Type
REMARK                         _______ _______ _______ _____ _____    ______ ____
ROOT
ATOM      1  C   UNL A   1     -32.028  -3.840  30.400  0.00  0.00    +0.031 C 
ENDROOT
BRANCH   1  10
ATOM      2  N   UNL A   1     -29.954  -0.789  29.642  0.00  0.00    -0.287 N 
ATOM      3  C   UNL A   1     -30.679   0.269  30.037  0.00  0.00    +0.048 A 
ATOM      4  C   UNL A   1     -30.283   1.216  30.326  0.00  0.00    +0.015 A 
ATOM      5  C   UNL A   1     -31.178   2.447  30.632  0.00  0.00    +0.001 A 
ATOM      6  C   UNL A   1     -32.531   2.183  30.453  0.00  0.00    -0.000 A 
ATOM      7  C   UNL A   1     -32.111   0.045  29.832  0.00  0.00    -0.009 A 
ATOM      8  C   UNL A   1     -32.966   0.999  30.051  0.00  0.00    -0.003 A 
ATOM      9  C   UNL A   1     -30.395  -2.138  30.228  0.00  0.00    +0.096 C 
ATOM     10  C   UNL A   1     -31.534  -2.683  29.711  0.00  0.00    +0.029 C 
ATOM     11  C   UNL A   1     -32.639  -1.534  29.808  0.00  0.00    +0.030 C 
BRANCH   2  13
ATOM     12  C   UNL A   1     -28.016  -0.814  28.878  0.00  0.00    +0.026 A 
ATOM     13  C   UNL A   1     -28.469  -0.785  29.829  0.00  0.00    +0.052 A 
ATOM     14  C   UNL A   1     -26.504  -0.778  28.877  0.00  0.00    +0.059 A 
ATOM     15  C   UNL A   1     -25.810  -0.853  30.103  0.00  0.00    +0.011 A 
ATOM     16  C   UNL A   1     -27.991  -0.892  31.226  0.00  0.00    +0.015 A 
ATOM     17  C   UNL A   1     -26.604  -0.868  31.265  0.00  0.00    +0.002 A 
ATOM     18 CL   UNL A   1     -25.547  -0.718  27.456  0.00  0.00    -0.082 Cl
ENDBRANCH   2  13
ENDBRANCH   1  10
BRANCH   1  19
ATOM     19  C   UNL A   1     -31.285  -4.952  30.064  0.00  0.00    +0.012 A 
ATOM     20  C   UNL A   1     -30.410  -5.441  30.810  0.00  0.00    +0.054 A 
ATOM     21  C   UNL A   1     -31.379  -5.513  28.719  0.00  0.00    +0.164 A 
ATOM     22  F   UNL A   1     -32.047  -5.010  27.904  0.00  0.00    -0.202 F 
ATOM     23  C   UNL A   1     -30.382  -6.502  28.483  0.00  0.00    +0.167 A 
ATOM     24  F   UNL A   1     -30.505  -6.938  27.223  0.00  0.00    -0.202 F 
ATOM     25  C   UNL A   1     -30.438  -7.276  29.448  0.00  0.00    +0.032 A 
ATOM     26  C   UNL A   1     -30.138  -6.848  30.807  0.00  0.00    +0.007 A 
BRANCH  20  27
ATOM     27  C   UNL A   1     -30.158  -4.928  32.233  0.00  0.00    +0.269 C 
ATOM     28  N   UNL A   1     -29.970  -3.803  32.389  0.00  0.00    -0.175 NA
ATOM     29  O   UNL A   1     -30.501  -5.743  33.186  0.00  0.00    -0.268 OA
BRANCH  28  30
ATOM     30  C   UNL A   1     -29.983  -3.268  33.799  0.00  0.00    +0.074 A 
ATOM     31  C   UNL A   1     -31.163  -2.760  34.302  0.00  0.00    +0.017 A 
ATOM     32  C   UNL A   1     -31.124  -1.917  35.061  0.00  0.00    +0.001 A 
ATOM     33  C   UNL A   1     -29.922  -1.435  35.781  0.00  0.00    +0.000 A 
ATOM     34  C   UNL A   1     -28.704  -1.984  35.269  0.00  0.00    +0.001 A 
ATOM     35  C   UNL A   1     -28.730  -2.771  34.298  0.00  0.00    +0.017 A 
ENDBRANCH  28  30
ENDBRANCH  20  27
ENDBRANCH   1  19
TORSDOF 5
