MODEL 1014
MODEL 1
REMARK VINA RESULT:    -8.283      0.000      0.000
REMARK INTER + INTRA:         -11.947
REMARK INTER:                 -10.704
REMARK INTRA:                  -1.243
REMARK UNBOUND:                -1.243
REMARK  Name = No_1014-gen_results/8p0m/2024-11-26-14-13-15/
REMARK  5 active torsions:
REMARK  status: ('A' for Active; 'I' for Inactive)
REMARK    1  A    between atoms: C_2  and  N_7
REMARK    2  A    between atoms: C_16  and  C_18
REMARK    3  A    between atoms: C_18  and  C_19
REMARK    4  A    between atoms: C_20  and  C_24
REMARK    5  A    between atoms: N_26  and  C_27
REMARK                            x       y       z     vdW  Elec       q    Type
REMARK                         _______ _______ _______ _____ _____    ______ ____
ROOT
ATOM      1  C   UNL A   1     -27.928   0.320  29.539  0.00  0.00    +0.031 C 
ENDROOT
BRANCH   1  10
ATOM      2  N   UNL A   1     -24.462  -1.149  29.442  0.00  0.00    -0.287 N 
ATOM      3  C   UNL A   1     -24.611  -2.453  29.162  0.00  0.00    +0.048 A 
ATOM      4  C   UNL A   1     -23.879  -3.073  28.695  0.00  0.00    +0.015 A 
ATOM      5  C   UNL A   1     -24.053  -4.607  28.531  0.00  0.00    +0.001 A 
ATOM      6  C   UNL A   1     -25.238  -5.074  29.087  0.00  0.00    -0.000 A 
ATOM      7  C   UNL A   1     -25.833  -2.994  29.761  0.00  0.00    -0.009 A 
ATOM      8  C   UNL A   1     -26.093  -4.265  29.694  0.00  0.00    -0.003 A 
ATOM      9  C   UNL A   1     -25.677  -0.269  29.117  0.00  0.00    +0.096 C 
ATOM     10  C   UNL A   1     -26.741  -0.363  29.965  0.00  0.00    +0.029 C 
ATOM     11  C   UNL A   1     -27.070  -1.923  30.065  0.00  0.00    +0.030 C 
BRANCH   2  13
ATOM     12  C   UNL A   1     -23.670   0.236  28.103  0.00  0.00    +0.026 A 
ATOM     13  C   UNL A   1     -23.306  -0.392  28.866  0.00  0.00    +0.052 A 
ATOM     14  C   UNL A   1     -22.634   1.109  27.431  0.00  0.00    +0.059 A 
ATOM     15  C   UNL A   1     -21.271   0.934  27.749  0.00  0.00    +0.011 A 
ATOM     16  C   UNL A   1     -21.965  -0.782  29.358  0.00  0.00    +0.015 A 
ATOM     17  C   UNL A   1     -20.985  -0.005  28.758  0.00  0.00    +0.002 A 
ATOM     18 CL   UNL A   1     -22.998   2.279  26.232  0.00  0.00    -0.082 Cl
ENDBRANCH   2  13
ENDBRANCH   1  10
BRANCH   1  19
ATOM     19  C   UNL A   1     -27.716   1.682  29.517  0.00  0.00    +0.012 A 
ATOM     20  C   UNL A   1     -27.665   2.349  28.461  0.00  0.00    +0.054 A 
ATOM     21  C   UNL A   1     -27.368   2.386  30.748  0.00  0.00    +0.164 A 
ATOM     22  F   UNL A   1     -27.226   1.807  31.751  0.00  0.00    -0.202 F 
ATOM     23  C   UNL A   1     -26.963   3.728  30.498  0.00  0.00    +0.167 A 
ATOM     24  F   UNL A   1     -26.622   4.294  31.663  0.00  0.00    -0.202 F 
ATOM     25  C   UNL A   1     -27.837   4.216  29.769  0.00  0.00    +0.032 A 
ATOM     26  C   UNL A   1     -28.101   3.714  28.428  0.00  0.00    +0.007 A 
BRANCH  20  27
ATOM     27  C   UNL A   1     -27.957   1.740  27.085  0.00  0.00    +0.269 C 
ATOM     28  N   UNL A   1     -29.025   1.821  26.661  0.00  0.00    -0.175 NA
ATOM     29  O   UNL A   1     -26.910   1.473  26.362  0.00  0.00    -0.268 OA
BRANCH  28  30
ATOM     30  C   UNL A   1     -29.245   1.459  25.213  0.00  0.00    +0.074 A 
ATOM     31  C   UNL A   1     -29.480   2.472  24.307  0.00  0.00    +0.017 A 
ATOM     32  C   UNL A   1     -30.143   2.268  23.408  0.00  0.00    +0.001 A 
ATOM     33  C   UNL A   1     -30.612   0.941  22.943  0.00  0.00    +0.000 A 
ATOM     34  C   UNL A   1     -30.344  -0.108  23.878  0.00  0.00    +0.001 A 
ATOM     35  C   UNL A   1     -29.782   0.149  24.965  0.00  0.00    +0.017 A 
ENDBRANCH  28  30
ENDBRANCH  20  27
ENDBRANCH   1  19
TORSDOF 5
ENDMDL
ENDMDL
