REMARK  Name = No_1015-gen_results/8p0m/2024-11-26-14-13-15/
REMARK  7 active torsions:
REMARK  status: ('A' for Active; 'I' for Inactive)
REMARK    1  A    between atoms: C_2  and  C_19
REMARK    2  A    between atoms: C_6  and  O_14
REMARK    3  A    between atoms: C_8  and  C_11
REMARK    4  A    between atoms: O_14  and  C_15
REMARK    5  A    between atoms: C_15  and  C_16
REMARK    6  A    between atoms: C_15  and  C_22
REMARK    7  A    between atoms: C_22  and  C_23
REMARK                            x       y       z     vdW  Elec       q    Type
REMARK                         _______ _______ _______ _____ _____    ______ ____
ROOT
ATOM      1  C   UNL A   1     -28.016  -0.814  28.878  0.00  0.00    +0.043 A 
ATOM      2  C   UNL A   1     -27.064  -0.119  28.608  0.00  0.00    +0.083 A 
ATOM      3  C   UNL A   1     -25.765  -0.390  29.036  0.00  0.00    +0.007 A 
ATOM      4  C   UNL A   1     -25.530  -1.530  29.901  0.00  0.00    +0.003 A 
ATOM      5  C   UNL A   1     -26.658  -2.292  30.203  0.00  0.00    +0.037 A 
ATOM      6  C   UNL A   1     -27.855  -1.956  29.763  0.00  0.00    +0.139 A 
ATOM      7  C   UNL A   1     -24.535   0.413  28.743  0.00  0.00    +0.007 A 
ATOM      8  C   UNL A   1     -23.306   0.037  29.039  0.00  0.00    +0.080 A 
ATOM      9  C   UNL A   1     -23.065  -1.144  29.708  0.00  0.00    +0.007 A 
ATOM     10  C   UNL A   1     -24.187  -1.956  30.196  0.00  0.00    +0.000 A 
ENDROOT
BRANCH   8  11
ATOM     11  C   UNL A   1     -22.118   0.847  28.651  0.00  0.00    +0.388 C 
ATOM     12  O   UNL A   1     -20.998   0.685  29.059  0.00  0.00    -0.241 OA
ATOM     13  O   UNL A   1     -22.293   1.788  27.701  0.00  0.00    -0.241 OA
ENDBRANCH   8  11
BRANCH   2  14
ATOM     14  C   UNL A   1     -27.201   1.136  27.729  0.00  0.00    +0.388 C 
ATOM     15  O   UNL A   1     -27.487   2.154  28.178  0.00  0.00    -0.241 OA
ATOM     16  O   UNL A   1     -26.848   0.935  26.504  0.00  0.00    -0.241 OA
ENDBRANCH   2  14
BRANCH   6  17
ATOM     17  O   UNL A   1     -28.963  -2.678  30.143  0.00  0.00    -0.467 OA
BRANCH  17  18
ATOM     18  C   UNL A   1     -29.242  -2.779  31.498  0.00  0.00    +0.272 C 
BRANCH  18  19
ATOM     19  C   UNL A   1     -29.846  -1.711  32.061  0.00  0.00    +0.404 C 
ATOM     20  O   UNL A   1     -29.569  -1.397  33.083  0.00  0.00    -0.242 OA
ATOM     21  O   UNL A   1     -30.647  -1.100  31.294  0.00  0.00    -0.242 OA
ENDBRANCH  18  19
BRANCH  18  22
ATOM     22  C   UNL A   1     -30.026  -4.110  31.748  0.00  0.00    +0.082 C 
BRANCH  22  23
ATOM     23  C   UNL A   1     -30.693  -4.506  30.703  0.00  0.00    -0.018 A 
ATOM     24  C   UNL A   1     -30.572  -4.459  29.618  0.00  0.00    -0.004 A 
ATOM     25  C   UNL A   1     -31.375  -5.147  28.528  0.00  0.00    -0.000 A 
ATOM     26  C   UNL A   1     -31.876  -6.364  28.919  0.00  0.00    -0.000 A 
ATOM     27  C   UNL A   1     -32.641  -7.028  27.949  0.00  0.00    -0.000 A 
ATOM     28  C   UNL A   1     -32.692  -6.587  26.622  0.00  0.00    -0.000 A 
ATOM     29  C   UNL A   1     -32.081  -5.353  26.297  0.00  0.00    -0.000 A 
ATOM     30  C   UNL A   1     -31.396  -4.681  27.210  0.00  0.00    -0.000 A 
ATOM     31  C   UNL A   1     -31.875  -5.413  31.238  0.00  0.00    -0.004 A 
ATOM     32  C   UNL A   1     -32.333  -6.446  30.249  0.00  0.00    -0.000 A 
ENDBRANCH  22  23
ENDBRANCH  18  22
ENDBRANCH  17  18
ENDBRANCH   6  17
TORSDOF 7
