MODEL 1016
MODEL 1
REMARK VINA RESULT:    -6.221      0.000      0.000
REMARK INTER + INTRA:          -7.093
REMARK INTER:                  -6.948
REMARK INTRA:                  -0.145
REMARK UNBOUND:                -0.145
REMARK  Name = No_1016-gen_results/8p0m/2024-11-26-14-13-15/
REMARK  2 active torsions:
REMARK  status: ('A' for Active; 'I' for Inactive)
REMARK    1  A    between atoms: C_2  and  C_5
REMARK    2  A    between atoms: N_9  and  C_11
REMARK                            x       y       z     vdW  Elec       q    Type
REMARK                         _______ _______ _______ _____ _____    ______ ____
ROOT
ATOM      1  C   UNL A   1     -24.628  -0.849  28.522  0.00  0.00    +0.253 C 
ATOM      2  O   UNL A   1     -24.595  -0.418  27.430  0.00  0.00    -0.270 OA
ATOM      3  N   UNL A   1     -24.170  -0.074  29.567  0.00  0.00    -0.253 N 
ATOM      4  C   UNL A   1     -23.629   1.226  29.331  0.00  0.00    +0.120 C 
ENDROOT
BRANCH   1   6
ATOM      5  C   UNL A   1     -25.961  -2.451  29.313  0.00  0.00    +0.004 A 
ATOM      6  C   UNL A   1     -25.010  -2.297  28.886  0.00  0.00    +0.054 A 
ATOM      7  C   UNL A   1     -26.282  -3.880  29.689  0.00  0.00    +0.000 A 
ATOM      8  C   UNL A   1     -25.487  -4.751  29.432  0.00  0.00    +0.000 A 
ATOM      9  C   UNL A   1     -24.213  -4.536  28.872  0.00  0.00    +0.000 A 
ATOM     10  C   UNL A   1     -23.917  -3.192  28.591  0.00  0.00    +0.004 A 
ENDBRANCH   1   6
BRANCH   3  11
ATOM     11  C   UNL A   1     -24.200  -0.528  30.950  0.00  0.00    +0.054 A 
ATOM     12  C   UNL A   1     -22.939  -1.085  31.355  0.00  0.00    +0.015 A 
ATOM     13  C   UNL A   1     -22.840  -1.280  32.609  0.00  0.00    +0.001 A 
ATOM     14  C   UNL A   1     -23.877  -1.105  33.607  0.00  0.00    +0.000 A 
ATOM     15  C   UNL A   1     -25.056  -0.601  33.116  0.00  0.00    +0.001 A 
ATOM     16  C   UNL A   1     -25.191  -0.224  31.785  0.00  0.00    +0.015 A 
ENDBRANCH   3  11
TORSDOF 2
ENDMDL
ENDMDL
