REMARK  Name = No_1016-gen_results/8p0m/2024-11-26-14-13-15/
REMARK  2 active torsions:
REMARK  status: ('A' for Active; 'I' for Inactive)
REMARK    1  A    between atoms: C_2  and  C_5
REMARK    2  A    between atoms: N_9  and  C_11
REMARK                            x       y       z     vdW  Elec       q    Type
REMARK                         _______ _______ _______ _____ _____    ______ ____
ROOT
ATOM      1  C   UNL A   1     -30.008  -0.857  29.877  0.00  0.00    +0.253 C 
ATOM      2  O   UNL A   1     -30.624  -1.740  30.346  0.00  0.00    -0.270 OA
ATOM      3  N   UNL A   1     -30.672   0.139  29.192  0.00  0.00    -0.253 N 
ATOM      4  C   UNL A   1     -32.088   0.090  29.021  0.00  0.00    +0.120 C 
ENDROOT
BRANCH   1   6
ATOM      5  C   UNL A   1     -28.016  -0.814  28.878  0.00  0.00    +0.004 A 
ATOM      6  C   UNL A   1     -28.469  -0.785  29.829  0.00  0.00    +0.054 A 
ATOM      7  C   UNL A   1     -26.504  -0.778  28.877  0.00  0.00    +0.000 A 
ATOM      8  C   UNL A   1     -25.915  -0.658  29.923  0.00  0.00    +0.000 A 
ATOM      9  C   UNL A   1     -26.528  -0.633  31.191  0.00  0.00    +0.000 A 
ATOM     10  C   UNL A   1     -27.929  -0.731  31.166  0.00  0.00    +0.004 A 
ENDBRANCH   1   6
BRANCH   3  11
ATOM     11  C   UNL A   1     -29.982   1.278  28.604  0.00  0.00    +0.054 A 
ATOM     12  C   UNL A   1     -30.203   2.481  29.357  0.00  0.00    +0.015 A 
ATOM     13  C   UNL A   1     -29.442   3.446  29.024  0.00  0.00    +0.001 A 
ATOM     14  C   UNL A   1     -28.494   3.475  27.928  0.00  0.00    +0.000 A 
ATOM     15  C   UNL A   1     -28.379   2.289  27.247  0.00  0.00    +0.001 A 
ATOM     16  C   UNL A   1     -29.067   1.148  27.645  0.00  0.00    +0.015 A 
ENDBRANCH   3  11
TORSDOF 2
