REMARK  Name = No_1018-gen_results/8p0m/2024-11-26-14-13-15/
REMARK  7 active torsions:
REMARK  status: ('A' for Active; 'I' for Inactive)
REMARK    1  A    between atoms: C_4  and  C_5
REMARK    2  A    between atoms: C_5  and  C_8
REMARK    3  A    between atoms: C_8  and  C_9
REMARK    4  A    between atoms: C_8  and  C_10
REMARK    5  A    between atoms: C_9  and  C_12
REMARK    6  A    between atoms: C_10  and  C_11
REMARK    7  A    between atoms: C_11  and  C_13
REMARK                            x       y       z     vdW  Elec       q    Type
REMARK                         _______ _______ _______ _____ _____    ______ ____
ROOT
ATOM      1  C   UNL A   1     -23.697   0.148  29.941  0.00  0.00    +0.009 C 
ENDROOT
BRANCH   1   2
ATOM      2  C   UNL A   1     -24.370  -1.100  30.072  0.00  0.00    +0.027 C 
BRANCH   2   6
ATOM      3  C   UNL A   1     -28.016  -0.814  28.878  0.00  0.00    -0.000 A 
ATOM      4  C   UNL A   1     -28.469  -0.785  29.829  0.00  0.00    -0.000 A 
ATOM      5  C   UNL A   1     -26.546  -0.876  28.850  0.00  0.00    -0.004 A 
ATOM      6  C   UNL A   1     -25.804  -1.032  30.057  0.00  0.00    -0.022 A 
ATOM      7  C   UNL A   1     -27.990  -1.005  31.209  0.00  0.00    -0.000 A 
ATOM      8  C   UNL A   1     -26.432  -1.048  31.250  0.00  0.00    -0.004 A 
ENDBRANCH   2   6
ENDBRANCH   1   2
BRANCH   1   9
ATOM      9  C   UNL A   1     -24.007   1.273  30.500  0.00  0.00    +0.027 C 
BRANCH   9  10
ATOM     10  C   UNL A   1     -25.196   1.375  31.389  0.00  0.00    -0.022 A 
ATOM     11  C   UNL A   1     -25.807   2.579  31.436  0.00  0.00    -0.004 A 
ATOM     12  C   UNL A   1     -26.998   2.677  32.217  0.00  0.00    -0.000 A 
ATOM     13  C   UNL A   1     -27.239   1.725  33.180  0.00  0.00    -0.000 A 
ATOM     14  C   UNL A   1     -26.425   0.636  33.339  0.00  0.00    -0.000 A 
ATOM     15  C   UNL A   1     -25.298   0.491  32.439  0.00  0.00    -0.004 A 
ENDBRANCH   9  10
ENDBRANCH   1   9
BRANCH   1  16
ATOM     16  C   UNL A   1     -22.465   0.163  29.094  0.00  0.00    +0.005 C 
BRANCH  16  17
ATOM     17  C   UNL A   1     -22.000   1.297  28.455  0.00  0.00    +0.022 C 
BRANCH  17  18
ATOM     18  C   UNL A   1     -22.760   1.804  27.442  0.00  0.00    -0.040 C 
ATOM     19  C   UNL A   1     -22.750   1.554  26.090  0.00  0.00    -0.009 C 
ATOM     20  C   UNL A   1     -23.997   1.751  25.439  0.00  0.00    -0.005 C 
ATOM     21  C   UNL A   1     -25.057   2.362  26.221  0.00  0.00    -0.022 C 
ATOM     22  C   UNL A   1     -24.159   2.425  27.685  0.00  0.00    +0.048 C 
ENDBRANCH  17  18
ENDBRANCH  16  17
ENDBRANCH   1  16
TORSDOF 7
