MODEL 1018
MODEL 1
REMARK VINA RESULT:    -7.380      0.000      0.000
REMARK INTER + INTRA:         -12.240
REMARK INTER:                 -10.400
REMARK INTRA:                  -1.840
REMARK UNBOUND:                -1.840
REMARK  Name = No_1018-gen_results/8p0m/2024-11-26-14-13-15/
REMARK  7 active torsions:
REMARK  status: ('A' for Active; 'I' for Inactive)
REMARK    1  A    between atoms: C_4  and  C_5
REMARK    2  A    between atoms: C_5  and  C_8
REMARK    3  A    between atoms: C_8  and  C_9
REMARK    4  A    between atoms: C_8  and  C_10
REMARK    5  A    between atoms: C_9  and  C_12
REMARK    6  A    between atoms: C_10  and  C_11
REMARK    7  A    between atoms: C_11  and  C_13
REMARK                            x       y       z     vdW  Elec       q    Type
REMARK                         _______ _______ _______ _____ _____    ______ ____
ROOT
ATOM      1  C   UNL A   1     -23.306  -0.537  29.157  0.00  0.00    +0.009 C 
ENDROOT
BRANCH   1   2
ATOM      2  C   UNL A   1     -22.733   0.007  30.341  0.00  0.00    +0.027 C 
BRANCH   2   6
ATOM      3  C   UNL A   1     -25.389   0.288  33.110  0.00  0.00    -0.000 A 
ATOM      4  C   UNL A   1     -24.957  -0.398  33.783  0.00  0.00    -0.000 A 
ATOM      5  C   UNL A   1     -24.647   0.546  31.866  0.00  0.00    -0.004 A 
ATOM      6  C   UNL A   1     -23.482  -0.211  31.546  0.00  0.00    -0.022 A 
ATOM      7  C   UNL A   1     -23.844  -1.366  33.700  0.00  0.00    -0.000 A 
ATOM      8  C   UNL A   1     -22.998  -1.123  32.414  0.00  0.00    -0.004 A 
ENDBRANCH   2   6
ENDBRANCH   1   2
BRANCH   1   9
ATOM      9  C   UNL A   1     -23.236  -1.759  28.736  0.00  0.00    +0.027 C 
BRANCH   9  10
ATOM     10  C   UNL A   1     -24.233  -2.771  29.180  0.00  0.00    -0.022 A 
ATOM     11  C   UNL A   1     -24.065  -4.025  28.706  0.00  0.00    -0.004 A 
ATOM     12  C   UNL A   1     -24.959  -5.029  29.185  0.00  0.00    -0.000 A 
ATOM     13  C   UNL A   1     -26.154  -4.641  29.744  0.00  0.00    -0.000 A 
ATOM     14  C   UNL A   1     -26.462  -3.322  29.947  0.00  0.00    -0.000 A 
ATOM     15  C   UNL A   1     -25.474  -2.328  29.577  0.00  0.00    -0.004 A 
ENDBRANCH   9  10
ENDBRANCH   1   9
BRANCH   1  16
ATOM     16  C   UNL A   1     -24.120   0.393  28.314  0.00  0.00    +0.005 C 
BRANCH  16  17
ATOM     17  C   UNL A   1     -23.824   0.669  26.992  0.00  0.00    +0.022 C 
BRANCH  17  18
ATOM     18  C   UNL A   1     -24.864   0.700  26.109  0.00  0.00    -0.040 C 
ATOM     19  C   UNL A   1     -25.053   0.056  24.910  0.00  0.00    -0.009 C 
ATOM     20  C   UNL A   1     -26.411  -0.179  24.567  0.00  0.00    -0.005 C 
ATOM     21  C   UNL A   1     -27.417   0.445  25.408  0.00  0.00    -0.022 C 
ATOM     22  C   UNL A   1     -26.298   1.109  26.531  0.00  0.00    +0.048 C 
ENDBRANCH  17  18
ENDBRANCH  16  17
ENDBRANCH   1  16
TORSDOF 7
ENDMDL
ENDMDL
