MODEL 101
MODEL 1
REMARK VINA RESULT:    -6.972      0.000      0.000
REMARK INTER + INTRA:          -9.703
REMARK INTER:                  -9.010
REMARK INTRA:                  -0.693
REMARK UNBOUND:                -0.693
REMARK  Name = No_101-gen_results/8p0m/2024-11-26-14-13-15/
REMARK  5 active torsions:
REMARK  status: ('A' for Active; 'I' for Inactive)
REMARK    1  A    between atoms: C_1  and  C_2
REMARK    2  A    between atoms: C_5  and  C_11
REMARK    3  A    between atoms: N_8  and  C_10
REMARK    4  A    between atoms: C_17  and  C_20
REMARK    5  A    between atoms: N_22  and  C_23
REMARK                            x       y       z     vdW  Elec       q    Type
REMARK                         _______ _______ _______ _____ _____    ______ ____
ROOT
ATOM      1  C   UNL A   1     -26.677   0.371  24.935  0.00  0.00    +0.269 C 
ATOM      2  N   UNL A   1     -26.614   0.323  26.385  0.00  0.00    -0.175 NA
ATOM      3  O   UNL A   1     -25.896  -0.518  24.438  0.00  0.00    -0.268 OA
ENDROOT
BRANCH   1   4
ATOM      4  C   UNL A   1     -27.720   0.662  24.395  0.00  0.00    +0.055 A 
ATOM      5  C   UNL A   1     -28.698  -0.232  24.104  0.00  0.00    +0.004 A 
ATOM      6  C   UNL A   1     -29.980   0.108  23.446  0.00  0.00    +0.004 A 
ATOM      7  C   UNL A   1     -30.196   1.488  23.122  0.00  0.00    +0.071 A 
ATOM      8  C   UNL A   1     -29.186   2.397  23.506  0.00  0.00    +0.004 A 
ATOM      9  C   UNL A   1     -28.020   2.008  24.115  0.00  0.00    +0.004 A 
BRANCH   7  10
ATOM     10  C   UNL A   1     -31.397   1.961  22.517  0.00  0.00    +0.419 C 
ATOM     11  F   UNL A   1     -32.205   2.492  23.061  0.00  0.00    -0.166 F 
ATOM     12  F   UNL A   1     -31.114   2.602  21.293  0.00  0.00    -0.166 F 
ATOM     13  F   UNL A   1     -32.053   0.787  21.853  0.00  0.00    -0.166 F 
ENDBRANCH   7  10
ENDBRANCH   1   4
BRANCH   2  14
ATOM     14  C   UNL A   1     -25.742   0.209  27.125  0.00  0.00    +0.074 A 
ATOM     15  C   UNL A   1     -25.551  -0.970  28.008  0.00  0.00    +0.017 A 
ATOM     16  C   UNL A   1     -24.505  -1.177  28.416  0.00  0.00    +0.006 A 
ATOM     17  C   UNL A   1     -23.373  -0.285  28.529  0.00  0.00    +0.056 A 
ATOM     18  C   UNL A   1     -23.476   0.849  27.740  0.00  0.00    +0.006 A 
ATOM     19  C   UNL A   1     -24.585   1.050  26.979  0.00  0.00    +0.017 A 
BRANCH  17  20
ATOM     20  C   UNL A   1     -22.181  -0.667  29.316  0.00  0.00    +0.269 C 
ATOM     21  O   UNL A   1     -21.184  -1.054  28.862  0.00  0.00    -0.268 OA
ATOM     22  N   UNL A   1     -22.260  -0.555  30.695  0.00  0.00    -0.174 NA
BRANCH  22  23
ATOM     23  C   UNL A   1     -23.353  -0.152  31.448  0.00  0.00    +0.089 C 
ATOM     24  C   UNL A   1     -23.712  -1.149  32.501  0.00  0.00    +0.019 C 
ENDBRANCH  22  23
ENDBRANCH  17  20
ENDBRANCH   2  14
TORSDOF 5
ENDMDL
ENDMDL
