MODEL 1020
MODEL 1
REMARK VINA RESULT:    -5.298      0.000      0.000
REMARK INTER + INTRA:          -5.754
REMARK INTER:                  -5.608
REMARK INTRA:                  -0.146
REMARK UNBOUND:                -0.146
REMARK  Name = No_1020-gen_results/8p0m/2024-11-26-14-13-15/
REMARK  1 active torsions:
REMARK  status: ('A' for Active; 'I' for Inactive)
REMARK    1  A    between atoms: C_4  and  C_7
REMARK                            x       y       z     vdW  Elec       q    Type
REMARK                         _______ _______ _______ _____ _____    ______ ____
ROOT
ATOM      1  C   UNL A   1     -26.613  -3.977  29.826  0.00  0.00    -0.000 A 
ATOM      2  C   UNL A   1     -26.103  -4.869  29.594  0.00  0.00    -0.000 A 
ATOM      3  C   UNL A   1     -25.854  -2.725  29.673  0.00  0.00    +0.004 A 
ATOM      4  C   UNL A   1     -24.548  -2.734  29.102  0.00  0.00    +0.071 A 
ATOM      5  C   UNL A   1     -24.794  -5.146  28.942  0.00  0.00    -0.000 A 
ATOM      6  C   UNL A   1     -24.057  -4.010  28.792  0.00  0.00    +0.004 A 
ENDROOT
BRANCH   4   7
ATOM      7  C   UNL A   1     -23.775  -1.550  28.921  0.00  0.00    +0.419 C 
ATOM      8  F   UNL A   1     -22.574  -1.755  28.900  0.00  0.00    -0.166 F 
ATOM      9  F   UNL A   1     -24.053  -0.630  29.961  0.00  0.00    -0.166 F 
ATOM     10  F   UNL A   1     -24.138  -0.914  27.789  0.00  0.00    -0.166 F 
ENDBRANCH   4   7
TORSDOF 1
ENDMDL
ENDMDL
