MODEL 1022
MODEL 1
REMARK VINA RESULT:    -6.982      0.000      0.000
REMARK INTER + INTRA:          -7.474
REMARK INTER:                  -7.390
REMARK INTRA:                  -0.084
REMARK UNBOUND:                -0.084
REMARK  Name = No_1022-gen_results/8p0m/2024-11-26-14-13-15/
REMARK  1 active torsions:
REMARK  status: ('A' for Active; 'I' for Inactive)
REMARK    1  A    between atoms: C_5  and  C_14
REMARK                            x       y       z     vdW  Elec       q    Type
REMARK                         _______ _______ _______ _____ _____    ______ ____
ROOT
ATOM      1  C   UNL A   1     -29.885  -9.530  31.984  0.00  0.00    +0.003 A 
ATOM      2  C   UNL A   1     -29.902 -10.328  31.075  0.00  0.00    +0.035 A 
ATOM      3  C   UNL A   1     -29.058 -11.419  30.955  0.00  0.00    -0.014 A 
ATOM      4  C   UNL A   1     -28.115 -11.628  32.005  0.00  0.00    +0.003 A 
ATOM      5  C   UNL A   1     -28.222 -10.824  33.075  0.00  0.00    +0.080 A 
ATOM      6  C   UNL A   1     -29.081  -9.846  33.120  0.00  0.00    +0.007 A 
ATOM      7  C   UNL A   1     -29.026 -12.302  29.735  0.00  0.00    +0.057 C 
ATOM      8  C   UNL A   1     -29.550 -11.720  28.643  0.00  0.00    +0.031 A 
ATOM      9  C   UNL A   1     -30.424 -10.595  28.689  0.00  0.00    +0.041 A 
ATOM     10  C   UNL A   1     -30.572  -9.907  29.776  0.00  0.00    +0.195 C 
ATOM     11  C   UNL A   1     -29.632 -12.596  27.363  0.00  0.00    +0.219 A 
ATOM     12  N   UNL A   1     -30.018 -12.020  26.211  0.00  0.00    -0.217 NA
ATOM     13  F   UNL A   1     -29.237 -13.776  27.386  0.00  0.00    -0.183 F 
ATOM     14  C   UNL A   1     -30.618 -10.847  26.076  0.00  0.00    +0.101 A 
ATOM     15  C   UNL A   1     -30.927 -10.056  27.378  0.00  0.00    +0.024 A 
ATOM     16  O   UNL A   1     -31.313  -8.844  29.850  0.00  0.00    -0.287 OA
ENDROOT
BRANCH   5  17
ATOM     17  C   UNL A   1     -27.336 -11.147  34.242  0.00  0.00    +0.388 C 
ATOM     18  O   UNL A   1     -26.823 -10.365  34.833  0.00  0.00    -0.241 OA
ATOM     19  O   UNL A   1     -27.201 -12.416  34.511  0.00  0.00    -0.241 OA
ENDBRANCH   5  17
TORSDOF 1
ENDMDL
ENDMDL
