REMARK  Name = No_1022-gen_results/8p0m/2024-11-26-14-13-15/
REMARK  1 active torsions:
REMARK  status: ('A' for Active; 'I' for Inactive)
REMARK    1  A    between atoms: C_5  and  C_14
REMARK                            x       y       z     vdW  Elec       q    Type
REMARK                         _______ _______ _______ _____ _____    ______ ____
ROOT
ATOM      1  C   UNL A   1     -28.016  -0.814  28.878  0.00  0.00    +0.003 A 
ATOM      2  C   UNL A   1     -27.064  -0.119  28.608  0.00  0.00    +0.035 A 
ATOM      3  C   UNL A   1     -26.972   0.714  27.506  0.00  0.00    -0.014 A 
ATOM      4  C   UNL A   1     -28.105   0.774  26.642  0.00  0.00    +0.003 A 
ATOM      5  C   UNL A   1     -29.204   0.118  27.048  0.00  0.00    +0.080 A 
ATOM      6  C   UNL A   1     -29.213  -0.609  28.128  0.00  0.00    +0.007 A 
ATOM      7  C   UNL A   1     -25.711   1.452  27.138  0.00  0.00    +0.057 C 
ATOM      8  C   UNL A   1     -24.605   0.925  27.690  0.00  0.00    +0.031 A 
ATOM      9  C   UNL A   1     -24.623   0.060  28.823  0.00  0.00    +0.041 A 
ATOM     10  C   UNL A   1     -25.727  -0.473  29.241  0.00  0.00    +0.195 C 
ATOM     11  C   UNL A   1     -23.273   1.679  27.428  0.00  0.00    +0.219 A 
ATOM     12  N   UNL A   1     -22.123   1.119  27.841  0.00  0.00    -0.217 NA
ATOM     13  F   UNL A   1     -23.267   2.722  26.749  0.00  0.00    -0.183 F 
ATOM     14  C   UNL A   1     -21.994   0.123  28.705  0.00  0.00    +0.101 A 
ATOM     15  C   UNL A   1     -23.299  -0.450  29.324  0.00  0.00    +0.024 A 
ATOM     16  O   UNL A   1     -25.783  -1.309  30.232  0.00  0.00    -0.287 OA
ENDROOT
BRANCH   5  17
ATOM     17  C   UNL A   1     -30.440   0.312  26.220  0.00  0.00    +0.388 C 
ATOM     18  O   UNL A   1     -30.770   1.308  25.870  0.00  0.00    -0.241 OA
ATOM     19  O   UNL A   1     -31.109  -0.774  25.946  0.00  0.00    -0.241 OA
ENDBRANCH   5  17
TORSDOF 1
