REMARK  Name = No_1023-gen_results/8p0m/2024-11-26-14-13-15/
REMARK  4 active torsions:
REMARK  status: ('A' for Active; 'I' for Inactive)
REMARK    1  A    between atoms: C_2  and  N_3
REMARK    2  A    between atoms: N_3  and  C_8
REMARK    3  A    between atoms: C_9  and  C_10
REMARK    4  A    between atoms: C_11  and  C_12
REMARK                            x       y       z     vdW  Elec       q    Type
REMARK                         _______ _______ _______ _____ _____    ______ ____
ROOT
ATOM      1  C   UNL A   1     -26.693   1.944  27.478  0.00  0.00    +0.054 A 
ATOM      2  C   UNL A   1     -26.052   2.698  27.101  0.00  0.00    +0.033 A 
ATOM      3  C   UNL A   1     -27.758   2.631  28.504  0.00  0.00    +0.031 A 
ATOM      4  C   UNL A   1     -28.616   2.339  29.024  0.00  0.00    +0.003 A 
ATOM      5  C   UNL A   1     -29.433   3.099  29.904  0.00  0.00    +0.000 A 
ATOM      6  C   UNL A   1     -29.070   4.385  30.101  0.00  0.00    +0.002 A 
ATOM      7  C   UNL A   1     -27.465   4.145  28.884  0.00  0.00    +0.083 A 
ATOM      8  C   UNL A   1     -28.084   4.955  29.588  0.00  0.00    +0.019 A 
ATOM      9  N   UNL A   1     -26.206   4.689  28.148  0.00  0.00    -0.244 NA
ATOM     10  C   UNL A   1     -25.661   4.167  27.354  0.00  0.00    +0.100 A 
ENDROOT
BRANCH   1  11
ATOM     11  N   UNL A   1     -26.985   0.597  27.522  0.00  0.00    -0.285 N 
ATOM     12  C   UNL A   1     -27.084   0.067  26.161  0.00  0.00    +0.117 C 
BRANCH  11  14
ATOM     13  C   UNL A   1     -28.016  -0.814  28.878  0.00  0.00    +0.015 A 
ATOM     14  C   UNL A   1     -27.064  -0.119  28.608  0.00  0.00    +0.052 A 
ATOM     15  C   UNL A   1     -27.961  -1.542  30.166  0.00  0.00    +0.001 A 
ATOM     16  C   UNL A   1     -26.863  -1.670  30.661  0.00  0.00    +0.000 A 
ATOM     17  C   UNL A   1     -25.631  -1.147  30.329  0.00  0.00    +0.001 A 
ATOM     18  C   UNL A   1     -25.731  -0.300  29.197  0.00  0.00    +0.015 A 
ENDBRANCH  11  14
ENDBRANCH   1  11
BRANCH   2  19
ATOM     19  C   UNL A   1     -24.796   2.387  26.275  0.00  0.00    +0.003 C 
ATOM     20  C   UNL A   1     -23.662   2.080  26.840  0.00  0.00    -0.000 C 
BRANCH  20  21
ATOM     21  C   UNL A   1     -23.483   1.965  28.257  0.00  0.00    -0.005 C 
ATOM     22  C   UNL A   1     -22.152   1.583  28.745  0.00  0.00    -0.026 C 
ATOM     23  C   UNL A   1     -21.181   1.179  27.873  0.00  0.00    +0.031 C 
ENDBRANCH  20  21
ENDBRANCH   2  19
TORSDOF 4
