MODEL 1023
MODEL 1
REMARK VINA RESULT:    -7.270      0.000      0.000
REMARK INTER + INTRA:         -10.125
REMARK INTER:                  -8.971
REMARK INTRA:                  -1.154
REMARK UNBOUND:                -1.154
REMARK  Name = No_1023-gen_results/8p0m/2024-11-26-14-13-15/
REMARK  4 active torsions:
REMARK  status: ('A' for Active; 'I' for Inactive)
REMARK    1  A    between atoms: C_2  and  N_3
REMARK    2  A    between atoms: N_3  and  C_8
REMARK    3  A    between atoms: C_9  and  C_10
REMARK    4  A    between atoms: C_11  and  C_12
REMARK                            x       y       z     vdW  Elec       q    Type
REMARK                         _______ _______ _______ _____ _____    ______ ____
ROOT
ATOM      1  C   UNL A   1     -24.952  -1.014  30.097  0.00  0.00    +0.054 A 
ATOM      2  C   UNL A   1     -25.987  -0.847  30.245  0.00  0.00    +0.033 A 
ATOM      3  C   UNL A   1     -24.737  -2.560  29.624  0.00  0.00    +0.031 A 
ATOM      4  C   UNL A   1     -23.949  -3.149  29.271  0.00  0.00    +0.003 A 
ATOM      5  C   UNL A   1     -23.951  -4.522  28.906  0.00  0.00    +0.000 A 
ATOM      6  C   UNL A   1     -25.130  -5.172  29.015  0.00  0.00    +0.002 A 
ATOM      7  C   UNL A   1     -26.019  -3.492  29.723  0.00  0.00    +0.083 A 
ATOM      8  C   UNL A   1     -26.205  -4.677  29.412  0.00  0.00    +0.019 A 
ATOM      9  N   UNL A   1     -27.263  -2.706  30.229  0.00  0.00    -0.244 NA
ATOM     10  C   UNL A   1     -27.315  -1.620  30.365  0.00  0.00    +0.100 A 
ENDROOT
BRANCH   1  11
ATOM     11  N   UNL A   1     -23.677  -0.497  30.189  0.00  0.00    -0.285 N 
ATOM     12  C   UNL A   1     -23.105  -0.819  31.497  0.00  0.00    +0.117 C 
BRANCH  11  14
ATOM     13  C   UNL A   1     -23.422   1.130  28.712  0.00  0.00    +0.015 A 
ATOM     14  C   UNL A   1     -23.039   0.104  29.224  0.00  0.00    +0.052 A 
ATOM     15  C   UNL A   1     -22.596   1.667  27.606  0.00  0.00    +0.001 A 
ATOM     16  C   UNL A   1     -21.458   1.258  27.542  0.00  0.00    +0.000 A 
ATOM     17  C   UNL A   1     -20.791   0.264  28.228  0.00  0.00    +0.001 A 
ATOM     18  C   UNL A   1     -21.651  -0.370  29.159  0.00  0.00    +0.015 A 
ENDBRANCH  11  14
ENDBRANCH   1  11
BRANCH   2  19
ATOM     19  C   UNL A   1     -26.540   0.429  30.895  0.00  0.00    +0.003 C 
ATOM     20  C   UNL A   1     -27.010   1.414  30.181  0.00  0.00    -0.000 C 
BRANCH  20  21
ATOM     21  C   UNL A   1     -27.094   1.393  28.751  0.00  0.00    -0.005 C 
ATOM     22  C   UNL A   1     -26.645   2.588  28.026  0.00  0.00    -0.026 C 
ATOM     23  C   UNL A   1     -26.333   3.734  28.700  0.00  0.00    +0.031 C 
ENDBRANCH  20  21
ENDBRANCH   2  19
TORSDOF 4
ENDMDL
ENDMDL
