REMARK  Name = No_1024-gen_results/8p0m/2024-11-26-14-13-15/
REMARK  1 active torsions:
REMARK  status: ('A' for Active; 'I' for Inactive)
REMARK    1  A    between atoms: C_2  and  C_5
REMARK                            x       y       z     vdW  Elec       q    Type
REMARK                         _______ _______ _______ _____ _____    ______ ____
ROOT
ATOM      1  C   UNL A   1     -28.016  -0.814  28.878  0.00  0.00    +0.003 A 
ATOM      2  C   UNL A   1     -28.469  -0.785  29.829  0.00  0.00    +0.042 A 
ATOM      3  C   UNL A   1     -27.087   0.290  28.638  0.00  0.00    +0.000 A 
ATOM      4  C   UNL A   1     -26.252   0.411  27.422  0.00  0.00    +0.000 A 
ATOM      5  C   UNL A   1     -25.146   1.240  27.356  0.00  0.00    +0.000 A 
ATOM      6  C   UNL A   1     -24.226   1.332  26.283  0.00  0.00    +0.000 A 
ATOM      7  C   UNL A   1     -28.174   0.209  30.918  0.00  0.00    +0.003 A 
ATOM      8  C   UNL A   1     -27.367   1.214  30.756  0.00  0.00    +0.000 A 
ATOM      9  C   UNL A   1     -26.679   1.284  29.571  0.00  0.00    +0.000 A 
ATOM     10  C   UNL A   1     -23.081   2.242  26.404  0.00  0.00    +0.000 A 
ATOM     11  C   UNL A   1     -22.586   2.441  27.531  0.00  0.00    +0.000 A 
ATOM     12  C   UNL A   1     -23.280   2.037  28.760  0.00  0.00    +0.000 A 
ATOM     13  C   UNL A   1     -24.459   1.427  28.694  0.00  0.00    +0.000 A 
ATOM     14  C   UNL A   1     -25.385   1.511  29.831  0.00  0.00    +0.000 A 
ENDROOT
BRANCH   2  15
ATOM     15  C   UNL A   1     -29.431  -1.931  30.271  0.00  0.00    +0.234 C 
ATOM     16  O   UNL A   1     -29.462  -2.504  31.209  0.00  0.00    -0.283 OA
ENDBRANCH   2  15
TORSDOF 1
