MODEL 1024
MODEL 1
REMARK VINA RESULT:    -6.363      0.000      0.000
REMARK INTER + INTRA:          -6.771
REMARK INTER:                  -6.735
REMARK INTRA:                  -0.036
REMARK UNBOUND:                -0.036
REMARK  Name = No_1024-gen_results/8p0m/2024-11-26-14-13-15/
REMARK  1 active torsions:
REMARK  status: ('A' for Active; 'I' for Inactive)
REMARK    1  A    between atoms: C_2  and  C_5
REMARK                            x       y       z     vdW  Elec       q    Type
REMARK                         _______ _______ _______ _____ _____    ______ ____
ROOT
ATOM      1  C   UNL A   1     -23.139  -0.179  31.245  0.00  0.00    +0.003 A 
ATOM      2  C   UNL A   1     -23.561  -1.056  31.647  0.00  0.00    +0.042 A 
ATOM      3  C   UNL A   1     -23.076  -0.175  29.784  0.00  0.00    +0.000 A 
ATOM      4  C   UNL A   1     -22.621   0.984  28.984  0.00  0.00    +0.000 A 
ATOM      5  C   UNL A   1     -22.890   1.109  27.632  0.00  0.00    +0.000 A 
ATOM      6  C   UNL A   1     -22.599   2.230  26.817  0.00  0.00    +0.000 A 
ATOM      7  C   UNL A   1     -24.145  -2.197  30.859  0.00  0.00    +0.003 A 
ATOM      8  C   UNL A   1     -24.107  -2.251  29.562  0.00  0.00    +0.000 A 
ATOM      9  C   UNL A   1     -23.610  -1.155  28.901  0.00  0.00    +0.000 A 
ATOM     10  C   UNL A   1     -22.996   2.204  25.404  0.00  0.00    +0.000 A 
ATOM     11  C   UNL A   1     -24.023   1.577  25.078  0.00  0.00    +0.000 A 
ATOM     12  C   UNL A   1     -24.675   0.635  25.996  0.00  0.00    +0.000 A 
ATOM     13  C   UNL A   1     -24.185   0.441  27.216  0.00  0.00    +0.000 A 
ATOM     14  C   UNL A   1     -24.452  -0.824  27.914  0.00  0.00    +0.000 A 
ENDROOT
BRANCH   2  15
ATOM     15  C   UNL A   1     -23.769  -1.188  33.188  0.00  0.00    +0.234 C 
ATOM     16  O   UNL A   1     -24.595  -0.834  33.821  0.00  0.00    -0.283 OA
ENDBRANCH   2  15
TORSDOF 1
ENDMDL
ENDMDL
