MODEL 1025
MODEL 1
REMARK VINA RESULT:    -7.056      0.000      0.000
REMARK INTER + INTRA:          -8.635
REMARK INTER:                  -7.881
REMARK INTRA:                  -0.754
REMARK UNBOUND:                -0.754
REMARK  Name = No_1025-gen_results/8p0m/2024-11-26-14-13-15/
REMARK  3 active torsions:
REMARK  status: ('A' for Active; 'I' for Inactive)
REMARK    1  A    between atoms: C_4  and  C_7
REMARK    2  A    between atoms: C_12  and  N_14
REMARK    3  A    between atoms: C_15  and  C_20
REMARK                            x       y       z     vdW  Elec       q    Type
REMARK                         _______ _______ _______ _____ _____    ______ ____
ROOT
ATOM      1  C   UNL A   1     -24.028  -1.661  29.042  0.00  0.00    +0.018 A 
ATOM      2  C   UNL A   1     -24.207  -2.585  28.532  0.00  0.00    +0.002 A 
ATOM      3  C   UNL A   1     -25.184  -3.685  28.885  0.00  0.00    +0.000 A 
ATOM      4  C   UNL A   1     -25.925  -3.389  29.976  0.00  0.00    +0.002 A 
ATOM      5  C   UNL A   1     -25.819  -2.181  30.689  0.00  0.00    +0.018 A 
ATOM      6  C   UNL A   1     -24.822  -1.240  30.196  0.00  0.00    +0.070 A 
ENDROOT
BRANCH   1  10
ATOM      7  C   UNL A   1     -22.881   1.474  27.122  0.00  0.00    +0.030 A 
ATOM      8  C   UNL A   1     -21.889   1.510  27.477  0.00  0.00    +0.002 A 
ATOM      9  C   UNL A   1     -23.706   0.346  27.583  0.00  0.00    +0.140 A 
ATOM     10  C   UNL A   1     -23.213  -0.557  28.569  0.00  0.00    +0.029 A 
ATOM     11  C   UNL A   1     -21.921  -0.348  28.984  0.00  0.00    +0.002 A 
ATOM     12  C   UNL A   1     -21.200   0.689  28.508  0.00  0.00    +0.000 A 
ATOM     13  F   UNL A   1     -24.911   0.168  27.164  0.00  0.00    -0.204 F 
ENDBRANCH   1  10
BRANCH   6  14
ATOM     14  N   UNL A   1     -24.596  -0.116  30.737  0.00  0.00    -0.241 N 
ATOM     15  C   UNL A   1     -25.727   0.773  31.270  0.00  0.00    +0.107 A 
ATOM     16  C   UNL A   1     -24.441  -0.818  31.920  0.00  0.00    +0.426 A 
ATOM     17  O   UNL A   1     -23.212  -1.117  31.909  0.00  0.00    -0.222 OA
ATOM     18  O   UNL A   1     -24.570   0.081  32.614  0.00  0.00    -0.403 OA
ATOM     19  C   UNL A   1     -25.562   1.546  32.255  0.00  0.00    +0.202 A 
BRANCH  15  20
ATOM     20  C   UNL A   1     -25.978   1.746  29.899  0.00  0.00    +0.019 A 
ATOM     21  C   UNL A   1     -27.154   1.311  29.220  0.00  0.00    +0.002 A 
ATOM     22  C   UNL A   1     -27.497   2.136  28.060  0.00  0.00    +0.000 A 
ATOM     23  C   UNL A   1     -26.752   3.260  27.735  0.00  0.00    +0.000 A 
ATOM     24  C   UNL A   1     -25.633   3.553  28.506  0.00  0.00    +0.000 A 
ATOM     25  C   UNL A   1     -25.290   2.796  29.566  0.00  0.00    +0.002 A 
ENDBRANCH  15  20
ENDBRANCH   6  14
TORSDOF 3
ENDMDL
ENDMDL
