REMARK  Name = No_1025-gen_results/8p0m/2024-11-26-14-13-15/
REMARK  3 active torsions:
REMARK  status: ('A' for Active; 'I' for Inactive)
REMARK    1  A    between atoms: C_4  and  C_7
REMARK    2  A    between atoms: C_12  and  N_14
REMARK    3  A    between atoms: C_15  and  C_20
REMARK                            x       y       z     vdW  Elec       q    Type
REMARK                         _______ _______ _______ _____ _____    ______ ____
ROOT
ATOM      1  C   UNL A   1     -24.355  -1.112  30.035  0.00  0.00    +0.018 A 
ATOM      2  C   UNL A   1     -23.708  -1.192  30.883  0.00  0.00    +0.002 A 
ATOM      3  C   UNL A   1     -22.199  -1.095  30.934  0.00  0.00    +0.000 A 
ATOM      4  C   UNL A   1     -21.656  -0.835  29.724  0.00  0.00    +0.002 A 
ATOM      5  C   UNL A   1     -22.411  -0.649  28.551  0.00  0.00    +0.018 A 
ATOM      6  C   UNL A   1     -23.855  -0.778  28.701  0.00  0.00    +0.070 A 
ENDROOT
BRANCH   1  10
ATOM      7  C   UNL A   1     -28.016  -0.814  28.878  0.00  0.00    +0.030 A 
ATOM      8  C   UNL A   1     -28.469  -0.785  29.829  0.00  0.00    +0.002 A 
ATOM      9  C   UNL A   1     -26.546  -0.876  28.850  0.00  0.00    +0.140 A 
ATOM     10  C   UNL A   1     -25.804  -1.032  30.057  0.00  0.00    +0.029 A 
ATOM     11  C   UNL A   1     -26.537  -1.039  31.217  0.00  0.00    +0.002 A 
ATOM     12  C   UNL A   1     -27.884  -0.953  31.186  0.00  0.00    +0.000 A 
ATOM     13  F   UNL A   1     -25.885  -0.853  27.745  0.00  0.00    -0.204 F 
ENDBRANCH   1  10
BRANCH   6  14
ATOM     14  N   UNL A   1     -24.670  -0.653  27.738  0.00  0.00    -0.241 N 
ATOM     15  C   UNL A   1     -24.320   0.142  26.474  0.00  0.00    +0.107 A 
ATOM     16  C   UNL A   1     -24.152  -1.847  27.264  0.00  0.00    +0.426 A 
ATOM     17  O   UNL A   1     -24.878  -2.712  27.833  0.00  0.00    -0.222 OA
ATOM     18  O   UNL A   1     -24.534  -1.729  26.193  0.00  0.00    -0.403 OA
ATOM     19  C   UNL A   1     -24.796  -0.158  25.343  0.00  0.00    +0.202 A 
BRANCH  15  20
ATOM     20  C   UNL A   1     -24.970   1.650  26.912  0.00  0.00    +0.019 A 
ATOM     21  C   UNL A   1     -23.997   2.667  26.686  0.00  0.00    +0.002 A 
ATOM     22  C   UNL A   1     -24.488   4.018  26.967  0.00  0.00    +0.000 A 
ATOM     23  C   UNL A   1     -25.802   4.236  27.352  0.00  0.00    +0.000 A 
ATOM     24  C   UNL A   1     -26.631   3.132  27.521  0.00  0.00    +0.000 A 
ATOM     25  C   UNL A   1     -26.193   1.881  27.286  0.00  0.00    +0.002 A 
ENDBRANCH  15  20
ENDBRANCH   6  14
TORSDOF 3
