REMARK  Name = No_1026-gen_results/8p0m/2024-11-26-14-13-15/
REMARK  4 active torsions:
REMARK  status: ('A' for Active; 'I' for Inactive)
REMARK    1  A    between atoms: C_2  and  O_15
REMARK    2  A    between atoms: C_3  and  C_4
REMARK    3  A    between atoms: C_4  and  C_8
REMARK    4  A    between atoms: O_15  and  C_16
REMARK                            x       y       z     vdW  Elec       q    Type
REMARK                         _______ _______ _______ _____ _____    ______ ____
ROOT
ATOM      1  C   UNL A   1     -28.016  -0.814  28.878  0.00  0.00    +0.034 A 
ATOM      2  C   UNL A   1     -28.469  -0.785  29.829  0.00  0.00    +0.145 A 
ATOM      3  C   UNL A   1     -27.087   0.290  28.638  0.00  0.00    -0.005 A 
ATOM      4  C   UNL A   1     -28.391   0.104  30.980  0.00  0.00    +0.037 A 
ATOM      5  C   UNL A   1     -27.533   1.167  30.787  0.00  0.00    +0.003 A 
ATOM      6  C   UNL A   1     -26.828   1.256  29.645  0.00  0.00    -0.003 A 
ENDROOT
BRANCH   3   7
ATOM      7  C   UNL A   1     -26.252   0.411  27.422  0.00  0.00    +0.102 C 
ATOM      8 BR   UNL A   1     -27.304  -0.211  25.890  0.00  0.00    -0.072 Br
BRANCH   7   9
ATOM      9  C   UNL A   1     -25.138   0.675  27.231  0.00  0.00    -0.008 A 
ATOM     10  C   UNL A   1     -24.316   0.867  28.442  0.00  0.00    -0.003 A 
ATOM     11  C   UNL A   1     -22.939   1.296  28.077  0.00  0.00    -0.000 A 
ATOM     12  C   UNL A   1     -22.616   1.859  26.886  0.00  0.00    -0.000 A 
ATOM     13  C   UNL A   1     -23.521   1.827  25.860  0.00  0.00    -0.000 A 
ATOM     14  C   UNL A   1     -24.747   1.278  26.018  0.00  0.00    -0.003 A 
ENDBRANCH   7   9
ENDBRANCH   3   7
BRANCH   2  15
ATOM     15  O   UNL A   1     -29.341  -1.950  30.053  0.00  0.00    -0.454 OA
BRANCH  15  16
ATOM     16  C   UNL A   1     -30.525  -1.686  30.429  0.00  0.00    +0.145 A 
ATOM     17  C   UNL A   1     -31.119  -0.913  30.709  0.00  0.00    +0.037 A 
ATOM     18  C   UNL A   1     -31.204  -3.086  30.516  0.00  0.00    +0.037 A 
ATOM     19  C   UNL A   1     -32.240  -0.727  30.679  0.00  0.00    +0.003 A 
ATOM     20  C   UNL A   1     -32.564  -3.108  30.637  0.00  0.00    +0.003 A 
ATOM     21  C   UNL A   1     -33.154  -1.862  30.804  0.00  0.00    +0.000 A 
ENDBRANCH  15  16
ENDBRANCH   2  15
TORSDOF 4
