MODEL 1026
MODEL 1
REMARK VINA RESULT:    -8.286      0.000      0.000
REMARK INTER + INTRA:         -11.219
REMARK INTER:                 -10.223
REMARK INTRA:                  -0.996
REMARK UNBOUND:                -0.996
REMARK  Name = No_1026-gen_results/8p0m/2024-11-26-14-13-15/
REMARK  4 active torsions:
REMARK  status: ('A' for Active; 'I' for Inactive)
REMARK    1  A    between atoms: C_2  and  O_15
REMARK    2  A    between atoms: C_3  and  C_4
REMARK    3  A    between atoms: C_4  and  C_8
REMARK    4  A    between atoms: O_15  and  C_16
REMARK                            x       y       z     vdW  Elec       q    Type
REMARK                         _______ _______ _______ _____ _____    ______ ____
ROOT
ATOM      1  C   UNL A   1     -24.112  -0.369  28.379  0.00  0.00    +0.034 A 
ATOM      2  C   UNL A   1     -23.463  -0.757  29.113  0.00  0.00    +0.145 A 
ATOM      3  C   UNL A   1     -23.471   0.588  27.477  0.00  0.00    -0.005 A 
ATOM      4  C   UNL A   1     -22.060  -0.565  29.452  0.00  0.00    +0.037 A 
ATOM      5  C   UNL A   1     -21.423   0.342  28.630  0.00  0.00    +0.003 A 
ATOM      6  C   UNL A   1     -22.091   0.894  27.602  0.00  0.00    -0.003 A 
ENDROOT
BRANCH   3   7
ATOM      7  C   UNL A   1     -24.145   1.188  26.304  0.00  0.00    +0.102 C 
ATOM      8 BR   UNL A   1     -22.889   2.418  25.438  0.00  0.00    -0.072 Br
BRANCH   7   9
ATOM      9  C   UNL A   1     -25.231   1.161  25.895  0.00  0.00    -0.008 A 
ATOM     10  C   UNL A   1     -25.549   0.016  25.019  0.00  0.00    -0.003 A 
ATOM     11  C   UNL A   1     -26.930   0.139  24.479  0.00  0.00    -0.000 A 
ATOM     12  C   UNL A   1     -27.615   1.308  24.420  0.00  0.00    -0.000 A 
ATOM     13  C   UNL A   1     -27.141   2.399  25.097  0.00  0.00    -0.000 A 
ATOM     14  C   UNL A   1     -25.984   2.348  25.795  0.00  0.00    -0.003 A 
ENDBRANCH   7   9
ENDBRANCH   3   7
BRANCH   2  15
ATOM     15  O   UNL A   1     -24.131  -1.765  29.953  0.00  0.00    -0.454 OA
BRANCH  15  16
ATOM     16  C   UNL A   1     -24.340  -2.889  29.400  0.00  0.00    +0.145 A 
ATOM     17  C   UNL A   1     -23.915  -3.558  28.766  0.00  0.00    +0.037 A 
ATOM     18  C   UNL A   1     -25.780  -3.264  29.863  0.00  0.00    +0.037 A 
ATOM     19  C   UNL A   1     -24.017  -4.680  28.617  0.00  0.00    +0.003 A 
ATOM     20  C   UNL A   1     -26.184  -4.551  29.647  0.00  0.00    +0.003 A 
ATOM     21  C   UNL A   1     -25.296  -5.325  28.912  0.00  0.00    +0.000 A 
ENDBRANCH  15  16
ENDBRANCH   2  15
TORSDOF 4
ENDMDL
ENDMDL
