REMARK  Name = No_1027-gen_results/8p0m/2024-11-26-14-13-15/
REMARK  1 active torsions:
REMARK  status: ('A' for Active; 'I' for Inactive)
REMARK    1  A    between atoms: C_5  and  C_7
REMARK                            x       y       z     vdW  Elec       q    Type
REMARK                         _______ _______ _______ _____ _____    ______ ____
ROOT
ATOM      1  C   UNL A   1     -28.016  -0.814  28.878  0.00  0.00    +0.029 A 
ATOM      2  C   UNL A   1     -27.064  -0.119  28.608  0.00  0.00    +0.140 A 
ATOM      3  C   UNL A   1     -26.972   0.714  27.506  0.00  0.00    +0.029 A 
ATOM      4  C   UNL A   1     -28.105   0.774  26.642  0.00  0.00    +0.002 A 
ATOM      5  C   UNL A   1     -29.201   0.104  27.053  0.00  0.00    +0.026 A 
ATOM      6  C   UNL A   1     -29.210  -0.603  28.185  0.00  0.00    +0.002 A 
ATOM      7  F   UNL A   1     -25.854  -0.182  29.365  0.00  0.00    -0.204 F 
ENDROOT
BRANCH   5   8
ATOM      8  C   UNL A   1     -30.370   0.226  26.160  0.00  0.00    +0.262 C 
ATOM      9 CL   UNL A   1     -31.636  -0.726  26.425  0.00  0.00    -0.072 Cl
ATOM     10  F   UNL A   1     -30.350   0.938  25.112  0.00  0.00    -0.214 F 
ENDBRANCH   5   8
TORSDOF 1
