MODEL 1027
MODEL 1
REMARK VINA RESULT:    -4.883      0.000      0.000
REMARK INTER + INTRA:          -5.262
REMARK INTER:                  -5.168
REMARK INTRA:                  -0.093
REMARK UNBOUND:                -0.093
REMARK  Name = No_1027-gen_results/8p0m/2024-11-26-14-13-15/
REMARK  1 active torsions:
REMARK  status: ('A' for Active; 'I' for Inactive)
REMARK    1  A    between atoms: C_5  and  C_7
REMARK                            x       y       z     vdW  Elec       q    Type
REMARK                         _______ _______ _______ _____ _____    ______ ____
ROOT
ATOM      1  C   UNL A   1     -21.351   0.226  28.564  0.00  0.00    +0.029 A 
ATOM      2  C   UNL A   1     -22.058   0.963  27.917  0.00  0.00    +0.140 A 
ATOM      3  C   UNL A   1     -23.394   0.741  27.634  0.00  0.00    +0.029 A 
ATOM      4  C   UNL A   1     -23.985  -0.438  28.178  0.00  0.00    +0.002 A 
ATOM      5  C   UNL A   1     -23.210  -1.157  29.016  0.00  0.00    +0.026 A 
ATOM      6  C   UNL A   1     -21.953  -0.803  29.290  0.00  0.00    +0.002 A 
ATOM      7  F   UNL A   1     -21.531   2.118  27.260  0.00  0.00    -0.204 F 
ENDROOT
BRANCH   5   8
ATOM      8  C   UNL A   1     -23.868  -2.344  29.598  0.00  0.00    +0.262 C 
ATOM      9 CL   UNL A   1     -24.022  -3.656  28.684  0.00  0.00    -0.072 Cl
ATOM     10  F   UNL A   1     -24.443  -2.315  30.726  0.00  0.00    -0.214 F 
ENDBRANCH   5   8
TORSDOF 1
ENDMDL
ENDMDL
