REMARK  Name = No_1028-gen_results/8p0m/2024-11-26-14-13-15/
REMARK  11 active torsions:
REMARK  status: ('A' for Active; 'I' for Inactive)
REMARK    1  A    between atoms: C_1  and  C_8
REMARK    2  A    between atoms: C_4  and  C_17
REMARK    3  A    between atoms: C_5  and  C_10
REMARK    4  A    between atoms: C_10  and  C_12
REMARK    5  A    between atoms: C_12  and  N_13
REMARK    6  A    between atoms: N_13  and  C_21
REMARK    7  A    between atoms: C_21  and  C_22
REMARK    8  A    between atoms: C_22  and  C_23
REMARK    9  A    between atoms: C_23  and  C_24
REMARK   10  A    between atoms: C_24  and  N_25
REMARK   11  A    between atoms: N_25  and  C_26
REMARK                            x       y       z     vdW  Elec       q    Type
REMARK                         _______ _______ _______ _____ _____    ______ ____
ROOT
ATOM      1  C   UNL A   1     -28.016  -0.814  28.878  0.00  0.00    +0.050 C 
ATOM      2  C   UNL A   1     -27.064  -0.119  28.608  0.00  0.00    -0.039 C 
ATOM      3  C   UNL A   1     -26.876   1.133  28.913  0.00  0.00    +0.031 C 
ATOM      4  C   UNL A   1     -25.688   1.952  28.567  0.00  0.00    +0.081 C 
ATOM      5  C   UNL A   1     -24.639   1.283  27.875  0.00  0.00    +0.028 C 
ATOM      6  C   UNL A   1     -24.807  -0.051  27.604  0.00  0.00    +0.009 C 
ATOM      7  C   UNL A   1     -25.902  -0.767  27.951  0.00  0.00    +0.022 C 
ENDROOT
BRANCH   1   8
ATOM      8  C   UNL A   1     -28.645  -0.528  30.243  0.00  0.00    +0.249 C 
ATOM      9  N   UNL A   1     -29.622  -0.900  30.614  0.00  0.00    -0.273 N 
ATOM     10  C   UNL A   1     -30.200  -0.750  31.822  0.00  0.00    +0.115 C 
ATOM     11  O   UNL A   1     -27.900   0.167  30.990  0.00  0.00    -0.270 OA
ATOM     12  C   UNL A   1     -30.518  -1.763  29.721  0.00  0.00    +0.115 C 
ENDBRANCH   1   8
BRANCH   5  13
ATOM     13  C   UNL A   1     -23.442   1.985  27.463  0.00  0.00    -0.031 C 
ATOM     14  C   UNL A   1     -23.125   2.579  26.602  0.00  0.00    -0.033 C 
ATOM     15  C   UNL A   1     -24.156   2.996  25.694  0.00  0.00    +0.030 C 
BRANCH  13  16
ATOM     16  C   UNL A   1     -22.263   1.652  28.459  0.00  0.00    +0.110 C 
BRANCH  16  17
ATOM     17  N   UNL A   1     -22.392   0.897  29.514  0.00  0.00    -0.214 NA
BRANCH  17  18
ATOM     18  C   UNL A   1     -22.754  -0.420  29.501  0.00  0.00    +0.089 C 
BRANCH  18  19
ATOM     19  C   UNL A   1     -23.186  -1.034  30.783  0.00  0.00    +0.020 C 
BRANCH  19  20
ATOM     20  C   UNL A   1     -23.215  -0.136  31.855  0.00  0.00    +0.020 C 
BRANCH  20  21
ATOM     21  C   UNL A   1     -24.078   1.013  31.669  0.00  0.00    +0.089 C 
BRANCH  21  22
ATOM     22  N   UNL A   1     -24.930   1.418  32.518  0.00  0.00    -0.218 NA
BRANCH  22  23
ATOM     23  C   UNL A   1     -25.523   2.658  32.418  0.00  0.00    +0.089 C 
ATOM     24  C   UNL A   1     -24.886   3.506  31.977  0.00  0.00    +0.020 C 
ENDBRANCH  22  23
ENDBRANCH  21  22
ENDBRANCH  20  21
ENDBRANCH  19  20
ENDBRANCH  18  19
ENDBRANCH  17  18
ENDBRANCH  16  17
ENDBRANCH  13  16
ENDBRANCH   5  13
BRANCH   4  25
ATOM     25  C   UNL A   1     -25.523   3.363  28.888  0.00  0.00    +0.231 C 
ATOM     26 CL   UNL A   1     -25.812   4.375  27.725  0.00  0.00    -0.043 Cl
ATOM     27  O   UNL A   1     -25.305   3.722  30.111  0.00  0.00    -0.279 OA
ENDBRANCH   4  25
TORSDOF 11
