MODEL 1028
MODEL 1
REMARK VINA RESULT:    -5.824      0.000      0.000
REMARK INTER + INTRA:         -11.604
REMARK INTER:                  -9.570
REMARK INTRA:                  -2.035
REMARK UNBOUND:                -2.035
REMARK  Name = No_1028-gen_results/8p0m/2024-11-26-14-13-15/
REMARK  11 active torsions:
REMARK  status: ('A' for Active; 'I' for Inactive)
REMARK    1  A    between atoms: C_1  and  C_8
REMARK    2  A    between atoms: C_4  and  C_17
REMARK    3  A    between atoms: C_5  and  C_10
REMARK    4  A    between atoms: C_10  and  C_12
REMARK    5  A    between atoms: C_12  and  N_13
REMARK    6  A    between atoms: N_13  and  C_21
REMARK    7  A    between atoms: C_21  and  C_22
REMARK    8  A    between atoms: C_22  and  C_23
REMARK    9  A    between atoms: C_23  and  C_24
REMARK   10  A    between atoms: C_24  and  N_25
REMARK   11  A    between atoms: N_25  and  C_26
REMARK                            x       y       z     vdW  Elec       q    Type
REMARK                         _______ _______ _______ _____ _____    ______ ____
ROOT
ATOM      1  C   UNL A   1     -23.508  -2.120  29.365  0.00  0.00    +0.050 C 
ATOM      2  C   UNL A   1     -23.707  -1.129  28.701  0.00  0.00    -0.039 C 
ATOM      3  C   UNL A   1     -24.590  -0.961  27.760  0.00  0.00    +0.031 C 
ATOM      4  C   UNL A   1     -24.807   0.276  26.969  0.00  0.00    +0.081 C 
ATOM      5  C   UNL A   1     -23.996   1.395  27.313  0.00  0.00    +0.028 C 
ATOM      6  C   UNL A   1     -23.106   1.241  28.344  0.00  0.00    +0.009 C 
ATOM      7  C   UNL A   1     -22.949   0.098  29.051  0.00  0.00    +0.022 C 
ENDROOT
BRANCH   1   8
ATOM      8  C   UNL A   1     -24.768  -2.918  29.708  0.00  0.00    +0.249 C 
ATOM      9  N   UNL A   1     -25.015  -3.945  29.370  0.00  0.00    -0.273 N 
ATOM     10  C   UNL A   1     -26.062  -4.730  29.690  0.00  0.00    +0.115 C 
ATOM     11  O   UNL A   1     -25.537  -2.303  30.500  0.00  0.00    -0.270 OA
ATOM     12  C   UNL A   1     -24.074  -4.704  28.430  0.00  0.00    +0.115 C 
ENDBRANCH   1   8
BRANCH   5  13
ATOM     13  C   UNL A   1     -24.100   2.648  26.595  0.00  0.00    -0.031 C 
ATOM     14  C   UNL A   1     -23.555   3.153  25.794  0.00  0.00    -0.033 C 
ATOM     15  C   UNL A   1     -22.603   2.362  25.066  0.00  0.00    +0.030 C 
BRANCH  13  16
ATOM     16  C   UNL A   1     -25.192   3.561  27.278  0.00  0.00    +0.110 C 
BRANCH  16  17
ATOM     17  N   UNL A   1     -25.120   3.988  28.508  0.00  0.00    -0.214 NA
BRANCH  17  18
ATOM     18  C   UNL A   1     -26.046   3.746  29.482  0.00  0.00    +0.089 C 
BRANCH  18  19
ATOM     19  C   UNL A   1     -26.132   2.369  30.033  0.00  0.00    +0.020 C 
BRANCH  19  20
ATOM     20  C   UNL A   1     -25.318   2.160  31.151  0.00  0.00    +0.020 C 
BRANCH  20  21
ATOM     21  C   UNL A   1     -25.434   0.849  31.756  0.00  0.00    +0.089 C 
BRANCH  21  22
ATOM     22  N   UNL A   1     -26.377   0.493  32.528  0.00  0.00    -0.218 NA
BRANCH  22  23
ATOM     23  C   UNL A   1     -26.147  -0.264  33.656  0.00  0.00    +0.089 C 
ATOM     24  C   UNL A   1     -25.051  -0.434  33.955  0.00  0.00    +0.020 C 
ENDBRANCH  22  23
ENDBRANCH  21  22
ENDBRANCH  20  21
ENDBRANCH  19  20
ENDBRANCH  18  19
ENDBRANCH  17  18
ENDBRANCH  16  17
ENDBRANCH  13  16
ENDBRANCH   5  13
BRANCH   4  25
ATOM     25  C   UNL A   1     -25.778   0.422  25.894  0.00  0.00    +0.231 C 
ATOM     26 CL   UNL A   1     -25.301  -0.022  24.467  0.00  0.00    -0.043 Cl
ATOM     27  O   UNL A   1     -26.997   0.752  26.170  0.00  0.00    -0.279 OA
ENDBRANCH   4  25
TORSDOF 11
ENDMDL
ENDMDL
