MODEL 1029
MODEL 1
REMARK VINA RESULT:    -6.291      0.000      0.000
REMARK INTER + INTRA:          -8.682
REMARK INTER:                  -7.762
REMARK INTRA:                  -0.920
REMARK UNBOUND:                -0.920
REMARK  Name = No_1029-gen_results/8p0m/2024-11-26-14-13-15/
REMARK  4 active torsions:
REMARK  status: ('A' for Active; 'I' for Inactive)
REMARK    1  A    between atoms: C_3  and  C_7
REMARK    2  A    between atoms: C_8  and  C_13
REMARK    3  A    between atoms: C_13  and  N_14
REMARK    4  A    between atoms: N_14  and  C_15
REMARK                            x       y       z     vdW  Elec       q    Type
REMARK                         _______ _______ _______ _____ _____    ______ ____
ROOT
ATOM      1  C   UNL A   1     -24.552  -2.574  28.859  0.00  0.00    -0.002 A 
ATOM      2  C   UNL A   1     -25.689  -2.649  29.535  0.00  0.00    -0.001 A 
ATOM      3  C   UNL A   1     -26.264  -3.915  29.875  0.00  0.00    -0.003 A 
ATOM      4  C   UNL A   1     -25.679  -5.122  29.405  0.00  0.00    -0.000 A 
ATOM      5  C   UNL A   1     -23.995  -3.841  28.499  0.00  0.00    -0.000 A 
ATOM      6  C   UNL A   1     -24.555  -4.999  28.782  0.00  0.00    -0.000 A 
ENDROOT
BRANCH   1   9
ATOM      7  C   UNL A   1     -23.677   0.766  27.547  0.00  0.00    -0.000 A 
ATOM      8  C   UNL A   1     -24.288  -0.262  27.727  0.00  0.00    -0.000 A 
ATOM      9  C   UNL A   1     -23.855  -1.278  28.577  0.00  0.00    -0.000 A 
ATOM     10  C   UNL A   1     -22.577  -1.140  29.249  0.00  0.00    -0.000 A 
ATOM     11  C   UNL A   1     -21.898   0.052  28.998  0.00  0.00    -0.000 A 
ATOM     12  C   UNL A   1     -22.377   0.957  28.168  0.00  0.00    -0.000 A 
ENDBRANCH   1   9
BRANCH   2  13
ATOM     13  C   UNL A   1     -26.411  -1.398  29.975  0.00  0.00    +0.139 C 
BRANCH  13  14
ATOM     14  N   UNL A   1     -26.461  -1.037  31.259  0.00  0.00    -0.232 NA
BRANCH  14  15
ATOM     15  C   UNL A   1     -25.366  -0.613  31.973  0.00  0.00    +0.081 C 
ATOM     16  C   UNL A   1     -24.892   0.631  31.578  0.00  0.00    +0.019 C 
ENDBRANCH  14  15
ENDBRANCH  13  14
ENDBRANCH   2  13
TORSDOF 4
ENDMDL
ENDMDL
