REMARK  Name = No_1029-gen_results/8p0m/2024-11-26-14-13-15/
REMARK  4 active torsions:
REMARK  status: ('A' for Active; 'I' for Inactive)
REMARK    1  A    between atoms: C_3  and  C_7
REMARK    2  A    between atoms: C_8  and  C_13
REMARK    3  A    between atoms: C_13  and  N_14
REMARK    4  A    between atoms: N_14  and  C_15
REMARK                            x       y       z     vdW  Elec       q    Type
REMARK                         _______ _______ _______ _____ _____    ______ ____
ROOT
ATOM      1  C   UNL A   1     -24.535   0.413  28.743  0.00  0.00    -0.002 A 
ATOM      2  C   UNL A   1     -24.054   1.325  29.576  0.00  0.00    -0.001 A 
ATOM      3  C   UNL A   1     -22.941   2.146  29.210  0.00  0.00    -0.003 A 
ATOM      4  C   UNL A   1     -22.259   1.930  27.982  0.00  0.00    -0.000 A 
ATOM      5  C   UNL A   1     -23.835   0.324  27.499  0.00  0.00    -0.000 A 
ATOM      6  C   UNL A   1     -22.785   1.056  27.190  0.00  0.00    -0.000 A 
ENDROOT
BRANCH   1   9
ATOM      7  C   UNL A   1     -28.016  -0.814  28.878  0.00  0.00    -0.000 A 
ATOM      8  C   UNL A   1     -27.064  -0.119  28.608  0.00  0.00    -0.000 A 
ATOM      9  C   UNL A   1     -25.765  -0.390  29.036  0.00  0.00    -0.000 A 
ATOM     10  C   UNL A   1     -25.530  -1.530  29.901  0.00  0.00    -0.000 A 
ATOM     11  C   UNL A   1     -26.658  -2.292  30.203  0.00  0.00    -0.000 A 
ATOM     12  C   UNL A   1     -27.855  -1.956  29.763  0.00  0.00    -0.000 A 
ENDBRANCH   1   9
BRANCH   2  13
ATOM     13  C   UNL A   1     -24.674   1.532  30.937  0.00  0.00    +0.139 C 
BRANCH  13  14
ATOM     14  N   UNL A   1     -24.831   2.753  31.454  0.00  0.00    -0.232 NA
BRANCH  14  15
ATOM     15  C   UNL A   1     -26.058   3.327  31.689  0.00  0.00    +0.081 C 
ATOM     16  C   UNL A   1     -25.982   4.637  32.143  0.00  0.00    +0.019 C 
ENDBRANCH  14  15
ENDBRANCH  13  14
ENDBRANCH   2  13
TORSDOF 4
