MODEL 102
MODEL 1
REMARK VINA RESULT:    -5.445      0.000      0.000
REMARK INTER + INTRA:          -6.340
REMARK INTER:                  -6.082
REMARK INTRA:                  -0.258
REMARK UNBOUND:                -0.258
REMARK  Name = No_102-gen_results/8p0m/2024-11-26-14-13-15/
REMARK  2 active torsions:
REMARK  status: ('A' for Active; 'I' for Inactive)
REMARK    1  A    between atoms: C_3  and  C_4
REMARK    2  A    between atoms: C_4  and  C_8
REMARK                            x       y       z     vdW  Elec       q    Type
REMARK                         _______ _______ _______ _____ _____    ______ ____
ROOT
ATOM      1  C   UNL A   1     -25.006  -5.245  29.079  0.00  0.00    -0.000 A 
ATOM      2  C   UNL A   1     -24.179  -4.408  28.801  0.00  0.00    -0.004 A 
ATOM      3  C   UNL A   1     -24.362  -3.075  29.152  0.00  0.00    -0.018 A 
ATOM      4  C   UNL A   1     -26.322  -4.840  29.577  0.00  0.00    -0.000 A 
ATOM      5  C   UNL A   1     -26.558  -3.568  30.037  0.00  0.00    -0.000 A 
ATOM      6  C   UNL A   1     -25.560  -2.616  29.817  0.00  0.00    -0.004 A 
ENDROOT
BRANCH   3   7
ATOM      7  C   UNL A   1     -23.391  -2.067  28.915  0.00  0.00    +0.052 C 
BRANCH   7   8
ATOM      8  C   UNL A   1     -23.654  -0.717  28.736  0.00  0.00    -0.026 C 
ATOM      9  C   UNL A   1     -22.626   0.203  28.553  0.00  0.00    -0.030 C 
ATOM     10  C   UNL A   1     -21.244  -0.236  28.799  0.00  0.00    +0.030 C 
ENDBRANCH   7   8
ENDBRANCH   3   7
TORSDOF 2
ENDMDL
ENDMDL
