REMARK  Name = No_103-gen_results/8p0m/2024-11-26-14-13-15/
REMARK  2 active torsions:
REMARK  status: ('A' for Active; 'I' for Inactive)
REMARK    1  A    between atoms: C_5  and  C_13
REMARK    2  A    between atoms: C_6  and  C_8
REMARK                            x       y       z     vdW  Elec       q    Type
REMARK                         _______ _______ _______ _____ _____    ______ ____
ROOT
ATOM      1  F   UNL A   1     -28.073  -1.254  28.532  0.00  0.00    -0.202 F 
ATOM      2  C   UNL A   1     -27.061  -0.629  28.872  0.00  0.00    +0.167 A 
ATOM      3  C   UNL A   1     -26.153  -1.156  29.454  0.00  0.00    +0.168 A 
ATOM      4  C   UNL A   1     -24.878  -0.579  29.864  0.00  0.00    +0.038 A 
ATOM      5  C   UNL A   1     -24.743   0.827  29.481  0.00  0.00    +0.086 A 
ATOM      6  C   UNL A   1     -25.788   1.393  28.763  0.00  0.00    +0.080 A 
ATOM      7  C   UNL A   1     -26.915   0.731  28.443  0.00  0.00    +0.036 A 
ATOM      8  F   UNL A   1     -26.214  -2.455  29.921  0.00  0.00    -0.202 F 
ENDROOT
BRANCH   6   9
ATOM      9  C   UNL A   1     -25.259   2.774  28.390  0.00  0.00    +0.419 C 
ATOM     10  F   UNL A   1     -24.163   2.886  27.883  0.00  0.00    -0.166 F 
ATOM     11  F   UNL A   1     -25.280   3.652  29.459  0.00  0.00    -0.166 F 
ATOM     12  F   UNL A   1     -26.246   3.376  27.587  0.00  0.00    -0.166 F 
ENDBRANCH   6   9
BRANCH   5  13
ATOM     13  C   UNL A   1     -23.431   1.350  29.937  0.00  0.00    +0.388 C 
ATOM     14  O   UNL A   1     -22.545   1.750  29.223  0.00  0.00    -0.241 OA
ATOM     15  O   UNL A   1     -23.405   1.636  31.258  0.00  0.00    -0.241 OA
ENDBRANCH   5  13
TORSDOF 2
