MODEL 1030
MODEL 1
REMARK VINA RESULT:    -5.906      0.000      0.000
REMARK INTER + INTRA:         -12.925
REMARK INTER:                  -9.013
REMARK INTRA:                  -3.912
REMARK UNBOUND:                -3.912
REMARK  Name = No_1030-gen_results/8p0m/2024-11-26-14-13-15/
REMARK  9 active torsions:
REMARK  status: ('A' for Active; 'I' for Inactive)
REMARK    1  A    between atoms: C_4  and  C_11
REMARK    2  A    between atoms: C_7  and  O_19
REMARK    3  A    between atoms: C_11  and  C_14
REMARK    4  A    between atoms: C_14  and  C_15
REMARK    5  A    between atoms: C_15  and  C_16
REMARK    6  A    between atoms: C_16  and  N_18
REMARK    7  A    between atoms: O_19  and  C_20
REMARK    8  A    between atoms: C_20  and  C_21
REMARK    9  A    between atoms: C_33  and  C_34
REMARK                            x       y       z     vdW  Elec       q    Type
REMARK                         _______ _______ _______ _____ _____    ______ ____
ROOT
ATOM      1  C   UNL A   1     -21.805 -18.546   5.898  0.00  0.00    +0.019 C 
ATOM      2  C   UNL A   1     -21.112 -17.430   6.049  0.00  0.00    +0.004 C 
ATOM      3  C   UNL A   1     -23.322 -18.238   5.787  0.00  0.00    +0.004 C 
ENDROOT
BRANCH   1   7
ATOM      4  C   UNL A   1     -18.011 -20.384   6.656  0.00  0.00    +0.037 A 
ATOM      5  C   UNL A   1     -19.080 -19.859   6.446  0.00  0.00    +0.003 A 
ATOM      6  C   UNL A   1     -20.263 -20.237   7.081  0.00  0.00    -0.004 A 
ATOM      7  C   UNL A   1     -21.607 -19.663   6.878  0.00  0.00    -0.023 A 
ATOM      8  C   UNL A   1     -22.817 -20.106   7.522  0.00  0.00    -0.004 A 
ATOM      9  C   UNL A   1     -22.625 -21.023   8.561  0.00  0.00    -0.000 A 
ATOM     10  C   UNL A   1     -18.002 -21.608   7.529  0.00  0.00    +0.139 A 
ATOM     11  C   UNL A   1     -19.099 -21.997   8.263  0.00  0.00    +0.037 A 
ATOM     12  C   UNL A   1     -20.310 -21.363   8.051  0.00  0.00    +0.003 A 
ATOM     13  C   UNL A   1     -21.449 -21.712   8.774  0.00  0.00    +0.000 A 
BRANCH  10  14
ATOM     14  O   UNL A   1     -16.770 -22.185   7.683  0.00  0.00    -0.464 OA
BRANCH  14  15
ATOM     15  C   UNL A   1     -16.588 -23.076   8.765  0.00  0.00    +0.319 C 
BRANCH  15  16
ATOM     16  C   UNL A   1     -15.613 -22.571   9.705  0.00  0.00    +0.408 C 
ATOM     17  O   UNL A   1     -15.578 -22.901  10.780  0.00  0.00    -0.241 OA
ATOM     18  O   UNL A   1     -14.445 -22.136   9.235  0.00  0.00    -0.241 OA
ENDBRANCH  15  16
ENDBRANCH  14  15
ENDBRANCH  10  14
ENDBRANCH   1   7
BRANCH   1  19
ATOM     19  C   UNL A   1     -21.485 -19.183   4.472  0.00  0.00    +0.007 C 
BRANCH  19  20
ATOM     20  C   UNL A   1     -22.603 -19.736   3.763  0.00  0.00    +0.033 C 
BRANCH  20  21
ATOM     21  C   UNL A   1     -22.251 -21.002   3.051  0.00  0.00    +0.139 C 
ATOM     22 CL   UNL A   1     -21.184 -20.925   2.020  0.00  0.00    -0.097 Cl
BRANCH  21  23
ATOM     23  N   UNL A   1     -21.862 -22.036   4.065  0.00  0.00    -0.257 NA
ATOM     24  C   UNL A   1     -20.997 -22.798   3.973  0.00  0.00    +0.100 C 
ATOM     25  C   UNL A   1     -23.076 -22.392   4.897  0.00  0.00    +0.078 C 
ATOM     26  C   UNL A   1     -20.613 -23.657   4.989  0.00  0.00    -0.006 A 
ATOM     27  C   UNL A   1     -21.602 -24.239   5.773  0.00  0.00    -0.017 A 
ATOM     28  C   UNL A   1     -21.423 -25.168   6.747  0.00  0.00    +0.030 A 
ATOM     29  C   UNL A   1     -22.853 -23.464   5.792  0.00  0.00    +0.044 C 
ATOM     30 BR   UNL A   1     -22.383 -26.219   7.581  0.00  0.00    -0.049 Br
ATOM     31  C   UNL A   1     -19.907 -25.327   7.210  0.00  0.00    +0.006 A 
ATOM     32  C   UNL A   1     -18.976 -24.981   6.370  0.00  0.00    +0.004 A 
ATOM     33  C   UNL A   1     -19.232 -24.135   5.246  0.00  0.00    +0.039 A 
BRANCH  33  34
ATOM     34  C   UNL A   1     -18.084 -23.527   4.494  0.00  0.00    +0.234 C 
ATOM     35  O   UNL A   1     -17.038 -23.624   4.739  0.00  0.00    -0.283 OA
ENDBRANCH  33  34
ENDBRANCH  21  23
ENDBRANCH  20  21
ENDBRANCH  19  20
ENDBRANCH   1  19
TORSDOF 9
ENDMDL
ENDMDL
