REMARK  Name = No_1030-gen_results/8p0m/2024-11-26-14-13-15/
REMARK  9 active torsions:
REMARK  status: ('A' for Active; 'I' for Inactive)
REMARK    1  A    between atoms: C_4  and  C_11
REMARK    2  A    between atoms: C_7  and  O_19
REMARK    3  A    between atoms: C_11  and  C_14
REMARK    4  A    between atoms: C_14  and  C_15
REMARK    5  A    between atoms: C_15  and  C_16
REMARK    6  A    between atoms: C_16  and  N_18
REMARK    7  A    between atoms: O_19  and  C_20
REMARK    8  A    between atoms: C_20  and  C_21
REMARK    9  A    between atoms: C_33  and  C_34
REMARK                            x       y       z     vdW  Elec       q    Type
REMARK                         _______ _______ _______ _____ _____    ______ ____
ROOT
ATOM      1  C   UNL A   1     -24.645   1.658  27.946  0.00  0.00    +0.019 C 
ATOM      2  C   UNL A   1     -25.076   1.578  26.699  0.00  0.00    +0.004 C 
ATOM      3  C   UNL A   1     -23.284   2.401  28.009  0.00  0.00    +0.004 C 
ENDROOT
BRANCH   1   7
ATOM      4  C   UNL A   1     -28.016  -0.814  28.878  0.00  0.00    +0.037 A 
ATOM      5  C   UNL A   1     -27.064  -0.119  28.608  0.00  0.00    +0.003 A 
ATOM      6  C   UNL A   1     -25.765  -0.390  29.036  0.00  0.00    -0.004 A 
ATOM      7  C   UNL A   1     -24.552   0.406  28.765  0.00  0.00    -0.023 A 
ATOM      8  C   UNL A   1     -23.230   0.118  29.258  0.00  0.00    -0.004 A 
ATOM      9  C   UNL A   1     -23.094  -1.131  29.873  0.00  0.00    -0.000 A 
ATOM     10  C   UNL A   1     -27.798  -1.934  29.856  0.00  0.00    +0.139 A 
ATOM     11  C   UNL A   1     -26.542  -2.327  30.258  0.00  0.00    +0.037 A 
ATOM     12  C   UNL A   1     -25.451  -1.552  29.908  0.00  0.00    +0.003 A 
ATOM     13  C   UNL A   1     -24.156  -1.910  30.281  0.00  0.00    +0.000 A 
BRANCH  10  14
ATOM     14  O   UNL A   1     -28.926  -2.649  30.160  0.00  0.00    -0.464 OA
BRANCH  14  15
ATOM     15  C   UNL A   1     -29.214  -2.880  31.524  0.00  0.00    +0.319 C 
BRANCH  15  16
ATOM     16  C   UNL A   1     -29.735  -4.212  31.735  0.00  0.00    +0.408 C 
ATOM     17  O   UNL A   1     -29.529  -5.064  31.030  0.00  0.00    -0.241 OA
ATOM     18  O   UNL A   1     -30.009  -4.596  32.981  0.00  0.00    -0.241 OA
ENDBRANCH  15  16
ENDBRANCH  14  15
ENDBRANCH  10  14
ENDBRANCH   1   7
BRANCH   1  19
ATOM     19  C   UNL A   1     -25.598   2.629  28.778  0.00  0.00    +0.007 C 
BRANCH  19  20
ATOM     20  C   UNL A   1     -25.381   4.035  28.594  0.00  0.00    +0.033 C 
BRANCH  20  21
ATOM     21  C   UNL A   1     -26.025   4.852  29.667  0.00  0.00    +0.139 C 
ATOM     22 CL   UNL A   1     -25.283   4.995  30.947  0.00  0.00    -0.097 Cl
BRANCH  21  23
ATOM     23  N   UNL A   1     -26.313   6.221  29.127  0.00  0.00    -0.257 NA
ATOM     24  C   UNL A   1     -26.547   7.169  29.746  0.00  0.00    +0.100 C 
ATOM     25  C   UNL A   1     -26.881   6.090  27.730  0.00  0.00    +0.078 C 
ATOM     26  C   UNL A   1     -26.696   8.432  29.198  0.00  0.00    -0.006 A 
ATOM     27  C   UNL A   1     -27.357   8.552  27.981  0.00  0.00    -0.017 A 
ATOM     28  C   UNL A   1     -27.674   9.707  27.341  0.00  0.00    +0.030 A 
ATOM     29  C   UNL A   1     -27.321   7.317  27.182  0.00  0.00    +0.044 C 
ATOM     30 BR   UNL A   1     -28.681  10.148  26.111  0.00  0.00    -0.049 Br
ATOM     31  C   UNL A   1     -26.917  10.986  27.913  0.00  0.00    +0.006 A 
ATOM     32  C   UNL A   1     -26.493  10.941  29.143  0.00  0.00    +0.004 A 
ATOM     33  C   UNL A   1     -26.332   9.712  29.855  0.00  0.00    +0.039 A 
BRANCH  33  34
ATOM     34  C   UNL A   1     -25.564   9.692  31.144  0.00  0.00    +0.234 C 
ATOM     35  O   UNL A   1     -24.767   9.011  31.401  0.00  0.00    -0.283 OA
ENDBRANCH  33  34
ENDBRANCH  21  23
ENDBRANCH  20  21
ENDBRANCH  19  20
ENDBRANCH   1  19
TORSDOF 9
