MODEL 1031
MODEL 1
REMARK VINA RESULT:    -3.356      0.000      0.000
REMARK INTER + INTRA:          -3.612
REMARK INTER:                  -3.552
REMARK INTRA:                  -0.060
REMARK UNBOUND:                -0.060
REMARK  Name = No_1031-gen_results/8p0m/2024-11-26-14-13-15/
REMARK  1 active torsions:
REMARK  status: ('A' for Active; 'I' for Inactive)
REMARK    1  A    between atoms: C_3  and  C_4
REMARK                            x       y       z     vdW  Elec       q    Type
REMARK                         _______ _______ _______ _____ _____    ______ ____
ROOT
ATOM      1  F   UNL A   1     -10.552 -10.796  18.069  0.00  0.00    -0.202 F 
ATOM      2  C   UNL A   1      -9.681 -10.351  17.474  0.00  0.00    +0.167 C 
ATOM      3  C   UNL A   1      -8.854  -9.630  18.148  0.00  0.00    +0.032 C 
ENDROOT
BRANCH   3   4
ATOM      4  C   UNL A   1      -8.957  -9.366  19.633  0.00  0.00    +0.002 C 
ATOM      5  C   UNL A   1      -7.786  -9.736  20.315  0.00  0.00    +0.000 C 
ENDBRANCH   3   4
TORSDOF 1
ENDMDL
ENDMDL
