REMARK  Name = No_1031-gen_results/8p0m/2024-11-26-14-13-15/
REMARK  1 active torsions:
REMARK  status: ('A' for Active; 'I' for Inactive)
REMARK    1  A    between atoms: C_3  and  C_4
REMARK                            x       y       z     vdW  Elec       q    Type
REMARK                         _______ _______ _______ _____ _____    ______ ____
ROOT
ATOM      1  F   UNL A   1     -28.073  -1.254  28.532  0.00  0.00    -0.202 F 
ATOM      2  C   UNL A   1     -27.359  -0.379  28.722  0.00  0.00    +0.167 C 
ATOM      3  C   UNL A   1     -26.332  -0.644  29.452  0.00  0.00    +0.032 C 
ENDROOT
BRANCH   3   4
ATOM      4  C   UNL A   1     -26.020  -2.005  30.034  0.00  0.00    +0.002 C 
ATOM      5  C   UNL A   1     -27.097  -2.896  29.892  0.00  0.00    +0.000 C 
ENDBRANCH   3   4
TORSDOF 1
