REMARK  Name = No_1032-gen_results/8p0m/2024-11-26-14-13-15/
REMARK  1 active torsions:
REMARK  status: ('A' for Active; 'I' for Inactive)
REMARK    1  A    between atoms: C_6  and  C_23
REMARK                            x       y       z     vdW  Elec       q    Type
REMARK                         _______ _______ _______ _____ _____    ______ ____
ROOT
ATOM      1  C   UNL A   1     -28.016  -0.814  28.878  0.00  0.00    +0.122 C 
ATOM      2  C   UNL A   1     -27.064  -0.119  28.608  0.00  0.00    -0.004 A 
ATOM      3  C   UNL A   1     -27.001   0.691  27.491  0.00  0.00    -0.003 A 
ATOM      4  C   UNL A   1     -25.855   1.482  27.083  0.00  0.00    -0.002 A 
ATOM      5  C   UNL A   1     -24.690   1.453  27.881  0.00  0.00    +0.006 A 
ATOM      6  C   UNL A   1     -24.738   0.601  29.042  0.00  0.00    +0.080 A 
ATOM      7  C   UNL A   1     -25.823  -0.169  29.389  0.00  0.00    +0.004 A 
ATOM      8  N   UNL A   1     -28.757  -0.548  30.019  0.00  0.00    -0.255 N 
ATOM      9  C   UNL A   1     -28.932   0.389  30.503  0.00  0.00    +0.122 C 
ATOM     10  C   UNL A   1     -29.049   1.538  29.945  0.00  0.00    -0.003 A 
ATOM     11  C   UNL A   1     -29.352   2.784  30.672  0.00  0.00    -0.003 A 
ATOM     12  C   UNL A   1     -29.352   4.037  30.022  0.00  0.00    -0.003 A 
ATOM     13  C   UNL A   1     -29.101   4.056  28.613  0.00  0.00    -0.009 A 
ATOM     14  C   UNL A   1     -28.847   2.920  27.942  0.00  0.00    +0.042 A 
ATOM     15  C   UNL A   1     -28.759   1.724  28.570  0.00  0.00    +0.011 A 
ATOM     16  C   UNL A   1     -27.591   1.220  27.823  0.00  0.00    +0.119 C 
ATOM     17  N   UNL A   1     -27.827   2.455  27.166  0.00  0.00    -0.300 N 
ATOM     18  C   UNL A   1     -28.427   2.420  25.857  0.00  0.00    +0.113 C 
ATOM     19  C   UNL A   1     -29.498  -1.863  30.610  0.00  0.00    +0.324 C 
ATOM     20  O   UNL A   1     -29.318  -2.841  30.375  0.00  0.00    -0.251 OA
ATOM     21  N   UNL A   1     -30.098  -1.552  31.861  0.00  0.00    -0.186 NA
ATOM     22  C   UNL A   1     -30.741  -2.633  32.564  0.00  0.00    +0.140 C 
ATOM     23  C   UNL A   1     -29.082   5.387  27.915  0.00  0.00    +0.032 C 
ENDROOT
BRANCH   6  24
ATOM     24  C   UNL A   1     -23.462   0.577  29.879  0.00  0.00    +0.388 C 
ATOM     25  O   UNL A   1     -22.370   0.742  29.398  0.00  0.00    -0.241 OA
ATOM     26  O   UNL A   1     -23.639   0.450  31.219  0.00  0.00    -0.241 OA
ENDBRANCH   6  24
TORSDOF 1
