MODEL 1032
MODEL 1
REMARK VINA RESULT:    -7.052      0.000      0.000
REMARK INTER + INTRA:          -7.622
REMARK INTER:                  -7.465
REMARK INTRA:                  -0.158
REMARK UNBOUND:                -0.158
REMARK  Name = No_1032-gen_results/8p0m/2024-11-26-14-13-15/
REMARK  1 active torsions:
REMARK  status: ('A' for Active; 'I' for Inactive)
REMARK    1  A    between atoms: C_6  and  C_23
REMARK                            x       y       z     vdW  Elec       q    Type
REMARK                         _______ _______ _______ _____ _____    ______ ____
ROOT
ATOM      1  C   UNL A   1     -28.666 -16.301  22.474  0.00  0.00    +0.122 C 
ATOM      2  C   UNL A   1     -29.375 -15.430  22.025  0.00  0.00    -0.004 A 
ATOM      3  C   UNL A   1     -30.753 -15.509  21.989  0.00  0.00    -0.003 A 
ATOM      4  C   UNL A   1     -31.642 -14.528  21.393  0.00  0.00    -0.002 A 
ATOM      5  C   UNL A   1     -31.081 -13.375  20.801  0.00  0.00    +0.006 A 
ATOM      6  C   UNL A   1     -29.643 -13.287  20.820  0.00  0.00    +0.080 A 
ATOM      7  C   UNL A   1     -28.819 -14.248  21.358  0.00  0.00    +0.004 A 
ATOM      8  N   UNL A   1     -27.908 -16.053  23.607  0.00  0.00    -0.255 N 
ATOM      9  C   UNL A   1     -28.118 -15.396  24.425  0.00  0.00    +0.122 C 
ATOM     10  C   UNL A   1     -29.269 -15.117  24.917  0.00  0.00    -0.003 A 
ATOM     11  C   UNL A   1     -29.479 -14.247  26.089  0.00  0.00    -0.003 A 
ATOM     12  C   UNL A   1     -30.774 -13.881  26.514  0.00  0.00    -0.003 A 
ATOM     13  C   UNL A   1     -31.888 -14.428  25.801  0.00  0.00    -0.009 A 
ATOM     14  C   UNL A   1     -31.702 -15.240  24.747  0.00  0.00    +0.042 A 
ATOM     15  C   UNL A   1     -30.465 -15.528  24.278  0.00  0.00    +0.011 A 
ATOM     16  C   UNL A   1     -30.795 -15.429  22.843  0.00  0.00    +0.119 C 
ATOM     17  N   UNL A   1     -32.070 -15.230  23.434  0.00  0.00    -0.300 N 
ATOM     18  C   UNL A   1     -33.019 -16.312  23.373  0.00  0.00    +0.113 C 
ATOM     19  C   UNL A   1     -26.573 -16.968  23.686  0.00  0.00    +0.324 C 
ATOM     20  O   UNL A   1     -26.146 -17.516  22.937  0.00  0.00    -0.251 OA
ATOM     21  N   UNL A   1     -25.767 -16.545  24.779  0.00  0.00    -0.186 NA
ATOM     22  C   UNL A   1     -24.500 -17.208  24.951  0.00  0.00    +0.140 C 
ATOM     23  C   UNL A   1     -33.271 -14.030  26.236  0.00  0.00    +0.032 C 
ENDROOT
BRANCH   6  24
ATOM     24  C   UNL A   1     -29.063 -12.039  20.161  0.00  0.00    +0.388 C 
ATOM     25  O   UNL A   1     -28.022 -12.052  19.555  0.00  0.00    -0.241 OA
ATOM     26  O   UNL A   1     -29.840 -10.927  20.219  0.00  0.00    -0.241 OA
ENDBRANCH   6  24
TORSDOF 1
ENDMDL
ENDMDL
