MODEL 1033
MODEL 1
REMARK VINA RESULT:    -6.606      0.000      0.000
REMARK INTER + INTRA:          -7.826
REMARK INTER:                  -7.378
REMARK INTRA:                  -0.448
REMARK UNBOUND:                -0.448
REMARK  Name = No_1033-gen_results/8p0m/2024-11-26-14-13-15/
REMARK  2 active torsions:
REMARK  status: ('A' for Active; 'I' for Inactive)
REMARK    1  A    between atoms: C_1  and  C_8
REMARK    2  A    between atoms: C_5  and  C_14
REMARK                            x       y       z     vdW  Elec       q    Type
REMARK                         _______ _______ _______ _____ _____    ______ ____
ROOT
ATOM      1  C   UNL A   1     -24.291  -1.295  30.007  0.00  0.00    -0.009 C 
ATOM      2  C   UNL A   1     -23.844  -0.578  29.143  0.00  0.00    -0.044 C 
ATOM      3  C   UNL A   1     -24.631   0.055  28.182  0.00  0.00    +0.022 C 
ATOM      4  C   UNL A   1     -24.170   0.934  27.089  0.00  0.00    +0.012 C 
ATOM      5  C   UNL A   1     -22.800   1.333  27.148  0.00  0.00    +0.066 C 
ATOM      6  C   UNL A   1     -21.983   0.756  28.126  0.00  0.00    +0.012 C 
ATOM      7  C   UNL A   1     -22.442  -0.110  29.057  0.00  0.00    +0.022 C 
ENDROOT
BRANCH   1   8
ATOM      8  C   UNL A   1     -24.490  -2.716  29.522  0.00  0.00    -0.001 A 
ATOM      9  C   UNL A   1     -23.816  -3.404  29.007  0.00  0.00    -0.000 A 
ATOM     10  C   UNL A   1     -24.100  -4.801  28.592  0.00  0.00    -0.000 A 
ATOM     11  C   UNL A   1     -25.323  -5.329  28.931  0.00  0.00    -0.000 A 
ATOM     12  C   UNL A   1     -26.205  -4.533  29.680  0.00  0.00    -0.000 A 
ATOM     13  C   UNL A   1     -25.871  -3.315  30.003  0.00  0.00    -0.000 A 
ENDBRANCH   1   8
BRANCH   5  14
ATOM     14  C   UNL A   1     -22.332   2.266  26.131  0.00  0.00    +0.207 C 
ATOM     15  O   UNL A   1     -22.825   2.346  24.966  0.00  0.00    -0.288 OA
ENDBRANCH   5  14
TORSDOF 2
ENDMDL
ENDMDL
