REMARK  Name = No_1033-gen_results/8p0m/2024-11-26-14-13-15/
REMARK  2 active torsions:
REMARK  status: ('A' for Active; 'I' for Inactive)
REMARK    1  A    between atoms: C_1  and  C_8
REMARK    2  A    between atoms: C_5  and  C_14
REMARK                            x       y       z     vdW  Elec       q    Type
REMARK                         _______ _______ _______ _____ _____    ______ ____
ROOT
ATOM      1  C   UNL A   1     -28.016  -0.814  28.878  0.00  0.00    -0.009 C 
ATOM      2  C   UNL A   1     -27.064  -0.119  28.608  0.00  0.00    -0.044 C 
ATOM      3  C   UNL A   1     -25.765  -0.390  29.036  0.00  0.00    +0.022 C 
ATOM      4  C   UNL A   1     -24.552   0.406  28.765  0.00  0.00    +0.012 C 
ATOM      5  C   UNL A   1     -24.696   1.448  27.799  0.00  0.00    +0.066 C 
ATOM      6  C   UNL A   1     -25.976   1.725  27.308  0.00  0.00    +0.012 C 
ATOM      7  C   UNL A   1     -27.072   1.013  27.654  0.00  0.00    +0.022 C 
ENDROOT
BRANCH   1   8
ATOM      8  C   UNL A   1     -28.604  -0.474  30.232  0.00  0.00    -0.001 A 
ATOM      9  C   UNL A   1     -29.632  -0.505  30.601  0.00  0.00    -0.000 A 
ATOM     10  C   UNL A   1     -30.108  -0.174  31.967  0.00  0.00    -0.000 A 
ATOM     11  C   UNL A   1     -29.162   0.161  32.907  0.00  0.00    -0.000 A 
ATOM     12  C   UNL A   1     -27.810   0.127  32.528  0.00  0.00    -0.000 A 
ATOM     13  C   UNL A   1     -27.482  -0.178  31.304  0.00  0.00    -0.000 A 
ENDBRANCH   1   8
BRANCH   5  14
ATOM     14  C   UNL A   1     -23.499   2.201  27.446  0.00  0.00    +0.207 C 
ATOM     15  O   UNL A   1     -22.322   1.835  27.741  0.00  0.00    -0.288 OA
ENDBRANCH   5  14
TORSDOF 2
