MODEL 1034
MODEL 1
REMARK VINA RESULT:    -4.636      0.000      0.000
REMARK INTER + INTRA:          -5.274
REMARK INTER:                  -5.179
REMARK INTRA:                  -0.095
REMARK UNBOUND:                -0.095
REMARK  Name = No_1034-gen_results/8p0m/2024-11-26-14-13-15/
REMARK  2 active torsions:
REMARK  status: ('A' for Active; 'I' for Inactive)
REMARK    1  A    between atoms: C_2  and  C_4
REMARK    2  A    between atoms: C_5  and  C_6
REMARK                            x       y       z     vdW  Elec       q    Type
REMARK                         _______ _______ _______ _____ _____    ______ ____
ROOT
ATOM      1  C   UNL A   1      -8.370  -9.662  20.397  0.00  0.00    +0.025 C 
ATOM      2  C   UNL A   1      -8.709  -9.452  19.452  0.00  0.00    -0.001 C 
ENDROOT
BRANCH   1   4
ATOM      3 CL   UNL A   1      -6.629 -10.330  21.817  0.00  0.00    -0.072 Cl
ATOM      4  C   UNL A   1      -6.993  -9.669  20.856  0.00  0.00    +0.262 C 
ATOM      5  F   UNL A   1      -6.209  -8.969  20.255  0.00  0.00    -0.214 F 
ENDBRANCH   1   4
BRANCH   2   6
ATOM      6  C   UNL A   1     -10.141  -9.487  18.930  0.00  0.00    -0.005 C 
ATOM      7  C   UNL A   1     -10.297 -10.141  17.660  0.00  0.00    -0.026 C 
ATOM      8  C   UNL A   1      -9.145 -10.609  17.069  0.00  0.00    +0.031 C 
ENDBRANCH   2   6
TORSDOF 2
ENDMDL
ENDMDL
