MODEL 1035
MODEL 1
REMARK VINA RESULT:    -6.681      0.000      0.000
REMARK INTER + INTRA:          -8.407
REMARK INTER:                  -7.853
REMARK INTRA:                  -0.554
REMARK UNBOUND:                -0.554
REMARK  Name = No_1035-gen_results/8p0m/2024-11-26-14-13-15/
REMARK  3 active torsions:
REMARK  status: ('A' for Active; 'I' for Inactive)
REMARK    1  A    between atoms: C_2  and  C_16
REMARK    2  A    between atoms: C_11  and  C_19
REMARK    3  A    between atoms: C_20  and  C_21
REMARK                            x       y       z     vdW  Elec       q    Type
REMARK                         _______ _______ _______ _____ _____    ______ ____
ROOT
ATOM      1  C   UNL A   1     -29.215 -13.428  32.030  0.00  0.00    +0.043 A 
ATOM      2  C   UNL A   1     -28.632 -12.593  32.299  0.00  0.00    +0.083 A 
ATOM      3  C   UNL A   1     -29.841 -13.415  30.764  0.00  0.00    +0.136 A 
ATOM      4  C   UNL A   1     -29.655 -12.598  29.976  0.00  0.00    +0.020 A 
ATOM      5  C   UNL A   1     -28.269 -11.427  31.494  0.00  0.00    +0.006 A 
ATOM      6  C   UNL A   1     -28.833 -11.449  30.262  0.00  0.00    -0.000 A 
ATOM      7  O   UNL A   1     -30.621 -14.562  30.427  0.00  0.00    -0.471 OA
ATOM      8  C   UNL A   1     -31.527 -14.434  29.356  0.00  0.00    +0.232 C 
ATOM      9  C   UNL A   1     -30.772 -14.452  28.089  0.00  0.00    +0.018 A 
ATOM     10  C   UNL A   1     -30.052 -13.243  27.672  0.00  0.00    -0.015 A 
ATOM     11  C   UNL A   1     -29.970 -12.457  28.297  0.00  0.00    +0.069 C 
ATOM     12  C   UNL A   1     -31.098 -15.563  27.189  0.00  0.00    -0.001 A 
ATOM     13  C   UNL A   1     -30.279 -15.660  26.011  0.00  0.00    -0.000 A 
ATOM     14  C   UNL A   1     -29.437 -14.538  25.608  0.00  0.00    -0.000 A 
ATOM     15  C   UNL A   1     -29.349 -13.464  26.363  0.00  0.00    -0.004 A 
ENDROOT
BRANCH   2  16
ATOM     16  C   UNL A   1     -27.923 -12.525  33.765  0.00  0.00    +0.388 C 
ATOM     17  O   UNL A   1     -28.587 -12.817  34.815  0.00  0.00    -0.241 OA
ATOM     18  O   UNL A   1     -26.690 -12.670  33.881  0.00  0.00    -0.241 OA
ENDBRANCH   2  16
BRANCH  11  19
ATOM     19  C   UNL A   1     -31.187 -11.319  28.221  0.00  0.00    -0.018 C 
ATOM     20  C   UNL A   1     -30.751 -10.286  27.389  0.00  0.00    -0.004 C 
BRANCH  20  21
ATOM     21  C   UNL A   1     -31.752  -9.294  27.103  0.00  0.00    -0.000 C 
ATOM     22  C   UNL A   1     -31.384  -8.004  26.804  0.00  0.00    -0.000 C 
ENDBRANCH  20  21
ENDBRANCH  11  19
TORSDOF 3
ENDMDL
ENDMDL
