REMARK  Name = No_1035-gen_results/8p0m/2024-11-26-14-13-15/
REMARK  3 active torsions:
REMARK  status: ('A' for Active; 'I' for Inactive)
REMARK    1  A    between atoms: C_2  and  C_16
REMARK    2  A    between atoms: C_11  and  C_19
REMARK    3  A    between atoms: C_20  and  C_21
REMARK                            x       y       z     vdW  Elec       q    Type
REMARK                         _______ _______ _______ _____ _____    ______ ____
ROOT
ATOM      1  C   UNL A   1     -28.016  -0.814  28.878  0.00  0.00    +0.043 A 
ATOM      2  C   UNL A   1     -28.469  -0.785  29.829  0.00  0.00    +0.083 A 
ATOM      3  C   UNL A   1     -27.136   0.236  28.535  0.00  0.00    +0.136 A 
ATOM      4  C   UNL A   1     -26.805   1.051  29.276  0.00  0.00    +0.020 A 
ATOM      5  C   UNL A   1     -28.237   0.150  30.930  0.00  0.00    +0.006 A 
ATOM      6  C   UNL A   1     -27.352   1.124  30.607  0.00  0.00    -0.000 A 
ATOM      7  O   UNL A   1     -26.536   0.166  27.241  0.00  0.00    -0.471 OA
ATOM      8  C   UNL A   1     -25.952   1.344  26.737  0.00  0.00    +0.232 C 
ATOM      9  C   UNL A   1     -24.670   1.574  27.429  0.00  0.00    +0.018 A 
ATOM     10  C   UNL A   1     -24.683   2.120  28.791  0.00  0.00    -0.015 A 
ATOM     11  C   UNL A   1     -25.552   2.220  29.292  0.00  0.00    +0.069 C 
ATOM     12  C   UNL A   1     -23.487   1.565  26.562  0.00  0.00    -0.001 A 
ATOM     13  C   UNL A   1     -22.225   1.661  27.243  0.00  0.00    -0.000 A 
ATOM     14  C   UNL A   1     -22.175   2.076  28.642  0.00  0.00    -0.000 A 
ATOM     15  C   UNL A   1     -23.285   2.278  29.318  0.00  0.00    -0.004 A 
ENDROOT
BRANCH   2  16
ATOM     16  C   UNL A   1     -29.531  -1.941  30.268  0.00  0.00    +0.388 C 
ATOM     17  O   UNL A   1     -29.125  -3.122  30.527  0.00  0.00    -0.241 OA
ATOM     18  O   UNL A   1     -30.610  -1.637  30.815  0.00  0.00    -0.241 OA
ENDBRANCH   2  16
BRANCH  11  19
ATOM     19  C   UNL A   1     -26.361   3.665  29.094  0.00  0.00    -0.018 C 
ATOM     20  C   UNL A   1     -26.288   4.361  30.302  0.00  0.00    -0.004 C 
BRANCH  20  21
ATOM     21  C   UNL A   1     -26.814   5.698  30.247  0.00  0.00    -0.000 C 
ATOM     22  C   UNL A   1     -27.486   6.133  29.130  0.00  0.00    -0.000 C 
ENDBRANCH  20  21
ENDBRANCH  11  19
TORSDOF 3
