MODEL 1036
MODEL 1
REMARK VINA RESULT:    -7.522      0.000      0.000
REMARK INTER + INTRA:         -11.871
REMARK INTER:                 -10.161
REMARK INTRA:                  -1.710
REMARK UNBOUND:                -1.710
REMARK  Name = No_1036-gen_results/8p0m/2024-11-26-14-13-15/
REMARK  6 active torsions:
REMARK  status: ('A' for Active; 'I' for Inactive)
REMARK    1  A    between atoms: C_4  and  C_11
REMARK    2  A    between atoms: C_12  and  O_17
REMARK    3  A    between atoms: O_17  and  C_18
REMARK    4  A    between atoms: C_18  and  C_19
REMARK    5  A    between atoms: C_18  and  C_22
REMARK    6  A    between atoms: C_22  and  C_23
REMARK                            x       y       z     vdW  Elec       q    Type
REMARK                         _______ _______ _______ _____ _____    ______ ____
ROOT
ATOM      1  C   UNL A   1     -23.308   1.280  27.686  0.00  0.00    +0.034 A 
ATOM      2  C   UNL A   1     -23.397   0.412  28.626  0.00  0.00    +0.139 A 
ATOM      3  C   UNL A   1     -22.242  -0.098  29.245  0.00  0.00    +0.037 A 
ATOM      4  C   UNL A   1     -22.128   1.674  27.113  0.00  0.00    +0.003 A 
ATOM      5  C   UNL A   1     -20.918   1.147  27.581  0.00  0.00    +0.000 A 
ATOM      6  C   UNL A   1     -20.981   0.174  28.604  0.00  0.00    +0.003 A 
ENDROOT
BRANCH   1  10
ATOM      7  C   UNL A   1     -25.876  -0.467  24.736  0.00  0.00    +0.000 A 
ATOM      8  C   UNL A   1     -25.154   0.022  25.574  0.00  0.00    +0.000 A 
ATOM      9  C   UNL A   1     -25.405   1.248  26.189  0.00  0.00    +0.000 A 
ATOM     10  C   UNL A   1     -24.576   1.921  27.207  0.00  0.00    +0.003 A 
ATOM     11  C   UNL A   1     -24.845   3.209  27.792  0.00  0.00    +0.000 A 
ATOM     12  C   UNL A   1     -26.104   3.738  27.490  0.00  0.00    +0.000 A 
ATOM     13  C   UNL A   1     -27.012   0.375  24.228  0.00  0.00    +0.000 A 
ATOM     14  C   UNL A   1     -27.386   1.552  24.835  0.00  0.00    +0.000 A 
ATOM     15  C   UNL A   1     -26.579   2.084  25.825  0.00  0.00    +0.000 A 
ATOM     16  C   UNL A   1     -26.916   3.268  26.479  0.00  0.00    +0.000 A 
ENDBRANCH   1  10
BRANCH   2  17
ATOM     17  O   UNL A   1     -24.545  -0.009  29.239  0.00  0.00    -0.467 OA
BRANCH  17  18
ATOM     18  C   UNL A   1     -24.924  -1.275  29.595  0.00  0.00    +0.272 C 
BRANCH  18  19
ATOM     19  C   UNL A   1     -25.171  -1.422  30.955  0.00  0.00    +0.404 C 
ATOM     20  O   UNL A   1     -26.260  -1.567  31.249  0.00  0.00    -0.242 OA
ATOM     21  O   UNL A   1     -24.172  -1.487  31.767  0.00  0.00    -0.242 OA
ENDBRANCH  18  19
BRANCH  18  22
ATOM     22  C   UNL A   1     -24.946  -2.294  28.680  0.00  0.00    +0.081 C 
BRANCH  22  23
ATOM     23  C   UNL A   1     -23.891  -3.233  28.698  0.00  0.00    -0.026 C 
ATOM     24  C   UNL A   1     -24.231  -4.576  28.799  0.00  0.00    -0.030 C 
ATOM     25  C   UNL A   1     -25.475  -4.921  29.243  0.00  0.00    +0.030 C 
ENDBRANCH  22  23
ENDBRANCH  18  22
ENDBRANCH  17  18
ENDBRANCH   2  17
TORSDOF 6
ENDMDL
ENDMDL
