MODEL 1037
MODEL 1
REMARK VINA RESULT:    -5.584      0.000      0.000
REMARK INTER + INTRA:          -6.873
REMARK INTER:                  -6.563
REMARK INTRA:                  -0.310
REMARK UNBOUND:                -0.310
REMARK  Name = No_1037-gen_results/8p0m/2024-11-26-14-13-15/
REMARK  3 active torsions:
REMARK  status: ('A' for Active; 'I' for Inactive)
REMARK    1  A    between atoms: C_2  and  C_3
REMARK    2  A    between atoms: C_3  and  C_4
REMARK    3  A    between atoms: C_4  and  C_5
REMARK                            x       y       z     vdW  Elec       q    Type
REMARK                         _______ _______ _______ _____ _____    ______ ____
ROOT
ATOM      1  C   UNL A   1     -23.826  -3.260  28.762  0.00  0.00    -0.004 A 
ATOM      2  C   UNL A   1     -24.732  -2.544  29.122  0.00  0.00    -0.022 A 
ATOM      3  C   UNL A   1     -24.113  -4.709  28.606  0.00  0.00    -0.000 A 
ATOM      4  C   UNL A   1     -25.283  -5.223  29.139  0.00  0.00    -0.000 A 
ATOM      5  C   UNL A   1     -26.239  -4.439  29.704  0.00  0.00    -0.000 A 
ATOM      6  C   UNL A   1     -26.021  -3.086  29.717  0.00  0.00    -0.004 A 
ENDROOT
BRANCH   2   7
ATOM      7  C   UNL A   1     -24.616  -1.175  29.260  0.00  0.00    +0.031 C 
BRANCH   7   8
ATOM      8  C   UNL A   1     -23.829  -0.472  28.304  0.00  0.00    +0.030 C 
BRANCH   8   9
ATOM      9  C   UNL A   1     -22.713   0.190  28.642  0.00  0.00    -0.030 C 
ATOM     10  C   UNL A   1     -22.292   1.329  27.922  0.00  0.00    -0.030 C 
ATOM     11  C   UNL A   1     -23.030   1.762  26.843  0.00  0.00    +0.030 C 
ENDBRANCH   8   9
ENDBRANCH   7   8
ENDBRANCH   2   7
TORSDOF 3
ENDMDL
ENDMDL
