MODEL 1038
MODEL 1
REMARK VINA RESULT:    -4.278      0.000      0.000
REMARK INTER + INTRA:          -4.278
REMARK INTER:                  -4.278
REMARK INTRA:                   0.000
REMARK UNBOUND:                 0.000
REMARK  Name = No_1038-gen_results/8p0m/2024-11-26-14-13-15/
REMARK  0 active torsions:
REMARK  status: ('A' for Active; 'I' for Inactive)
REMARK                            x       y       z     vdW  Elec       q    Type
REMARK                         _______ _______ _______ _____ _____    ______ ____
ROOT
ATOM      1  C   UNL A   1     -26.167  -3.548  29.702  0.00  0.00    +0.000 A 
ATOM      2  C   UNL A   1     -26.046  -4.750  29.660  0.00  0.00    +0.000 A 
ATOM      3  C   UNL A   1     -24.981  -5.391  29.059  0.00  0.00    +0.000 A 
ATOM      4  C   UNL A   1     -23.951  -4.587  28.495  0.00  0.00    +0.000 A 
ATOM      5  C   UNL A   1     -24.046  -3.255  28.717  0.00  0.00    +0.000 A 
ATOM      6  C   UNL A   1     -25.085  -2.732  29.340  0.00  0.00    +0.000 A 
ENDROOT
TORSDOF 0
ENDMDL
ENDMDL
