MODEL 1039
MODEL 1
REMARK VINA RESULT:    -6.498      0.000      0.000
REMARK INTER + INTRA:          -7.197
REMARK INTER:                  -6.878
REMARK INTRA:                  -0.320
REMARK UNBOUND:                -0.320
REMARK  Name = No_1039-gen_results/8p0m/2024-11-26-14-13-15/
REMARK  1 active torsions:
REMARK  status: ('A' for Active; 'I' for Inactive)
REMARK    1  A    between atoms: C_3  and  C_7
REMARK                            x       y       z     vdW  Elec       q    Type
REMARK                         _______ _______ _______ _____ _____    ______ ____
ROOT
ATOM      1  C   UNL A   1     -26.523  -3.533  29.976  0.00  0.00    +0.000 A 
ATOM      2  C   UNL A   1     -25.888  -2.587  29.572  0.00  0.00    +0.000 A 
ATOM      3  C   UNL A   1     -24.657  -2.662  28.944  0.00  0.00    +0.000 A 
ATOM      4  C   UNL A   1     -24.114  -3.965  28.735  0.00  0.00    +0.000 A 
ATOM      5  C   UNL A   1     -24.908  -5.002  29.048  0.00  0.00    +0.000 A 
ATOM      6  C   UNL A   1     -26.076  -4.835  29.597  0.00  0.00    +0.000 A 
ENDROOT
BRANCH   3   7
ATOM      7  C   UNL A   1     -23.842  -1.447  28.586  0.00  0.00    +0.000 A 
ATOM      8  C   UNL A   1     -24.373  -0.434  27.878  0.00  0.00    +0.000 A 
ATOM      9  C   UNL A   1     -23.587   0.779  27.641  0.00  0.00    +0.000 A 
ATOM     10  C   UNL A   1     -22.300   0.823  28.240  0.00  0.00    +0.000 A 
ATOM     11  C   UNL A   1     -22.569  -1.189  29.202  0.00  0.00    +0.000 A 
ATOM     12  C   UNL A   1     -21.811  -0.141  28.966  0.00  0.00    +0.000 A 
ENDBRANCH   3   7
TORSDOF 1
ENDMDL
ENDMDL
