REMARK  Name = No_104-gen_results/8p0m/2024-11-26-14-13-15/
REMARK  13 active torsions:
REMARK  status: ('A' for Active; 'I' for Inactive)
REMARK    1  A    between atoms: C_4  and  C_7
REMARK    2  A    between atoms: C_7  and  C_8
REMARK    3  A    between atoms: C_8  and  C_9
REMARK    4  A    between atoms: C_8  and  C_10
REMARK    5  A    between atoms: C_9  and  C_12
REMARK    6  A    between atoms: C_13  and  C_14
REMARK    7  A    between atoms: C_14  and  C_15
REMARK    8  A    between atoms: C_15  and  N_19
REMARK    9  A    between atoms: N_19  and  C_20
REMARK   10  A    between atoms: N_19  and  C_23
REMARK   11  A    between atoms: C_21  and  C_22
REMARK   12  A    between atoms: C_22  and  C_24
REMARK   13  A    between atoms: C_24  and  C_26
REMARK                            x       y       z     vdW  Elec       q    Type
REMARK                         _______ _______ _______ _____ _____    ______ ____
ROOT
ATOM      1  C   UNL A   1     -25.104   1.307  31.391  0.00  0.00    -0.030 C 
ATOM      2  C   UNL A   1     -25.657   2.547  31.705  0.00  0.00    -0.029 C 
ENDROOT
BRANCH   1   3
ATOM      3  C   UNL A   1     -23.953   1.233  30.452  0.00  0.00    +0.030 C 
BRANCH   3   4
ATOM      4  C   UNL A   1     -23.661   0.103  29.845  0.00  0.00    +0.030 C 
BRANCH   4   5
ATOM      5  C   UNL A   1     -22.507   0.105  28.932  0.00  0.00    -0.030 C 
ATOM      6  C   UNL A   1     -22.063   1.251  28.296  0.00  0.00    -0.030 C 
ATOM      7  C   UNL A   1     -21.143   1.242  27.316  0.00  0.00    +0.030 C 
ENDBRANCH   4   5
BRANCH   4   8
ATOM      8  C   UNL A   1     -24.355  -1.112  30.035  0.00  0.00    +0.032 C 
BRANCH   8  12
ATOM      9  C   UNL A   1     -28.016  -0.814  28.878  0.00  0.00    +0.011 A 
ATOM     10  C   UNL A   1     -28.469  -0.785  29.829  0.00  0.00    +0.001 A 
ATOM     11  C   UNL A   1     -26.546  -0.876  28.850  0.00  0.00    +0.054 A 
ATOM     12  C   UNL A   1     -25.804  -1.032  30.057  0.00  0.00    -0.011 A 
ATOM     13  C   UNL A   1     -26.537  -1.039  31.217  0.00  0.00    -0.003 A 
ATOM     14  C   UNL A   1     -27.884  -0.953  31.186  0.00  0.00    -0.000 A 
ATOM     15 CL   UNL A   1     -25.624  -0.852  27.383  0.00  0.00    -0.083 Cl
ENDBRANCH   8  12
ENDBRANCH   4   8
ENDBRANCH   3   4
ENDBRANCH   1   3
BRANCH   2  16
ATOM     16  C   UNL A   1     -25.046   3.719  31.298  0.00  0.00    +0.046 C 
BRANCH  16  17
ATOM     17  C   UNL A   1     -25.858   4.715  31.072  0.00  0.00    +0.082 C 
ATOM     18  C   UNL A   1     -25.322   5.928  30.466  0.00  0.00    +0.022 C 
BRANCH  17  19
ATOM     19  N   UNL A   1     -27.055   4.322  30.358  0.00  0.00    -0.286 N 
BRANCH  19  20
ATOM     20  C   UNL A   1     -27.007   3.803  29.238  0.00  0.00    +0.061 C 
ATOM     21  C   UNL A   1     -28.210   3.270  28.722  0.00  0.00    -0.010 C 
BRANCH  21  22
ATOM     22  C   UNL A   1     -28.817   4.057  27.848  0.00  0.00    +0.032 C 
BRANCH  22  23
ATOM     23  C   UNL A   1     -30.057   3.596  27.295  0.00  0.00    +0.031 C 
BRANCH  23  24
ATOM     24  C   UNL A   1     -30.417   2.325  27.505  0.00  0.00    -0.026 C 
ATOM     25  C   UNL A   1     -29.760   1.517  28.427  0.00  0.00    -0.005 C 
ENDBRANCH  23  24
ENDBRANCH  22  23
ENDBRANCH  21  22
ENDBRANCH  19  20
BRANCH  19  26
ATOM     26  C   UNL A   1     -28.321   4.558  31.009  0.00  0.00    +0.065 C 
ATOM     27  C   UNL A   1     -29.185   3.592  31.134  0.00  0.00    +0.017 C 
ENDBRANCH  19  26
ENDBRANCH  17  19
ENDBRANCH  16  17
ENDBRANCH   2  16
TORSDOF 13
