MODEL 1040
MODEL 1
REMARK VINA RESULT:    -4.227      0.000      0.000
REMARK INTER + INTRA:          -4.227
REMARK INTER:                  -4.227
REMARK INTRA:                   0.000
REMARK UNBOUND:                 0.000
REMARK  Name = No_1040-gen_results/8p0m/2024-11-26-14-13-15/
REMARK  0 active torsions:
REMARK  status: ('A' for Active; 'I' for Inactive)
REMARK                            x       y       z     vdW  Elec       q    Type
REMARK                         _______ _______ _______ _____ _____    ______ ____
ROOT
ATOM      1  C   UNL A   1     -25.167  -5.289  29.174  0.00  0.00    +0.000 A 
ATOM      2  C   UNL A   1     -26.138  -4.718  29.612  0.00  0.00    +0.000 A 
ATOM      3  C   UNL A   1     -26.193  -3.353  29.822  0.00  0.00    +0.000 A 
ATOM      4  C   UNL A   1     -25.055  -2.578  29.463  0.00  0.00    +0.000 A 
ATOM      5  C   UNL A   1     -24.063  -3.237  28.821  0.00  0.00    +0.000 A 
ATOM      6  C   UNL A   1     -24.113  -4.541  28.627  0.00  0.00    +0.000 A 
ENDROOT
TORSDOF 0
ENDMDL
ENDMDL
