MODEL 1041
MODEL 1
REMARK VINA RESULT:    -8.065      0.000      0.000
REMARK INTER + INTRA:         -11.636
REMARK INTER:                 -10.423
REMARK INTRA:                  -1.213
REMARK UNBOUND:                -1.213
REMARK  Name = No_1041-gen_results/8p0m/2024-11-26-14-13-15/
REMARK  5 active torsions:
REMARK  status: ('A' for Active; 'I' for Inactive)
REMARK    1  A    between atoms: C_3  and  C_8
REMARK    2  A    between atoms: C_6  and  O_7
REMARK    3  A    between atoms: O_7  and  C_14
REMARK    4  A    between atoms: C_14  and  C_23
REMARK    5  A    between atoms: C_15  and  C_16
REMARK                            x       y       z     vdW  Elec       q    Type
REMARK                         _______ _______ _______ _____ _____    ______ ____
ROOT
ATOM      1  C   UNL A   1      -9.987   1.081  36.316  0.00  0.00    +0.181 C 
ATOM      2  C   UNL A   1     -10.420   2.076  36.469  0.00  0.00    +0.040 C 
ENDROOT
BRANCH   1   3
ATOM      3  C   UNL A   1      -8.546   0.829  35.951  0.00  0.00    +0.198 A 
ATOM      4  N   UNL A   1      -7.677   1.320  36.489  0.00  0.00    -0.222 NA
ATOM      5  N   UNL A   1      -8.273  -0.343  35.190  0.00  0.00    -0.224 NA
ATOM      6  C   UNL A   1      -7.013  -0.724  34.907  0.00  0.00    +0.085 A 
ATOM      7  C   UNL A   1      -6.316   1.081  36.273  0.00  0.00    +0.102 A 
ATOM      8  C   UNL A   1      -5.976   0.006  35.464  0.00  0.00    +0.037 A 
ATOM      9  C   UNL A   1      -4.585  -0.344  35.236  0.00  0.00    +0.003 A 
ATOM     10  C   UNL A   1      -4.268  -1.298  34.783  0.00  0.00    +0.000 A 
ATOM     11  C   UNL A   1      -5.319  -2.276  34.177  0.00  0.00    +0.002 A 
ATOM     12  C   UNL A   1      -6.709  -1.902  34.245  0.00  0.00    +0.019 A 
ENDBRANCH   1   3
BRANCH   2  13
ATOM     13  C   UNL A   1     -11.849   2.247  36.777  0.00  0.00    -0.001 A 
ATOM     14  C   UNL A   1     -12.197   2.678  38.183  0.00  0.00    -0.000 A 
ATOM     15  C   UNL A   1     -13.522   3.105  38.376  0.00  0.00    -0.000 A 
ATOM     16  C   UNL A   1     -14.543   2.957  37.374  0.00  0.00    -0.000 A 
ATOM     17  C   UNL A   1     -14.101   2.635  36.096  0.00  0.00    -0.004 A 
ATOM     18  C   UNL A   1     -12.847   2.338  35.878  0.00  0.00    -0.022 A 
ATOM     19  C   UNL A   1     -12.480   3.041  34.596  0.00  0.00    +0.031 C 
ENDBRANCH   2  13
BRANCH   1  20
ATOM     20  O   UNL A   1     -10.545  -0.104  36.630  0.00  0.00    -0.450 OA
BRANCH  20  26
ATOM     21  C   UNL A   1      -9.545  -0.154  38.879  0.00  0.00    +0.037 A 
ATOM     22  C   UNL A   1      -9.556  -0.544  40.024  0.00  0.00    +0.003 A 
ATOM     23  C   UNL A   1     -10.469  -1.504  40.446  0.00  0.00    +0.000 A 
ATOM     24  C   UNL A   1     -11.462  -2.030  39.545  0.00  0.00    +0.003 A 
ATOM     25  C   UNL A   1     -11.392  -1.506  38.247  0.00  0.00    +0.037 A 
ATOM     26  C   UNL A   1     -10.520  -0.587  37.902  0.00  0.00    +0.145 A 
BRANCH  23  27
ATOM     27  C   UNL A   1     -10.575  -2.077  41.839  0.00  0.00    +0.000 A 
ATOM     28  C   UNL A   1     -11.089  -1.356  42.820  0.00  0.00    +0.000 A 
ATOM     29  C   UNL A   1     -11.119  -1.882  44.164  0.00  0.00    +0.000 A 
ATOM     30  C   UNL A   1     -10.507  -3.106  44.489  0.00  0.00    +0.000 A 
ATOM     31  C   UNL A   1      -9.929  -3.307  42.172  0.00  0.00    +0.000 A 
ATOM     32  C   UNL A   1      -9.949  -3.809  43.515  0.00  0.00    +0.000 A 
ENDBRANCH  23  27
ENDBRANCH  20  26
ENDBRANCH   1  20
TORSDOF 5
ENDMDL
ENDMDL
