REMARK  Name = No_1041-gen_results/8p0m/2024-11-26-14-13-15/
REMARK  5 active torsions:
REMARK  status: ('A' for Active; 'I' for Inactive)
REMARK    1  A    between atoms: C_3  and  C_8
REMARK    2  A    between atoms: C_6  and  O_7
REMARK    3  A    between atoms: O_7  and  C_14
REMARK    4  A    between atoms: C_14  and  C_23
REMARK    5  A    between atoms: C_15  and  C_16
REMARK                            x       y       z     vdW  Elec       q    Type
REMARK                         _______ _______ _______ _____ _____    ______ ____
ROOT
ATOM      1  C   UNL A   1     -30.127  -2.132  30.581  0.00  0.00    +0.181 C 
ATOM      2  C   UNL A   1     -30.226  -1.143  31.042  0.00  0.00    +0.040 C 
ENDROOT
BRANCH   1   3
ATOM      3  C   UNL A   1     -31.291  -2.978  30.130  0.00  0.00    +0.198 A 
ATOM      4  N   UNL A   1     -32.284  -2.540  29.802  0.00  0.00    -0.222 NA
ATOM      5  N   UNL A   1     -30.996  -4.314  29.733  0.00  0.00    -0.224 NA
ATOM      6  C   UNL A   1     -31.938  -5.119  29.207  0.00  0.00    +0.085 A 
ATOM      7  C   UNL A   1     -33.381  -3.242  29.292  0.00  0.00    +0.102 A 
ATOM      8  C   UNL A   1     -33.191  -4.578  28.967  0.00  0.00    +0.037 A 
ATOM      9  C   UNL A   1     -34.263  -5.361  28.379  0.00  0.00    +0.003 A 
ATOM     10  C   UNL A   1     -34.106  -6.349  27.915  0.00  0.00    +0.000 A 
ATOM     11  C   UNL A   1     -32.727  -7.066  28.024  0.00  0.00    +0.002 A 
ATOM     12  C   UNL A   1     -31.668  -6.391  28.731  0.00  0.00    +0.019 A 
ENDBRANCH   1   3
BRANCH   2  13
ATOM     13  C   UNL A   1     -29.046  -0.394  31.502  0.00  0.00    -0.001 A 
ATOM     14  C   UNL A   1     -29.276   1.028  31.960  0.00  0.00    -0.000 A 
ATOM     15  C   UNL A   1     -28.206   1.623  32.651  0.00  0.00    -0.000 A 
ATOM     16  C   UNL A   1     -26.906   1.017  32.746  0.00  0.00    -0.000 A 
ATOM     17  C   UNL A   1     -26.827  -0.320  32.372  0.00  0.00    -0.004 A 
ATOM     18  C   UNL A   1     -27.850  -0.921  31.824  0.00  0.00    -0.022 A 
ATOM     19  C   UNL A   1     -27.912  -2.283  32.467  0.00  0.00    +0.031 C 
ENDBRANCH   2  13
BRANCH   1  20
ATOM     20  O   UNL A   1     -29.000  -2.701  30.115  0.00  0.00    -0.450 OA
BRANCH  20  26
ATOM     21  C   UNL A   1     -28.016  -0.814  28.878  0.00  0.00    +0.037 A 
ATOM     22  C   UNL A   1     -27.064  -0.119  28.608  0.00  0.00    +0.003 A 
ATOM     23  C   UNL A   1     -25.792  -0.430  29.076  0.00  0.00    +0.000 A 
ATOM     24  C   UNL A   1     -25.576  -1.565  29.936  0.00  0.00    +0.003 A 
ATOM     25  C   UNL A   1     -26.735  -2.300  30.217  0.00  0.00    +0.037 A 
ATOM     26  C   UNL A   1     -27.918  -1.954  29.763  0.00  0.00    +0.145 A 
BRANCH  23  27
ATOM     27  C   UNL A   1     -24.529   0.349  28.800  0.00  0.00    +0.000 A 
ATOM     28  C   UNL A   1     -24.481   1.211  27.800  0.00  0.00    +0.000 A 
ATOM     29  C   UNL A   1     -23.248   1.897  27.495  0.00  0.00    +0.000 A 
ATOM     30  C   UNL A   1     -22.050   1.589  28.164  0.00  0.00    +0.000 A 
ATOM     31  C   UNL A   1     -23.307   0.015  29.462  0.00  0.00    +0.000 A 
ATOM     32  C   UNL A   1     -22.085   0.690  29.137  0.00  0.00    +0.000 A 
ENDBRANCH  23  27
ENDBRANCH  20  26
ENDBRANCH   1  20
TORSDOF 5
