REMARK  Name = No_1042-gen_results/8p0m/2024-11-26-14-13-15/
REMARK  0 active torsions:
REMARK  status: ('A' for Active; 'I' for Inactive)
REMARK                            x       y       z     vdW  Elec       q    Type
REMARK                         _______ _______ _______ _____ _____    ______ ____
ROOT
ATOM      1  O   UNL A   1     -28.123  -1.335  28.487  0.00  0.00    -0.275 OA
ATOM      2  C   UNL A   1     -27.481  -0.404  28.709  0.00  0.00    +0.225 C 
ATOM      3  C   UNL A   1     -27.190   0.246  29.527  0.00  0.00    +0.077 C 
ATOM      4  N   UNL A   1     -26.816   0.137  27.426  0.00  0.00    -0.281 N 
ATOM      5  C   UNL A   1     -26.355   1.420  29.764  0.00  0.00    +0.011 C 
ATOM      6  C   UNL A   1     -27.003  -0.384  26.201  0.00  0.00    +0.093 C 
ATOM      7  C   UNL A   1     -25.801   1.863  28.486  0.00  0.00    +0.020 C 
ATOM      8  C   UNL A   1     -25.994   1.245  27.378  0.00  0.00    +0.075 C 
ATOM      9  C   UNL A   1     -27.717  -0.225  31.001  0.00  0.00    +0.010 C 
ATOM     10  C   UNL A   1     -27.711   0.353  25.297  0.00  0.00    +0.022 C 
ATOM     11  C   UNL A   1     -27.907   1.610  25.505  0.00  0.00    +0.004 C 
ATOM     12  C   UNL A   1     -26.733   2.236  26.291  0.00  0.00    +0.020 C 
ENDROOT
TORSDOF 0
