MODEL 1042
MODEL 1
REMARK VINA RESULT:    -5.573      0.000      0.000
REMARK INTER + INTRA:          -5.573
REMARK INTER:                  -5.573
REMARK INTRA:                   0.000
REMARK UNBOUND:                 0.000
REMARK  Name = No_1042-gen_results/8p0m/2024-11-26-14-13-15/
REMARK  0 active torsions:
REMARK  status: ('A' for Active; 'I' for Inactive)
REMARK                            x       y       z     vdW  Elec       q    Type
REMARK                         _______ _______ _______ _____ _____    ______ ____
ROOT
ATOM      1  O   UNL A   1     -25.088  -0.908  27.676  0.00  0.00    -0.275 OA
ATOM      2  C   UNL A   1     -24.612  -0.039  27.089  0.00  0.00    +0.225 C 
ATOM      3  C   UNL A   1     -24.633   0.433  26.112  0.00  0.00    +0.077 C 
ATOM      4  N   UNL A   1     -23.573   0.714  27.946  0.00  0.00    -0.281 N 
ATOM      5  C   UNL A   1     -24.012   1.553  25.411  0.00  0.00    +0.011 C 
ATOM      6  C   UNL A   1     -23.234   0.367  29.200  0.00  0.00    +0.093 C 
ATOM      7  C   UNL A   1     -23.031   2.173  26.300  0.00  0.00    +0.020 C 
ATOM      8  C   UNL A   1     -22.836   1.797  27.511  0.00  0.00    +0.075 C 
ATOM      9  C   UNL A   1     -25.755  -0.164  25.084  0.00  0.00    +0.010 C 
ATOM     10  C   UNL A   1     -21.986  -0.144  29.404  0.00  0.00    +0.022 C 
ATOM     11  C   UNL A   1     -21.076   0.003  28.503  0.00  0.00    +0.004 C 
ATOM     12  C   UNL A   1     -21.274   1.319  27.718  0.00  0.00    +0.020 C 
ENDROOT
TORSDOF 0
ENDMDL
ENDMDL
