MODEL 1043
MODEL 1
REMARK VINA RESULT:    -6.477      0.000      0.000
REMARK INTER + INTRA:          -7.643
REMARK INTER:                  -7.234
REMARK INTRA:                  -0.409
REMARK UNBOUND:                -0.409
REMARK  Name = No_1043-gen_results/8p0m/2024-11-26-14-13-15/
REMARK  2 active torsions:
REMARK  status: ('A' for Active; 'I' for Inactive)
REMARK    1  A    between atoms: C_3  and  C_7
REMARK    2  A    between atoms: C_6  and  C_13
REMARK                            x       y       z     vdW  Elec       q    Type
REMARK                         _______ _______ _______ _____ _____    ______ ____
ROOT
ATOM      1  C   UNL A   1     -29.116 -10.321  32.815  0.00  0.00    +0.007 A 
ATOM      2  C   UNL A   1     -29.785  -9.994  31.862  0.00  0.00    +0.000 A 
ATOM      3  C   UNL A   1     -29.707 -10.613  30.616  0.00  0.00    +0.000 A 
ATOM      4  C   UNL A   1     -28.737 -11.671  30.412  0.00  0.00    +0.000 A 
ATOM      5  C   UNL A   1     -27.973 -12.003  31.530  0.00  0.00    +0.007 A 
ATOM      6  C   UNL A   1     -28.105 -11.356  32.672  0.00  0.00    +0.080 A 
ENDROOT
BRANCH   3   7
ATOM      7  C   UNL A   1     -30.501 -10.273  29.391  0.00  0.00    +0.000 A 
ATOM      8  C   UNL A   1     -30.215 -10.785  28.228  0.00  0.00    +0.000 A 
ATOM      9  C   UNL A   1     -30.920 -10.389  27.052  0.00  0.00    +0.000 A 
ATOM     10  C   UNL A   1     -31.807  -9.339  27.045  0.00  0.00    +0.000 A 
ATOM     11  C   UNL A   1     -31.241  -9.007  29.244  0.00  0.00    +0.000 A 
ATOM     12  C   UNL A   1     -31.947  -8.629  28.150  0.00  0.00    +0.000 A 
ENDBRANCH   3   7
BRANCH   6  13
ATOM     13  C   UNL A   1     -27.194 -11.736  33.791  0.00  0.00    +0.388 C 
ATOM     14  O   UNL A   1     -26.841 -12.753  33.961  0.00  0.00    -0.241 OA
ATOM     15  O   UNL A   1     -26.866 -10.722  34.608  0.00  0.00    -0.241 OA
ENDBRANCH   6  13
TORSDOF 2
ENDMDL
ENDMDL
