MODEL 1044
MODEL 1
REMARK VINA RESULT:    -4.349      0.000      0.000
REMARK INTER + INTRA:          -4.349
REMARK INTER:                  -4.349
REMARK INTRA:                   0.000
REMARK UNBOUND:                 0.000
REMARK  Name = No_1044-gen_results/8p0m/2024-11-26-14-13-15/
REMARK  0 active torsions:
REMARK  status: ('A' for Active; 'I' for Inactive)
REMARK                            x       y       z     vdW  Elec       q    Type
REMARK                         _______ _______ _______ _____ _____    ______ ____
ROOT
ATOM      1  C   UNL A   1     -24.164  -4.891  28.617  0.00  0.00    +0.000 A 
ATOM      2  C   UNL A   1     -25.016  -5.292  29.091  0.00  0.00    +0.000 A 
ATOM      3  C   UNL A   1     -24.057  -3.432  28.741  0.00  0.00    +0.000 A 
ATOM      4  C   UNL A   1     -25.039  -2.682  29.243  0.00  0.00    +0.000 A 
ATOM      5  C   UNL A   1     -26.198  -4.696  29.666  0.00  0.00    +0.000 A 
ATOM      6  C   UNL A   1     -26.090  -3.339  29.750  0.00  0.00    +0.000 A 
ENDROOT
TORSDOF 0
ENDMDL
ENDMDL
