REMARK  Name = No_1045-gen_results/8p0m/2024-11-26-14-13-15/
REMARK  3 active torsions:
REMARK  status: ('A' for Active; 'I' for Inactive)
REMARK    1  A    between atoms: C_3  and  C_12
REMARK    2  A    between atoms: C_12  and  C_13
REMARK    3  A    between atoms: C_13  and  C_15
REMARK                            x       y       z     vdW  Elec       q    Type
REMARK                         _______ _______ _______ _____ _____    ______ ____
ROOT
ATOM      1  C   UNL A   1     -28.016  -0.814  28.878  0.00  0.00    +0.057 A 
ATOM      2  C   UNL A   1     -27.064  -0.119  28.608  0.00  0.00    +0.007 A 
ATOM      3  C   UNL A   1     -26.972   0.714  27.506  0.00  0.00    -0.025 A 
ATOM      4  C   UNL A   1     -28.105   0.774  26.642  0.00  0.00    -0.023 A 
ATOM      5  C   UNL A   1     -29.201   0.104  27.053  0.00  0.00    +0.031 A 
ATOM      6  C   UNL A   1     -29.147  -0.538  28.353  0.00  0.00    +0.014 A 
ATOM      7  C   UNL A   1     -30.394   0.249  26.246  0.00  0.00    +0.173 C 
ATOM      8  C   UNL A   1     -30.297   0.333  24.937  0.00  0.00    +0.070 C 
ATOM      9  C   UNL A   1     -29.143   1.095  24.391  0.00  0.00    +0.013 C 
ATOM     10  C   UNL A   1     -27.953   1.124  25.241  0.00  0.00    +0.027 C 
ATOM     11 CL   UNL A   1     -27.981  -1.673  30.456  0.00  0.00    -0.082 Cl
ATOM     12  O   UNL A   1     -31.517  -0.333  26.695  0.00  0.00    -0.291 OA
ENDROOT
BRANCH   3  13
ATOM     13  C   UNL A   1     -25.867   1.505  26.996  0.00  0.00    +0.026 C 
ATOM     14  C   UNL A   1     -24.778   1.024  26.313  0.00  0.00    +0.005 C 
BRANCH  13  15
ATOM     15  C   UNL A   1     -25.828   2.761  27.668  0.00  0.00    +0.026 C 
ATOM     16  C   UNL A   1     -25.073   3.608  26.510  0.00  0.00    +0.005 C 
BRANCH  15  17
ATOM     17  C   UNL A   1     -25.995   3.304  28.553  0.00  0.00    -0.022 A 
ATOM     18  C   UNL A   1     -26.031   4.689  28.883  0.00  0.00    -0.004 A 
ATOM     19  C   UNL A   1     -26.358   5.250  30.162  0.00  0.00    -0.000 A 
ATOM     20  C   UNL A   1     -26.465   4.358  31.200  0.00  0.00    -0.000 A 
ATOM     21  C   UNL A   1     -26.358   3.001  31.050  0.00  0.00    -0.000 A 
ATOM     22  C   UNL A   1     -26.173   2.522  29.849  0.00  0.00    -0.004 A 
ENDBRANCH  15  17
ENDBRANCH  13  15
ENDBRANCH   3  13
TORSDOF 3
