MODEL 1045
MODEL 1
REMARK VINA RESULT:    -7.967      0.000      0.000
REMARK INTER + INTRA:         -10.710
REMARK INTER:                  -9.364
REMARK INTRA:                  -1.346
REMARK UNBOUND:                -1.346
REMARK  Name = No_1045-gen_results/8p0m/2024-11-26-14-13-15/
REMARK  3 active torsions:
REMARK  status: ('A' for Active; 'I' for Inactive)
REMARK    1  A    between atoms: C_3  and  C_12
REMARK    2  A    between atoms: C_12  and  C_13
REMARK    3  A    between atoms: C_13  and  C_15
REMARK                            x       y       z     vdW  Elec       q    Type
REMARK                         _______ _______ _______ _____ _____    ______ ____
ROOT
ATOM      1  C   UNL A   1     -26.008  -0.835  31.305  0.00  0.00    +0.057 A 
ATOM      2  C   UNL A   1     -25.133  -0.330  30.640  0.00  0.00    +0.007 A 
ATOM      3  C   UNL A   1     -24.420  -0.971  29.641  0.00  0.00    -0.025 A 
ATOM      4  C   UNL A   1     -24.772  -2.324  29.360  0.00  0.00    -0.023 A 
ATOM      5  C   UNL A   1     -25.848  -2.807  30.014  0.00  0.00    +0.031 A 
ATOM      6  C   UNL A   1     -26.580  -1.891  30.868  0.00  0.00    +0.014 A 
ATOM      7  C   UNL A   1     -26.286  -4.139  29.655  0.00  0.00    +0.173 C 
ATOM      8  C   UNL A   1     -25.400  -5.065  29.357  0.00  0.00    +0.070 C 
ATOM      9  C   UNL A   1     -24.200  -4.634  28.594  0.00  0.00    +0.013 C 
ATOM     10  C   UNL A   1     -23.800  -3.240  28.789  0.00  0.00    +0.027 C 
ATOM     11 CL   UNL A   1     -26.916   0.244  32.418  0.00  0.00    -0.082 Cl
ATOM     12  O   UNL A   1     -27.411  -4.593  30.227  0.00  0.00    -0.291 OA
ENDROOT
BRANCH   3  13
ATOM     13  C   UNL A   1     -23.282  -0.538  28.851  0.00  0.00    +0.026 C 
ATOM     14  C   UNL A   1     -21.979  -0.478  29.279  0.00  0.00    +0.005 C 
BRANCH  13  15
ATOM     15  C   UNL A   1     -23.736   0.229  27.739  0.00  0.00    +0.026 C 
ATOM     16  C   UNL A   1     -22.572   1.358  27.760  0.00  0.00    +0.005 C 
BRANCH  15  17
ATOM     17  C   UNL A   1     -24.486   0.404  27.023  0.00  0.00    -0.022 A 
ATOM     18  C   UNL A   1     -25.210  -0.420  26.115  0.00  0.00    -0.004 A 
ATOM     19  C   UNL A   1     -26.275  -0.001  25.251  0.00  0.00    -0.000 A 
ATOM     20  C   UNL A   1     -26.482   1.354  25.165  0.00  0.00    -0.000 A 
ATOM     21  C   UNL A   1     -25.793   2.276  25.908  0.00  0.00    -0.000 A 
ATOM     22  C   UNL A   1     -24.910   1.845  26.769  0.00  0.00    -0.004 A 
ENDBRANCH  15  17
ENDBRANCH  13  15
ENDBRANCH   3  13
TORSDOF 3
ENDMDL
ENDMDL
