MODEL 1046
MODEL 1
REMARK VINA RESULT:    -6.355      0.000      0.000
REMARK INTER + INTRA:          -9.622
REMARK INTER:                  -8.212
REMARK INTRA:                  -1.410
REMARK UNBOUND:                -1.410
REMARK  Name = No_1046-gen_results/8p0m/2024-11-26-14-13-15/
REMARK  5 active torsions:
REMARK  status: ('A' for Active; 'I' for Inactive)
REMARK    1  A    between atoms: C_2  and  C_3
REMARK    2  A    between atoms: N_4  and  C_11
REMARK    3  A    between atoms: C_5  and  N_22
REMARK    4  A    between atoms: C_15  and  C_17
REMARK    5  A    between atoms: N_18  and  C_19
REMARK                            x       y       z     vdW  Elec       q    Type
REMARK                         _______ _______ _______ _____ _____    ______ ____
ROOT
ATOM      1  O   UNL A   1     -26.429  -0.696  32.511  0.00  0.00    -0.270 OA
ATOM      2  C   UNL A   1     -26.632  -0.741  31.377  0.00  0.00    +0.254 C 
ATOM      3  N   UNL A   1     -26.938   0.446  30.558  0.00  0.00    -0.253 N 
ATOM      4  C   UNL A   1     -27.058   1.699  31.254  0.00  0.00    +0.120 C 
ENDROOT
BRANCH   2   5
ATOM      5  C   UNL A   1     -26.463  -1.909  30.660  0.00  0.00    +0.068 A 
ATOM      6  C   UNL A   1     -25.197  -2.402  30.252  0.00  0.00    +0.056 A 
ATOM      7  C   UNL A   1     -25.094  -3.597  29.495  0.00  0.00    +0.015 A 
ATOM      8  C   UNL A   1     -26.163  -4.484  29.456  0.00  0.00    +0.001 A 
ATOM      9  C   UNL A   1     -27.344  -4.118  30.086  0.00  0.00    +0.000 A 
ATOM     10  C   UNL A   1     -27.542  -2.906  30.676  0.00  0.00    +0.006 A 
BRANCH   6  11
ATOM     11  N   UNL A   1     -24.124  -1.575  30.216  0.00  0.00    -0.286 N 
ATOM     12  C   UNL A   1     -23.504  -0.839  30.859  0.00  0.00    +0.061 C 
ATOM     13  C   UNL A   1     -22.292  -0.238  30.572  0.00  0.00    -0.008 C 
ATOM     14  C   UNL A   1     -22.097  -0.635  29.332  0.00  0.00    +0.049 C 
ATOM     15  C   UNL A   1     -23.202  -1.612  28.904  0.00  0.00    +0.100 C 
ENDBRANCH   6  11
ENDBRANCH   2   5
BRANCH   3  16
ATOM     16  C   UNL A   1     -27.108   0.410  29.185  0.00  0.00    +0.054 A 
ATOM     17  C   UNL A   1     -28.067   0.218  28.698  0.00  0.00    +0.015 A 
ATOM     18  C   UNL A   1     -28.205   0.260  27.197  0.00  0.00    +0.001 A 
ATOM     19  C   UNL A   1     -27.088   0.689  26.468  0.00  0.00    +0.005 A 
ATOM     20  C   UNL A   1     -25.919   1.008  27.159  0.00  0.00    +0.055 A 
ATOM     21  C   UNL A   1     -25.894   0.866  28.512  0.00  0.00    +0.019 A 
BRANCH  20  22
ATOM     22  C   UNL A   1     -24.786   1.386  26.269  0.00  0.00    +0.253 C 
ATOM     23  N   UNL A   1     -24.335   2.394  25.897  0.00  0.00    -0.253 N 
ATOM     24  O   UNL A   1     -24.665   0.272  25.371  0.00  0.00    -0.270 OA
ATOM     25  C   UNL A   1     -22.929   2.406  25.362  0.00  0.00    +0.120 C 
BRANCH  23  26
ATOM     26  C   UNL A   1     -24.790   3.535  26.250  0.00  0.00    +0.063 C 
ATOM     27  C   UNL A   1     -24.543   4.612  26.601  0.00  0.00    -0.010 C 
ATOM     28  C   UNL A   1     -25.334   5.709  27.074  0.00  0.00    +0.032 C 
ENDBRANCH  23  26
ENDBRANCH  20  22
ENDBRANCH   3  16
TORSDOF 5
ENDMDL
ENDMDL
