REMARK  Name = No_1047-gen_results/8p0m/2024-11-26-14-13-15/
REMARK  7 active torsions:
REMARK  status: ('A' for Active; 'I' for Inactive)
REMARK    1  A    between atoms: C_3  and  C_15
REMARK    2  A    between atoms: C_6  and  C_7
REMARK    3  A    between atoms: N_8  and  C_9
REMARK    4  A    between atoms: C_9  and  C_10
REMARK    5  A    between atoms: C_10  and  C_12
REMARK    6  A    between atoms: C_23  and  C_26
REMARK    7  A    between atoms: C_30  and  C_32
REMARK                            x       y       z     vdW  Elec       q    Type
REMARK                         _______ _______ _______ _____ _____    ______ ____
ROOT
ATOM      1  C   UNL A   1     -30.046  -4.833  30.661  0.00  0.00    +0.250 C 
ATOM      2  O   UNL A   1     -31.105  -4.254  30.901  0.00  0.00    -0.273 OA
ENDROOT
BRANCH   1   4
ATOM      3  C   UNL A   1     -29.073  -2.784  30.178  0.00  0.00    +0.091 C 
ATOM      4  N   UNL A   1     -28.937  -4.072  30.365  0.00  0.00    -0.177 NA
BRANCH   3  10
ATOM      5  C   UNL A   1     -28.016  -0.814  28.878  0.00  0.00    +0.141 A 
ATOM      6  C   UNL A   1     -27.064  -0.119  28.608  0.00  0.00    +0.030 A 
ATOM      7  C   UNL A   1     -25.792  -0.430  29.076  0.00  0.00    +0.002 A 
ATOM      8  C   UNL A   1     -25.576  -1.565  29.936  0.00  0.00    +0.000 A 
ATOM      9  C   UNL A   1     -26.735  -2.300  30.217  0.00  0.00    +0.004 A 
ATOM     10  C   UNL A   1     -27.918  -1.954  29.763  0.00  0.00    +0.044 A 
ATOM     11  F   UNL A   1     -29.248  -0.516  28.456  0.00  0.00    -0.204 F 
BRANCH   7  12
ATOM     12  C   UNL A   1     -24.536   0.365  28.716  0.00  0.00    +0.003 A 
ATOM     13  C   UNL A   1     -24.533   1.228  27.697  0.00  0.00    +0.042 A 
ATOM     14  C   UNL A   1     -23.559   1.891  27.355  0.00  0.00    +0.196 A 
ATOM     15  C   UNL A   1     -22.270   1.740  27.929  0.00  0.00    +0.042 A 
ATOM     16  C   UNL A   1     -23.383   0.230  29.561  0.00  0.00    +0.000 A 
ATOM     17  C   UNL A   1     -22.201   0.919  29.090  0.00  0.00    +0.003 A 
ATOM     18  O   UNL A   1     -23.697   2.819  26.327  0.00  0.00    -0.287 OA
ENDBRANCH   7  12
ENDBRANCH   3  10
ENDBRANCH   1   4
BRANCH   1  19
ATOM     19  C   UNL A   1     -29.928  -6.130  30.946  0.00  0.00    +0.114 C 
BRANCH  19  20
ATOM     20  C   UNL A   1     -30.819  -6.785  31.889  0.00  0.00    -0.013 A 
ATOM     21  C   UNL A   1     -31.881  -6.903  31.541  0.00  0.00    -0.004 A 
ATOM     22  C   UNL A   1     -30.197  -7.461  33.036  0.00  0.00    -0.004 A 
ATOM     23  C   UNL A   1     -30.908  -8.383  33.724  0.00  0.00    -0.000 A 
ATOM     24  C   UNL A   1     -32.822  -7.816  32.349  0.00  0.00    -0.000 A 
ATOM     25  C   UNL A   1     -32.310  -8.467  33.426  0.00  0.00    -0.000 A 
BRANCH  24  26
ATOM     26  C   UNL A   1     -34.230  -7.921  31.982  0.00  0.00    +0.000 A 
ATOM     27  C   UNL A   1     -35.041  -7.002  32.515  0.00  0.00    +0.000 A 
ATOM     28  C   UNL A   1     -35.818  -6.389  32.364  0.00  0.00    +0.000 A 
ATOM     29  C   UNL A   1     -36.428  -6.223  30.988  0.00  0.00    +0.007 A 
ATOM     30  C   UNL A   1     -35.894  -7.197  30.136  0.00  0.00    +0.080 A 
ATOM     31  C   UNL A   1     -34.608  -7.942  30.541  0.00  0.00    +0.007 A 
BRANCH  30  32
ATOM     32  C   UNL A   1     -36.316  -7.340  28.771  0.00  0.00    +0.388 C 
ATOM     33  O   UNL A   1     -36.395  -8.281  28.179  0.00  0.00    -0.241 OA
ATOM     34  O   UNL A   1     -36.696  -6.196  28.172  0.00  0.00    -0.241 OA
ENDBRANCH  30  32
ENDBRANCH  24  26
ENDBRANCH  19  20
ENDBRANCH   1  19
TORSDOF 7
