MODEL 1048
MODEL 1
REMARK VINA RESULT:    -6.348      0.000      0.000
REMARK INTER + INTRA:          -7.049
REMARK INTER:                  -7.090
REMARK INTRA:                   0.041
REMARK UNBOUND:                 0.041
REMARK  Name = No_1048-gen_results/8p0m/2024-11-26-14-13-15/
REMARK  2 active torsions:
REMARK  status: ('A' for Active; 'I' for Inactive)
REMARK    1  A    between atoms: C_2  and  C_7
REMARK    2  A    between atoms: N_9  and  C_10
REMARK                            x       y       z     vdW  Elec       q    Type
REMARK                         _______ _______ _______ _____ _____    ______ ____
ROOT
ATOM      1  C   UNL A   1     -24.713  -0.713  27.718  0.00  0.00    +0.269 C 
ATOM      2  O   UNL A   1     -25.758  -0.809  27.350  0.00  0.00    -0.268 OA
ATOM      3  N   UNL A   1     -24.082  -1.609  28.587  0.00  0.00    -0.175 NA
ENDROOT
BRANCH   1   5
ATOM      4  C   UNL A   1     -24.267   0.915  26.184  0.00  0.00    +0.005 A 
ATOM      5  C   UNL A   1     -23.909   0.532  27.098  0.00  0.00    +0.055 A 
ATOM      6  C   UNL A   1     -23.485   2.078  25.615  0.00  0.00    +0.000 A 
ATOM      7  C   UNL A   1     -22.283   2.473  26.239  0.00  0.00    +0.000 A 
ATOM      8  C   UNL A   1     -22.694   0.732  27.919  0.00  0.00    +0.005 A 
ATOM      9  C   UNL A   1     -21.945   1.790  27.423  0.00  0.00    +0.000 A 
ENDBRANCH   1   5
BRANCH   3  10
ATOM     10  C   UNL A   1     -24.836  -2.726  29.060  0.00  0.00    +0.074 A 
ATOM     11  C   UNL A   1     -24.373  -3.817  28.774  0.00  0.00    +0.017 A 
ATOM     12  C   UNL A   1     -24.965  -4.987  29.014  0.00  0.00    +0.001 A 
ATOM     13  C   UNL A   1     -26.242  -4.891  29.729  0.00  0.00    +0.000 A 
ATOM     14  C   UNL A   1     -26.639  -3.753  29.985  0.00  0.00    +0.001 A 
ATOM     15  C   UNL A   1     -26.044  -2.527  29.693  0.00  0.00    +0.017 A 
ENDBRANCH   3  10
TORSDOF 2
ENDMDL
ENDMDL
