REMARK  Name = No_1049-gen_results/8p0m/2024-11-26-14-13-15/
REMARK  3 active torsions:
REMARK  status: ('A' for Active; 'I' for Inactive)
REMARK    1  A    between atoms: C_2  and  C_9
REMARK    2  A    between atoms: C_5  and  C_6
REMARK    3  A    between atoms: C_9  and  C_10
REMARK                            x       y       z     vdW  Elec       q    Type
REMARK                         _______ _______ _______ _____ _____    ______ ____
ROOT
ATOM      1  C   UNL A   1     -28.016  -0.814  28.878  0.00  0.00    -0.004 A 
ATOM      2  C   UNL A   1     -27.064  -0.119  28.608  0.00  0.00    -0.018 A 
ATOM      3  C   UNL A   1     -25.792  -0.430  29.076  0.00  0.00    -0.004 A 
ATOM      4  C   UNL A   1     -25.576  -1.565  29.936  0.00  0.00    -0.003 A 
ATOM      5  C   UNL A   1     -26.735  -2.300  30.217  0.00  0.00    -0.003 A 
ATOM      6  C   UNL A   1     -27.964  -1.983  29.700  0.00  0.00    -0.003 A 
ENDROOT
BRANCH   5   7
ATOM      7  C   UNL A   1     -26.584  -3.508  30.985  0.00  0.00    +0.136 C 
ATOM      8  N   UNL A   1     -26.633  -4.528  29.957  0.00  0.00    -0.126 NA
ENDBRANCH   5   7
BRANCH   2   9
ATOM      9  C   UNL A   1     -27.121   1.171  27.795  0.00  0.00    +0.053 C 
BRANCH   9  10
ATOM     10  C   UNL A   1     -26.248   1.421  26.904  0.00  0.00    -0.018 A 
ATOM     11  C   UNL A   1     -26.281   2.617  26.117  0.00  0.00    -0.004 A 
ATOM     12  C   UNL A   1     -25.157   3.115  25.401  0.00  0.00    -0.000 A 
ATOM     13  C   UNL A   1     -23.923   2.360  25.554  0.00  0.00    -0.000 A 
ATOM     14  C   UNL A   1     -23.862   1.258  26.437  0.00  0.00    -0.000 A 
ATOM     15  C   UNL A   1     -24.922   0.818  27.086  0.00  0.00    -0.004 A 
ENDBRANCH   9  10
ENDBRANCH   2   9
TORSDOF 3
