MODEL 1049
MODEL 1
REMARK VINA RESULT:    -6.760      0.000      0.000
REMARK INTER + INTRA:          -8.375
REMARK INTER:                  -7.946
REMARK INTRA:                  -0.430
REMARK UNBOUND:                -0.430
REMARK  Name = No_1049-gen_results/8p0m/2024-11-26-14-13-15/
REMARK  3 active torsions:
REMARK  status: ('A' for Active; 'I' for Inactive)
REMARK    1  A    between atoms: C_2  and  C_9
REMARK    2  A    between atoms: C_5  and  C_6
REMARK    3  A    between atoms: C_9  and  C_10
REMARK                            x       y       z     vdW  Elec       q    Type
REMARK                         _______ _______ _______ _____ _____    ______ ____
ROOT
ATOM      1  C   UNL A   1     -24.551  -0.192  27.448  0.00  0.00    -0.004 A 
ATOM      2  C   UNL A   1     -23.660  -0.427  28.230  0.00  0.00    -0.018 A 
ATOM      3  C   UNL A   1     -22.532   0.384  28.299  0.00  0.00    -0.004 A 
ATOM      4  C   UNL A   1     -22.370   1.504  27.409  0.00  0.00    -0.003 A 
ATOM      5  C   UNL A   1     -23.437   1.690  26.520  0.00  0.00    -0.003 A 
ATOM      6  C   UNL A   1     -24.551   0.891  26.514  0.00  0.00    -0.003 A 
ENDROOT
BRANCH   5   7
ATOM      7  C   UNL A   1     -23.397   2.849  25.669  0.00  0.00    +0.136 C 
ATOM      8  N   UNL A   1     -24.766   3.321  25.735  0.00  0.00    -0.126 NA
ENDBRANCH   5   7
BRANCH   2   9
ATOM      9  C   UNL A   1     -23.615  -1.622  29.178  0.00  0.00    +0.053 C 
BRANCH   9  10
ATOM     10  C   UNL A   1     -24.430  -2.591  29.046  0.00  0.00    -0.018 A 
ATOM     11  C   UNL A   1     -23.992  -3.921  28.746  0.00  0.00    -0.004 A 
ATOM     12  C   UNL A   1     -24.794  -5.077  28.962  0.00  0.00    -0.000 A 
ATOM     13  C   UNL A   1     -26.095  -4.842  29.568  0.00  0.00    -0.000 A 
ATOM     14  C   UNL A   1     -26.467  -3.543  29.985  0.00  0.00    -0.000 A 
ATOM     15  C   UNL A   1     -25.703  -2.490  29.769  0.00  0.00    -0.004 A 
ENDBRANCH   9  10
ENDBRANCH   2   9
TORSDOF 3
ENDMDL
ENDMDL
