MODEL 104
MODEL 1
REMARK VINA RESULT:    -5.297      0.000      0.000
REMARK INTER + INTRA:         -13.424
REMARK INTER:                  -9.322
REMARK INTRA:                  -4.102
REMARK UNBOUND:                -4.102
REMARK  Name = No_104-gen_results/8p0m/2024-11-26-14-13-15/
REMARK  13 active torsions:
REMARK  status: ('A' for Active; 'I' for Inactive)
REMARK    1  A    between atoms: C_4  and  C_7
REMARK    2  A    between atoms: C_7  and  C_8
REMARK    3  A    between atoms: C_8  and  C_9
REMARK    4  A    between atoms: C_8  and  C_10
REMARK    5  A    between atoms: C_9  and  C_12
REMARK    6  A    between atoms: C_13  and  C_14
REMARK    7  A    between atoms: C_14  and  C_15
REMARK    8  A    between atoms: C_15  and  N_19
REMARK    9  A    between atoms: N_19  and  C_20
REMARK   10  A    between atoms: N_19  and  C_23
REMARK   11  A    between atoms: C_21  and  C_22
REMARK   12  A    between atoms: C_22  and  C_24
REMARK   13  A    between atoms: C_24  and  C_26
REMARK                            x       y       z     vdW  Elec       q    Type
REMARK                         _______ _______ _______ _____ _____    ______ ____
ROOT
ATOM      1  C   UNL A   1     -24.975   2.552  30.892  0.00  0.00    -0.030 C 
ATOM      2  C   UNL A   1     -24.678   1.598  31.863  0.00  0.00    -0.029 C 
ENDROOT
BRANCH   1   3
ATOM      3  C   UNL A   1     -25.146   2.129  29.476  0.00  0.00    +0.030 C 
BRANCH   3   4
ATOM      4  C   UNL A   1     -26.011   2.743  28.698  0.00  0.00    +0.030 C 
BRANCH   4   5
ATOM      5  C   UNL A   1     -25.907   4.208  28.597  0.00  0.00    -0.030 C 
ATOM      6  C   UNL A   1     -25.271   4.838  27.542  0.00  0.00    -0.030 C 
ATOM      7  C   UNL A   1     -24.995   6.153  27.526  0.00  0.00    +0.030 C 
ENDBRANCH   4   5
BRANCH   4   8
ATOM      8  C   UNL A   1     -27.003   2.093  27.932  0.00  0.00    +0.032 C 
BRANCH   8  12
ATOM      9  C   UNL A   1     -26.241   0.670  24.436  0.00  0.00    +0.011 A 
ATOM     10  C   UNL A   1     -25.832  -0.253  24.738  0.00  0.00    +0.001 A 
ATOM     11  C   UNL A   1     -26.736   1.553  25.504  0.00  0.00    +0.054 A 
ATOM     12  C   UNL A   1     -26.533   1.218  26.874  0.00  0.00    -0.011 A 
ATOM     13  C   UNL A   1     -25.930   0.009  27.114  0.00  0.00    -0.003 A 
ATOM     14  C   UNL A   1     -25.518  -0.774  26.095  0.00  0.00    -0.000 A 
ATOM     15 CL   UNL A   1     -27.510   3.073  25.194  0.00  0.00    -0.083 Cl
ENDBRANCH   8  12
ENDBRANCH   4   8
ENDBRANCH   3   4
ENDBRANCH   1   3
BRANCH   2  16
ATOM     16  C   UNL A   1     -24.712   0.248  31.565  0.00  0.00    +0.046 C 
BRANCH  16  17
ATOM     17  C   UNL A   1     -23.544  -0.326  31.469  0.00  0.00    +0.082 C 
ATOM     18  C   UNL A   1     -23.063  -1.120  32.594  0.00  0.00    +0.022 C 
BRANCH  17  19
ATOM     19  N   UNL A   1     -23.386  -1.092  30.251  0.00  0.00    -0.286 N 
BRANCH  19  20
ATOM     20  C   UNL A   1     -22.400  -0.958  29.519  0.00  0.00    +0.061 C 
ATOM     21  C   UNL A   1     -22.553  -0.146  28.372  0.00  0.00    -0.010 C 
BRANCH  21  22
ATOM     22  C   UNL A   1     -22.068   1.078  28.510  0.00  0.00    +0.032 C 
BRANCH  22  23
ATOM     23  C   UNL A   1     -21.883   1.852  27.317  0.00  0.00    +0.031 C 
BRANCH  23  24
ATOM     24  C   UNL A   1     -22.954   2.136  26.567  0.00  0.00    -0.026 C 
ATOM     25  C   UNL A   1     -22.879   2.222  25.181  0.00  0.00    -0.005 C 
ENDBRANCH  23  24
ENDBRANCH  22  23
ENDBRANCH  21  22
ENDBRANCH  19  20
BRANCH  19  26
ATOM     26  C   UNL A   1     -24.431  -2.030  29.919  0.00  0.00    +0.065 C 
ATOM     27  C   UNL A   1     -24.154  -3.111  29.248  0.00  0.00    +0.017 C 
ENDBRANCH  19  26
ENDBRANCH  17  19
ENDBRANCH  16  17
ENDBRANCH   2  16
TORSDOF 13
ENDMDL
ENDMDL
