REMARK  Name = No_105-gen_results/8p0m/2024-11-26-14-13-15/
REMARK  1 active torsions:
REMARK  status: ('A' for Active; 'I' for Inactive)
REMARK    1  A    between atoms: N_1  and  C_2
REMARK                            x       y       z     vdW  Elec       q    Type
REMARK                         _______ _______ _______ _____ _____    ______ ____
ROOT
ATOM      1  N   UNL A   1     -28.054  -1.050  28.725  0.00  0.00    -0.248 N 
ATOM      2  C   UNL A   1     -28.646  -1.510  29.919  0.00  0.00    +0.185 C 
ATOM      3  C   UNL A   1     -30.079  -1.683  29.935  0.00  0.00    +0.262 C 
ATOM      4  N   UNL A   1     -30.758  -0.883  29.285  0.00  0.00    -0.194 NA
ATOM      5  O   UNL A   1     -30.562  -2.604  30.692  0.00  0.00    -0.272 OA
ATOM      6  C   UNL A   1     -30.294   0.206  28.589  0.00  0.00    +0.200 C 
ATOM      7  C   UNL A   1     -29.118   0.236  28.346  0.00  0.00    +0.252 C 
ATOM      8  O   UNL A   1     -28.313   1.240  28.033  0.00  0.00    -0.273 OA
ENDROOT
BRANCH   1   9
ATOM      9  C   UNL A   1     -26.966  -0.472  28.771  0.00  0.00    +0.050 A 
ATOM     10  C   UNL A   1     -26.876   0.813  29.219  0.00  0.00    -0.008 A 
ATOM     11  C   UNL A   1     -25.602   1.379  29.463  0.00  0.00    -0.003 A 
ATOM     12  C   UNL A   1     -24.400   0.709  29.101  0.00  0.00    -0.000 A 
ATOM     13  C   UNL A   1     -24.578  -0.622  28.693  0.00  0.00    +0.001 A 
ATOM     14  C   UNL A   1     -25.794  -1.205  28.526  0.00  0.00    +0.015 A 
ATOM     15  C   UNL A   1     -27.556   1.041  30.646  0.00  0.00    +0.032 C 
ENDBRANCH   1   9
TORSDOF 1
