MODEL 1050
MODEL 1
REMARK VINA RESULT:    -4.541      0.000      0.000
REMARK INTER + INTRA:          -4.541
REMARK INTER:                  -4.541
REMARK INTRA:                   0.000
REMARK UNBOUND:                 0.000
REMARK  Name = No_1050-gen_results/8p0m/2024-11-26-14-13-15/
REMARK  0 active torsions:
REMARK  status: ('A' for Active; 'I' for Inactive)
REMARK                            x       y       z     vdW  Elec       q    Type
REMARK                         _______ _______ _______ _____ _____    ______ ____
ROOT
ATOM      1  C   UNL A   1      -8.193  -9.843  19.811  0.00  0.00    +0.058 A 
ATOM      2  C   UNL A   1      -9.228  -9.251  20.013  0.00  0.00    +0.011 A 
ATOM      3  C   UNL A   1     -10.295  -9.256  19.136  0.00  0.00    +0.001 A 
ATOM      4  C   UNL A   1     -10.180 -10.034  17.950  0.00  0.00    +0.000 A 
ATOM      5  C   UNL A   1      -9.075 -10.810  17.852  0.00  0.00    +0.001 A 
ATOM      6  C   UNL A   1      -8.121 -10.771  18.762  0.00  0.00    +0.011 A 
ATOM      7 CL   UNL A   1      -6.909  -9.808  20.982  0.00  0.00    -0.082 Cl
ENDROOT
TORSDOF 0
ENDMDL
ENDMDL
