MODEL 1051
MODEL 1
REMARK VINA RESULT:    -7.291      0.000      0.000
REMARK INTER + INTRA:         -10.222
REMARK INTER:                  -8.996
REMARK INTRA:                  -1.226
REMARK UNBOUND:                -1.226
REMARK  Name = No_1051-gen_results/8p0m/2024-11-26-14-13-15/
REMARK  4 active torsions:
REMARK  status: ('A' for Active; 'I' for Inactive)
REMARK    1  A    between atoms: C_5  and  C_11
REMARK    2  A    between atoms: C_7  and  C_15
REMARK    3  A    between atoms: C_8  and  C_26
REMARK    4  A    between atoms: N_17  and  C_19
REMARK                            x       y       z     vdW  Elec       q    Type
REMARK                         _______ _______ _______ _____ _____    ______ ____
ROOT
ATOM      1  C   UNL A   1     -12.557   3.270  38.387  0.00  0.00    +0.007 A 
ATOM      2  C   UNL A   1     -12.642   2.783  37.283  0.00  0.00    +0.005 A 
ATOM      3  C   UNL A   1     -13.783   2.955  36.508  0.00  0.00    +0.000 A 
ATOM      4  C   UNL A   1     -14.014   2.399  35.144  0.00  0.00    +0.004 A 
ATOM      5  C   UNL A   1     -12.892   1.766  34.531  0.00  0.00    +0.072 A 
ATOM      6  C   UNL A   1     -11.725   1.655  35.313  0.00  0.00    +0.008 A 
ATOM      7  C   UNL A   1     -11.596   2.131  36.559  0.00  0.00    +0.054 A 
ATOM      8  C   UNL A   1     -13.790   3.558  39.192  0.00  0.00    +0.080 A 
ATOM      9  C   UNL A   1     -14.972   3.853  38.422  0.00  0.00    +0.007 A 
ATOM     10  C   UNL A   1     -15.032   3.452  37.089  0.00  0.00    +0.000 A 
ENDROOT
BRANCH   5  11
ATOM     11  C   UNL A   1     -13.025   1.267  33.153  0.00  0.00    +0.419 C 
ATOM     12  F   UNL A   1     -13.732   0.244  33.089  0.00  0.00    -0.166 F 
ATOM     13  F   UNL A   1     -13.670   2.151  32.323  0.00  0.00    -0.166 F 
ATOM     14  F   UNL A   1     -11.843   1.047  32.571  0.00  0.00    -0.166 F 
ENDBRANCH   5  11
BRANCH   7  15
ATOM     15  C   UNL A   1     -10.280   2.000  37.209  0.00  0.00    +0.253 C 
ATOM     16  O   UNL A   1      -9.436   2.859  37.097  0.00  0.00    -0.270 OA
ATOM     17  N   UNL A   1     -10.074   0.884  37.965  0.00  0.00    -0.253 N 
ATOM     18  C   UNL A   1      -8.841   0.674  38.684  0.00  0.00    +0.120 C 
BRANCH  17  19
ATOM     19  C   UNL A   1     -11.072  -0.228  38.130  0.00  0.00    +0.067 A 
ATOM     20  C   UNL A   1     -11.018  -1.180  37.246  0.00  0.00    +0.016 A 
ATOM     21  C   UNL A   1     -11.479  -2.437  37.675  0.00  0.00    +0.004 A 
ATOM     22  C   UNL A   1     -12.159  -2.607  38.884  0.00  0.00    +0.031 A 
ATOM     23  C   UNL A   1     -12.226  -1.482  39.759  0.00  0.00    +0.152 A 
ATOM     24  C   UNL A   1     -11.530  -0.296  39.438  0.00  0.00    +0.099 A 
ATOM     25  F   UNL A   1     -12.622  -1.866  40.919  0.00  0.00    -0.203 F 
ATOM     26 CL   UNL A   1     -11.615   0.989  40.551  0.00  0.00    -0.079 Cl
ENDBRANCH  17  19
ENDBRANCH   7  15
BRANCH   8  27
ATOM     27  C   UNL A   1     -13.677   4.023  40.573  0.00  0.00    +0.388 C 
ATOM     28  O   UNL A   1     -12.658   4.269  40.987  0.00  0.00    -0.241 OA
ATOM     29  O   UNL A   1     -14.710   3.953  41.265  0.00  0.00    -0.241 OA
ENDBRANCH   8  27
TORSDOF 4
ENDMDL
ENDMDL
