REMARK  Name = No_1051-gen_results/8p0m/2024-11-26-14-13-15/
REMARK  4 active torsions:
REMARK  status: ('A' for Active; 'I' for Inactive)
REMARK    1  A    between atoms: C_5  and  C_11
REMARK    2  A    between atoms: C_7  and  C_15
REMARK    3  A    between atoms: C_8  and  C_26
REMARK    4  A    between atoms: N_17  and  C_19
REMARK                            x       y       z     vdW  Elec       q    Type
REMARK                         _______ _______ _______ _____ _____    ______ ____
ROOT
ATOM      1  C   UNL A   1     -28.016  -0.814  28.878  0.00  0.00    +0.007 A 
ATOM      2  C   UNL A   1     -27.064  -0.119  28.608  0.00  0.00    +0.005 A 
ATOM      3  C   UNL A   1     -25.792  -0.430  29.076  0.00  0.00    +0.000 A 
ATOM      4  C   UNL A   1     -24.546   0.349  28.823  0.00  0.00    +0.004 A 
ATOM      5  C   UNL A   1     -24.659   1.420  27.888  0.00  0.00    +0.072 A 
ATOM      6  C   UNL A   1     -25.947   1.681  27.379  0.00  0.00    +0.008 A 
ATOM      7  C   UNL A   1     -27.044   0.974  27.687  0.00  0.00    +0.054 A 
ATOM      8  C   UNL A   1     -28.024  -1.647  30.126  0.00  0.00    +0.080 A 
ATOM      9  C   UNL A   1     -26.728  -2.085  30.581  0.00  0.00    +0.007 A 
ATOM     10  C   UNL A   1     -25.591  -1.406  30.149  0.00  0.00    +0.000 A 
ENDROOT
BRANCH   5  11
ATOM     11  C   UNL A   1     -23.450   2.179  27.529  0.00  0.00    +0.419 C 
ATOM     12  F   UNL A   1     -23.721   3.295  27.047  0.00  0.00    -0.166 F 
ATOM     13  F   UNL A   1     -22.667   2.485  28.616  0.00  0.00    -0.166 F 
ATOM     14  F   UNL A   1     -22.646   1.503  26.704  0.00  0.00    -0.166 F 
ENDBRANCH   5  11
BRANCH   7  15
ATOM     15  C   UNL A   1     -28.301   1.330  27.006  0.00  0.00    +0.253 C 
ATOM     16  O   UNL A   1     -28.656   0.756  26.003  0.00  0.00    -0.270 OA
ATOM     17  N   UNL A   1     -29.055   2.312  27.577  0.00  0.00    -0.253 N 
ATOM     18  C   UNL A   1     -30.326   2.709  27.023  0.00  0.00    +0.120 C 
BRANCH  17  19
ATOM     19  C   UNL A   1     -28.663   3.077  28.811  0.00  0.00    +0.067 A 
ATOM     20  C   UNL A   1     -29.012   2.547  29.946  0.00  0.00    +0.016 A 
ATOM     21  C   UNL A   1     -28.204   2.877  31.048  0.00  0.00    +0.004 A 
ATOM     22  C   UNL A   1     -27.233   3.881  30.983  0.00  0.00    +0.031 A 
ATOM     23  C   UNL A   1     -26.969   4.452  29.703  0.00  0.00    +0.152 A 
ATOM     24  C   UNL A   1     -27.599   3.928  28.553  0.00  0.00    +0.099 A 
ATOM     25  F   UNL A   1     -25.884   5.137  29.756  0.00  0.00    -0.203 F 
ATOM     26 CL   UNL A   1     -27.200   4.627  27.053  0.00  0.00    -0.079 Cl
ENDBRANCH  17  19
ENDBRANCH   7  15
BRANCH   8  27
ATOM     27  C   UNL A   1     -29.226  -2.382  30.515  0.00  0.00    +0.388 C 
ATOM     28  O   UNL A   1     -30.085  -1.820  30.980  0.00  0.00    -0.241 OA
ATOM     29  O   UNL A   1     -29.154  -3.624  30.464  0.00  0.00    -0.241 OA
ENDBRANCH   8  27
TORSDOF 4
