MODEL 1052
MODEL 1
REMARK VINA RESULT:    -7.855      0.000      0.000
REMARK INTER + INTRA:         -10.957
REMARK INTER:                 -10.151
REMARK INTRA:                  -0.807
REMARK UNBOUND:                -0.807
REMARK  Name = No_1052-gen_results/8p0m/2024-11-26-14-13-15/
REMARK  5 active torsions:
REMARK  status: ('A' for Active; 'I' for Inactive)
REMARK    1  A    between atoms: C_3  and  C_4
REMARK    2  A    between atoms: C_6  and  O_14
REMARK    3  A    between atoms: O_14  and  C_15
REMARK    4  A    between atoms: C_15  and  C_16
REMARK    5  A    between atoms: C_16  and  C_17
REMARK                            x       y       z     vdW  Elec       q    Type
REMARK                         _______ _______ _______ _____ _____    ______ ____
ROOT
ATOM      1  C   UNL A   1     -24.245   1.281  26.412  0.00  0.00    +0.003 A 
ATOM      2  C   UNL A   1     -24.237   0.933  27.795  0.00  0.00    +0.037 A 
ATOM      3  C   UNL A   1     -23.047   0.963  28.520  0.00  0.00    +0.139 A 
ATOM      4  C   UNL A   1     -21.912   1.495  27.872  0.00  0.00    +0.037 A 
ATOM      5  C   UNL A   1     -21.913   1.848  26.553  0.00  0.00    +0.003 A 
ATOM      6  C   UNL A   1     -23.137   1.787  25.787  0.00  0.00    +0.000 A 
ENDROOT
BRANCH   1   9
ATOM      7  C   UNL A   1     -27.224   0.285  24.533  0.00  0.00    +0.007 A 
ATOM      8  C   UNL A   1     -26.134   0.195  25.050  0.00  0.00    +0.001 A 
ATOM      9  C   UNL A   1     -25.577   1.264  25.743  0.00  0.00    +0.000 A 
ATOM     10  C   UNL A   1     -27.927   1.555  24.400  0.00  0.00    +0.035 A 
ATOM     11  C   UNL A   1     -27.512   2.644  25.141  0.00  0.00    +0.007 A 
ATOM     12  C   UNL A   1     -26.272   2.541  25.790  0.00  0.00    +0.001 A 
ATOM     13 BR   UNL A   1     -29.469   1.553  23.371  0.00  0.00    -0.049 Br
ENDBRANCH   1   9
BRANCH   3  14
ATOM     14  O   UNL A   1     -23.034   0.638  29.789  0.00  0.00    -0.475 OA
BRANCH  14  15
ATOM     15  C   UNL A   1     -22.917  -0.805  30.058  0.00  0.00    +0.210 C 
BRANCH  15  16
ATOM     16  C   UNL A   1     -23.153  -1.736  29.082  0.00  0.00    +0.074 C 
BRANCH  16  17
ATOM     17  C   UNL A   1     -24.122  -2.594  29.180  0.00  0.00    -0.018 A 
ATOM     18  C   UNL A   1     -25.348  -2.297  29.779  0.00  0.00    -0.004 A 
ATOM     19  C   UNL A   1     -26.404  -3.263  30.015  0.00  0.00    -0.000 A 
ATOM     20  C   UNL A   1     -26.118  -4.586  29.587  0.00  0.00    -0.000 A 
ATOM     21  C   UNL A   1     -24.925  -4.892  28.973  0.00  0.00    -0.000 A 
ATOM     22  C   UNL A   1     -23.950  -3.925  28.828  0.00  0.00    -0.004 A 
ENDBRANCH  16  17
ENDBRANCH  15  16
ENDBRANCH  14  15
ENDBRANCH   3  14
TORSDOF 5
ENDMDL
ENDMDL
