MODEL 1053
MODEL 1
REMARK VINA RESULT:    -7.163      0.000      0.000
REMARK INTER + INTRA:         -10.198
REMARK INTER:                  -8.839
REMARK INTRA:                  -1.360
REMARK UNBOUND:                -1.360
REMARK  Name = No_1053-gen_results/8p0m/2024-11-26-14-13-15/
REMARK  4 active torsions:
REMARK  status: ('A' for Active; 'I' for Inactive)
REMARK    1  A    between atoms: C_2  and  C_3
REMARK    2  A    between atoms: C_5  and  C_11
REMARK    3  A    between atoms: C_6  and  C_10
REMARK    4  A    between atoms: C_17  and  C_19
REMARK                            x       y       z     vdW  Elec       q    Type
REMARK                         _______ _______ _______ _____ _____    ______ ____
ROOT
ATOM      1  C   UNL A   1     -24.784  -0.318  28.877  0.00  0.00    +0.068 A 
ATOM      2  C   UNL A   1     -24.269  -1.462  29.560  0.00  0.00    +0.005 A 
ATOM      3  C   UNL A   1     -24.385   0.965  29.398  0.00  0.00    +0.001 A 
ATOM      4  C   UNL A   1     -23.563  -1.289  30.806  0.00  0.00    +0.000 A 
ATOM      5  C   UNL A   1     -23.555   1.111  30.560  0.00  0.00    -0.000 A 
ATOM      6  C   UNL A   1     -23.155  -0.046  31.223  0.00  0.00    -0.000 A 
ENDROOT
BRANCH   2   7
ATOM      7  C   UNL A   1     -24.738  -2.774  29.233  0.00  0.00    +0.000 A 
ATOM      8  C   UNL A   1     -23.950  -3.719  28.625  0.00  0.00    +0.000 A 
ATOM      9  C   UNL A   1     -24.327  -5.061  28.599  0.00  0.00    +0.000 A 
ATOM     10  C   UNL A   1     -25.207  -5.407  29.172  0.00  0.00    +0.000 A 
ATOM     11  C   UNL A   1     -25.985  -3.220  29.745  0.00  0.00    +0.000 A 
ATOM     12  C   UNL A   1     -26.255  -4.572  29.744  0.00  0.00    +0.000 A 
ENDBRANCH   2   7
BRANCH   1  14
ATOM     13  O   UNL A   1     -26.676  -0.350  27.731  0.00  0.00    -0.254 OA
ATOM     14  C   UNL A   1     -25.529  -0.462  27.724  0.00  0.00    +0.333 C 
ATOM     15  F   UNL A   1     -24.863  -0.612  26.519  0.00  0.00    -0.159 F 
ENDBRANCH   1  14
BRANCH   3  16
ATOM     16  C   UNL A   1     -24.807   2.180  28.716  0.00  0.00    -0.022 C 
ATOM     17  C   UNL A   1     -24.332   2.729  27.860  0.00  0.00    -0.003 C 
ATOM     18  C   UNL A   1     -25.892   2.843  29.443  0.00  0.00    +0.031 C 
BRANCH  17  19
ATOM     19  C   UNL A   1     -23.091   2.437  27.081  0.00  0.00    +0.019 C 
ATOM     20  C   UNL A   1     -23.319   2.223  25.648  0.00  0.00    +0.106 C 
ATOM     21  N   UNL A   1     -22.373   2.498  24.848  0.00  0.00    -0.127 NA
ENDBRANCH  17  19
ENDBRANCH   3  16
TORSDOF 4
ENDMDL
ENDMDL
