REMARK  Name = No_1053-gen_results/8p0m/2024-11-26-14-13-15/
REMARK  4 active torsions:
REMARK  status: ('A' for Active; 'I' for Inactive)
REMARK    1  A    between atoms: C_2  and  C_3
REMARK    2  A    between atoms: C_5  and  C_11
REMARK    3  A    between atoms: C_6  and  C_10
REMARK    4  A    between atoms: C_17  and  C_19
REMARK                            x       y       z     vdW  Elec       q    Type
REMARK                         _______ _______ _______ _____ _____    ______ ____
ROOT
ATOM      1  C   UNL A   1     -26.380  -0.087  27.939  0.00  0.00    +0.068 A 
ATOM      2  C   UNL A   1     -26.506   0.776  26.808  0.00  0.00    +0.005 A 
ATOM      3  C   UNL A   1     -25.042  -0.500  28.277  0.00  0.00    +0.001 A 
ATOM      4  C   UNL A   1     -25.357   1.026  25.973  0.00  0.00    +0.000 A 
ATOM      5  C   UNL A   1     -23.890  -0.115  27.511  0.00  0.00    -0.000 A 
ATOM      6  C   UNL A   1     -24.095   0.662  26.375  0.00  0.00    -0.000 A 
ENDROOT
BRANCH   2   7
ATOM      7  C   UNL A   1     -27.797   1.105  26.286  0.00  0.00    +0.000 A 
ATOM      8  C   UNL A   1     -28.266   0.621  25.091  0.00  0.00    +0.000 A 
ATOM      9  C   UNL A   1     -29.618   0.706  24.761  0.00  0.00    +0.000 A 
ATOM     10  C   UNL A   1     -30.356   1.056  25.506  0.00  0.00    +0.000 A 
ATOM     11  C   UNL A   1     -28.738   1.771  27.115  0.00  0.00    +0.000 A 
ATOM     12  C   UNL A   1     -30.068   1.753  26.753  0.00  0.00    +0.000 A 
ENDBRANCH   2   7
BRANCH   1  14
ATOM     13  O   UNL A   1     -28.123  -1.335  28.487  0.00  0.00    -0.254 OA
ATOM     14  C   UNL A   1     -27.481  -0.404  28.709  0.00  0.00    +0.333 C 
ATOM     15  F   UNL A   1     -27.731   0.345  29.848  0.00  0.00    -0.159 F 
ENDBRANCH   1  14
BRANCH   3  16
ATOM     16  C   UNL A   1     -24.820  -1.321  29.459  0.00  0.00    -0.022 C 
ATOM     17  C   UNL A   1     -24.804  -1.034  30.544  0.00  0.00    -0.003 C 
ATOM     18  C   UNL A   1     -24.341  -2.655  29.091  0.00  0.00    +0.031 C 
BRANCH  17  19
ATOM     19  C   UNL A   1     -25.005   0.289  31.207  0.00  0.00    +0.019 C 
ATOM     20  C   UNL A   1     -23.978   1.285  30.882  0.00  0.00    +0.106 C 
ATOM     21  N   UNL A   1     -24.304   2.511  30.925  0.00  0.00    -0.127 NA
ENDBRANCH  17  19
ENDBRANCH   3  16
TORSDOF 4
