MODEL 1054
MODEL 1
REMARK VINA RESULT:    -5.474      0.000      0.000
REMARK INTER + INTRA:          -6.361
REMARK INTER:                  -6.114
REMARK INTRA:                  -0.247
REMARK UNBOUND:                -0.247
REMARK  Name = No_1054-gen_results/8p0m/2024-11-26-14-13-15/
REMARK  2 active torsions:
REMARK  status: ('A' for Active; 'I' for Inactive)
REMARK    1  A    between atoms: C_3  and  C_4
REMARK    2  A    between atoms: C_4  and  C_8
REMARK                            x       y       z     vdW  Elec       q    Type
REMARK                         _______ _______ _______ _____ _____    ______ ____
ROOT
ATOM      1  C   UNL A   1     -26.369  -3.470  29.920  0.00  0.00    -0.000 A 
ATOM      2  C   UNL A   1     -25.491  -2.649  29.793  0.00  0.00    -0.004 A 
ATOM      3  C   UNL A   1     -24.283  -2.976  29.186  0.00  0.00    -0.018 A 
ATOM      4  C   UNL A   1     -26.095  -4.884  29.654  0.00  0.00    -0.000 A 
ATOM      5  C   UNL A   1     -24.974  -5.284  28.969  0.00  0.00    -0.000 A 
ATOM      6  C   UNL A   1     -23.999  -4.315  28.721  0.00  0.00    -0.004 A 
ENDROOT
BRANCH   3   7
ATOM      7  C   UNL A   1     -23.251  -2.033  28.947  0.00  0.00    +0.052 C 
BRANCH   7   8
ATOM      8  C   UNL A   1     -23.438  -0.691  28.944  0.00  0.00    -0.026 C 
ATOM      9  C   UNL A   1     -22.348   0.209  28.819  0.00  0.00    -0.030 C 
ATOM     10  C   UNL A   1     -21.045  -0.211  28.641  0.00  0.00    +0.030 C 
ENDBRANCH   7   8
ENDBRANCH   3   7
TORSDOF 2
ENDMDL
ENDMDL
