MODEL 1055
MODEL 1
REMARK VINA RESULT:    -7.395      0.000      0.000
REMARK INTER + INTRA:         -12.006
REMARK INTER:                  -9.556
REMARK INTRA:                  -2.450
REMARK UNBOUND:                -2.450
REMARK  Name = No_1055-gen_results/8p0m/2024-11-26-14-13-15/
REMARK  5 active torsions:
REMARK  status: ('A' for Active; 'I' for Inactive)
REMARK    1  A    between atoms: C_3  and  O_7
REMARK    2  A    between atoms: C_6  and  C_20
REMARK    3  A    between atoms: O_7  and  C_8
REMARK    4  A    between atoms: C_10  and  C_11
REMARK    5  A    between atoms: N_25  and  C_26
REMARK                            x       y       z     vdW  Elec       q    Type
REMARK                         _______ _______ _______ _____ _____    ______ ____
ROOT
ATOM      1  C   UNL A   1     -11.584  -1.275  40.107  0.00  0.00    +0.145 A 
ATOM      2  C   UNL A   1     -10.711  -0.321  39.546  0.00  0.00    +0.039 A 
ATOM      3  C   UNL A   1     -10.529  -0.320  38.149  0.00  0.00    +0.021 A 
ATOM      4  C   UNL A   1     -11.095  -1.534  37.528  0.00  0.00    +0.002 A 
ATOM      5  C   UNL A   1     -11.845  -2.466  38.200  0.00  0.00    +0.003 A 
ATOM      6  C   UNL A   1     -12.109  -2.300  39.537  0.00  0.00    +0.037 A 
ENDROOT
BRANCH   3   7
ATOM      7  C   UNL A   1      -9.961   0.741  37.431  0.00  0.00    +0.083 A 
ATOM      8  C   UNL A   1      -9.489   0.420  36.093  0.00  0.00    +0.019 A 
ATOM      9  C   UNL A   1     -10.142   0.648  35.246  0.00  0.00    +0.004 A 
ATOM     10  C   UNL A   1     -11.094   1.960  35.334  0.00  0.00    +0.036 A 
ATOM     11  C   UNL A   1     -11.507   2.401  36.644  0.00  0.00    +0.152 A 
ATOM     12  N   UNL A   1     -10.761   1.774  37.597  0.00  0.00    -0.229 NA
ATOM     13  N   UNL A   1     -12.263   3.377  36.805  0.00  0.00    -0.192 NA
BRANCH  13  14
ATOM     14  C   UNL A   1     -13.573   3.280  37.319  0.00  0.00    +0.100 A 
ATOM     15  C   UNL A   1     -13.656   3.246  38.654  0.00  0.00    +0.020 A 
ATOM     16  C   UNL A   1     -15.029   3.274  39.251  0.00  0.00    +0.013 A 
ATOM     17  C   UNL A   1     -16.119   3.391  38.325  0.00  0.00    +0.060 A 
ATOM     18  C   UNL A   1     -15.960   3.282  36.997  0.00  0.00    +0.042 A 
ATOM     19  C   UNL A   1     -14.634   3.330  36.466  0.00  0.00    +0.156 A 
ATOM     20 CL   UNL A   1     -17.715   3.377  39.062  0.00  0.00    -0.082 Cl
ATOM     21  F   UNL A   1     -14.502   3.302  35.191  0.00  0.00    -0.203 F 
ENDBRANCH  13  14
ENDBRANCH   3   7
BRANCH   1  22
ATOM     22  O   UNL A   1     -11.772  -1.008  41.479  0.00  0.00    -0.454 OA
BRANCH  22  25
ATOM     23  C   UNL A   1     -12.331   1.297  41.994  0.00  0.00    +0.038 A 
ATOM     24  C   UNL A   1     -13.085   2.013  42.164  0.00  0.00    +0.015 A 
ATOM     25  C   UNL A   1     -12.773  -0.057  41.813  0.00  0.00    +0.145 A 
ATOM     26  C   UNL A   1     -14.037  -0.443  42.008  0.00  0.00    +0.043 A 
ATOM     27  C   UNL A   1     -14.504   1.821  42.428  0.00  0.00    +0.062 A 
ATOM     28  C   UNL A   1     -14.924   0.572  42.287  0.00  0.00    +0.069 A 
ATOM     29 CL   UNL A   1     -15.616   3.084  42.847  0.00  0.00    -0.082 Cl
BRANCH  28  30
ATOM     30  C   UNL A   1     -16.368   0.179  42.516  0.00  0.00    +0.273 C 
ATOM     31  N   UNL A   1     -16.730  -0.215  43.585  0.00  0.00    -0.131 NA
ATOM     32  C   UNL A   1     -17.442   0.040  44.454  0.00  0.00    +0.306 C 
ATOM     33 BR   UNL A   1     -18.686   1.405  44.223  0.00  0.00    +0.017 Br
ATOM     34  O   UNL A   1     -17.399  -0.302  45.658  0.00  0.00    -0.260 OA
ATOM     35  O   UNL A   1     -17.158   0.390  41.572  0.00  0.00    -0.268 OA
ENDBRANCH  28  30
ENDBRANCH  22  25
ENDBRANCH   1  22
TORSDOF 5
ENDMDL
ENDMDL
