REMARK  Name = No_1055-gen_results/8p0m/2024-11-26-14-13-15/
REMARK  5 active torsions:
REMARK  status: ('A' for Active; 'I' for Inactive)
REMARK    1  A    between atoms: C_3  and  O_7
REMARK    2  A    between atoms: C_6  and  C_20
REMARK    3  A    between atoms: O_7  and  C_8
REMARK    4  A    between atoms: C_10  and  C_11
REMARK    5  A    between atoms: N_25  and  C_26
REMARK                            x       y       z     vdW  Elec       q    Type
REMARK                         _______ _______ _______ _____ _____    ______ ____
ROOT
ATOM      1  C   UNL A   1     -26.498   1.339  26.660  0.00  0.00    +0.145 A 
ATOM      2  C   UNL A   1     -25.229   0.728  26.610  0.00  0.00    +0.039 A 
ATOM      3  C   UNL A   1     -24.088   1.553  26.623  0.00  0.00    +0.021 A 
ATOM      4  C   UNL A   1     -24.441   2.970  26.406  0.00  0.00    +0.002 A 
ATOM      5  C   UNL A   1     -25.727   3.446  26.359  0.00  0.00    +0.003 A 
ATOM      6  C   UNL A   1     -26.784   2.584  26.519  0.00  0.00    +0.037 A 
ENDROOT
BRANCH   3   7
ATOM      7  C   UNL A   1     -22.791   1.098  26.897  0.00  0.00    +0.083 A 
ATOM      8  C   UNL A   1     -21.770   2.126  27.016  0.00  0.00    +0.019 A 
ATOM      9  C   UNL A   1     -21.492   2.466  28.018  0.00  0.00    +0.004 A 
ATOM     10  C   UNL A   1     -21.518   1.390  29.234  0.00  0.00    +0.036 A 
ATOM     11  C   UNL A   1     -22.431   0.278  29.125  0.00  0.00    +0.152 A 
ATOM     12  N   UNL A   1     -22.905   0.196  27.850  0.00  0.00    -0.229 NA
ATOM     13  N   UNL A   1     -22.542  -0.576  30.024  0.00  0.00    -0.192 NA
BRANCH  13  14
ATOM     14  C   UNL A   1     -23.705  -0.751  30.802  0.00  0.00    +0.100 A 
ATOM     15  C   UNL A   1     -23.653  -0.216  32.027  0.00  0.00    +0.020 A 
ATOM     16  C   UNL A   1     -24.907  -0.262  32.843  0.00  0.00    +0.013 A 
ATOM     17  C   UNL A   1     -26.059  -0.829  32.202  0.00  0.00    +0.060 A 
ATOM     18  C   UNL A   1     -25.994  -1.467  31.023  0.00  0.00    +0.042 A 
ATOM     19  C   UNL A   1     -24.802  -1.338  30.246  0.00  0.00    +0.156 A 
ATOM     20 CL   UNL A   1     -27.499  -0.904  33.207  0.00  0.00    -0.082 Cl
ATOM     21  F   UNL A   1     -24.783  -1.889  29.088  0.00  0.00    -0.203 F 
ENDBRANCH  13  14
ENDBRANCH   3   7
BRANCH   1  22
ATOM     22  O   UNL A   1     -27.500   0.358  26.816  0.00  0.00    -0.454 OA
BRANCH  22  25
ATOM     23  C   UNL A   1     -28.016  -0.814  28.878  0.00  0.00    +0.038 A 
ATOM     24  C   UNL A   1     -28.469  -0.785  29.829  0.00  0.00    +0.015 A 
ATOM     25  C   UNL A   1     -28.196   0.348  28.055  0.00  0.00    +0.145 A 
ATOM     26  C   UNL A   1     -29.019   1.350  28.378  0.00  0.00    +0.043 A 
ATOM     27  C   UNL A   1     -29.411   0.180  30.378  0.00  0.00    +0.062 A 
ATOM     28  C   UNL A   1     -29.606   1.250  29.619  0.00  0.00    +0.069 A 
ATOM     29 CL   UNL A   1     -30.207   0.030  31.911  0.00  0.00    -0.082 Cl
BRANCH  28  30
ATOM     30  C   UNL A   1     -30.547   2.364  30.026  0.00  0.00    +0.273 C 
ATOM     31  N   UNL A   1     -30.399   2.936  31.065  0.00  0.00    -0.131 NA
ATOM     32  C   UNL A   1     -30.174   3.977  31.505  0.00  0.00    +0.306 C 
ATOM     33 BR   UNL A   1     -30.198   5.454  30.373  0.00  0.00    +0.017 Br
ATOM     34  O   UNL A   1     -29.687   4.295  32.614  0.00  0.00    -0.260 OA
ATOM     35  O   UNL A   1     -31.398   2.710  29.180  0.00  0.00    -0.268 OA
ENDBRANCH  28  30
ENDBRANCH  22  25
ENDBRANCH   1  22
TORSDOF 5
