MODEL 1056
MODEL 1
REMARK VINA RESULT:    -5.077      0.000      0.000
REMARK INTER + INTRA:          -6.877
REMARK INTER:                  -6.561
REMARK INTRA:                  -0.316
REMARK UNBOUND:                -0.316
REMARK  Name = No_1056-gen_results/8p0m/2024-11-26-14-13-15/
REMARK  5 active torsions:
REMARK  status: ('A' for Active; 'I' for Inactive)
REMARK    1  A    between atoms: C_5  and  C_8
REMARK    2  A    between atoms: C_7  and  O_11
REMARK    3  A    between atoms: O_11  and  C_12
REMARK    4  A    between atoms: C_12  and  C_13
REMARK    5  A    between atoms: C_13  and  C_14
REMARK                            x       y       z     vdW  Elec       q    Type
REMARK                         _______ _______ _______ _____ _____    ______ ____
ROOT
ATOM      1 CL   UNL A   1     -23.796  -5.067  28.258  0.00  0.00    -0.079 Cl
ATOM      2  C   UNL A   1     -24.691  -4.309  29.097  0.00  0.00    +0.091 A 
ATOM      3  C   UNL A   1     -25.937  -4.807  29.450  0.00  0.00    +0.015 A 
ATOM      4  C   UNL A   1     -26.957  -4.025  30.038  0.00  0.00    +0.008 A 
ATOM      5  C   UNL A   1     -26.745  -2.695  30.330  0.00  0.00    +0.083 A 
ATOM      6  C   UNL A   1     -25.537  -2.159  29.964  0.00  0.00    +0.044 A 
ATOM      7  C   UNL A   1     -24.607  -2.889  29.343  0.00  0.00    +0.149 A 
ENDROOT
BRANCH   5   8
ATOM      8  C   UNL A   1     -27.823  -1.963  30.977  0.00  0.00    +0.388 C 
ATOM      9  O   UNL A   1     -28.070  -1.531  31.914  0.00  0.00    -0.241 OA
ATOM     10  O   UNL A   1     -28.915  -1.917  29.968  0.00  0.00    -0.241 OA
ENDBRANCH   5   8
BRANCH   7  11
ATOM     11  O   UNL A   1     -23.420  -2.300  28.936  0.00  0.00    -0.474 OA
BRANCH  11  12
ATOM     12  C   UNL A   1     -23.009  -1.182  29.531  0.00  0.00    +0.212 C 
BRANCH  12  13
ATOM     13  C   UNL A   1     -22.060  -0.468  29.070  0.00  0.00    +0.096 C 
BRANCH  13  14
ATOM     14  C   UNL A   1     -22.393   0.594  28.324  0.00  0.00    +0.100 C 
ATOM     15  N   UNL A   1     -23.482   0.602  27.445  0.00  0.00    -0.151 NA
ENDBRANCH  13  14
ENDBRANCH  12  13
ENDBRANCH  11  12
ENDBRANCH   7  11
TORSDOF 5
ENDMDL
ENDMDL
