REMARK  Name = No_1056-gen_results/8p0m/2024-11-26-14-13-15/
REMARK  5 active torsions:
REMARK  status: ('A' for Active; 'I' for Inactive)
REMARK    1  A    between atoms: C_5  and  C_8
REMARK    2  A    between atoms: C_7  and  O_11
REMARK    3  A    between atoms: O_11  and  C_12
REMARK    4  A    between atoms: C_12  and  C_13
REMARK    5  A    between atoms: C_13  and  C_14
REMARK                            x       y       z     vdW  Elec       q    Type
REMARK                         _______ _______ _______ _____ _____    ______ ____
ROOT
ATOM      1 CL   UNL A   1     -28.149  -0.820  28.908  0.00  0.00    -0.079 Cl
ATOM      2  C   UNL A   1     -26.912  -0.080  28.945  0.00  0.00    +0.091 A 
ATOM      3  C   UNL A   1     -26.049  -0.072  27.859  0.00  0.00    +0.015 A 
ATOM      4  C   UNL A   1     -24.719   0.403  27.917  0.00  0.00    +0.008 A 
ATOM      5  C   UNL A   1     -24.210   0.930  29.084  0.00  0.00    +0.083 A 
ATOM      6  C   UNL A   1     -25.023   0.908  30.188  0.00  0.00    +0.044 A 
ATOM      7  C   UNL A   1     -26.253   0.390  30.140  0.00  0.00    +0.149 A 
ENDROOT
BRANCH   5   8
ATOM      8  C   UNL A   1     -22.848   1.443  29.058  0.00  0.00    +0.388 C 
ATOM      9  O   UNL A   1     -21.919   1.270  28.577  0.00  0.00    -0.241 OA
ATOM     10  O   UNL A   1     -22.809   2.480  30.124  0.00  0.00    -0.241 OA
ENDBRANCH   5   8
BRANCH   7  11
ATOM     11  O   UNL A   1     -27.026   0.331  31.289  0.00  0.00    -0.474 OA
BRANCH  11  12
ATOM     12  C   UNL A   1     -27.119   1.407  32.069  0.00  0.00    +0.212 C 
BRANCH  12  13
ATOM     13  C   UNL A   1     -27.299   2.578  31.603  0.00  0.00    +0.096 C 
BRANCH  13  14
ATOM     14  C   UNL A   1     -26.739   3.599  32.265  0.00  0.00    +0.100 C 
ATOM     15  N   UNL A   1     -26.615   4.886  31.727  0.00  0.00    -0.151 NA
ENDBRANCH  13  14
ENDBRANCH  12  13
ENDBRANCH  11  12
ENDBRANCH   7  11
TORSDOF 5
