MODEL 1057
MODEL 1
REMARK VINA RESULT:    -7.330      0.000      0.000
REMARK INTER + INTRA:         -13.209
REMARK INTER:                 -11.186
REMARK INTRA:                  -2.023
REMARK UNBOUND:                -2.023
REMARK  Name = No_1057-gen_results/8p0m/2024-11-26-14-13-15/
REMARK  9 active torsions:
REMARK  status: ('A' for Active; 'I' for Inactive)
REMARK    1  A    between atoms: C_3  and  C_8
REMARK    2  A    between atoms: C_5  and  O_7
REMARK    3  A    between atoms: C_6  and  C_26
REMARK    4  A    between atoms: O_7  and  C_13
REMARK    5  A    between atoms: C_14  and  O_19
REMARK    6  A    between atoms: O_19  and  C_29
REMARK    7  A    between atoms: C_22  and  C_34
REMARK    8  A    between atoms: C_29  and  C_30
REMARK    9  A    between atoms: C_30  and  C_31
REMARK                            x       y       z     vdW  Elec       q    Type
REMARK                         _______ _______ _______ _____ _____    ______ ____
ROOT
ATOM      1  C   UNL A   1     -24.945   1.189  26.819  0.00  0.00    +0.161 C 
ATOM      2  C   UNL A   1     -23.984   2.137  27.207  0.00  0.00    +0.169 C 
ATOM      3  C   UNL A   1     -22.599   1.693  27.230  0.00  0.00    +0.035 C 
ATOM      4  C   UNL A   1     -22.046   1.465  28.075  0.00  0.00    -0.018 C 
ATOM      5  C   UNL A   1     -22.802   1.122  29.347  0.00  0.00    +0.052 C 
ATOM      6  C   UNL A   1     -23.613  -0.042  29.269  0.00  0.00    -0.021 A 
ATOM      7  C   UNL A   1     -23.448  -1.021  30.373  0.00  0.00    -0.004 A 
ATOM      8  C   UNL A   1     -24.151  -2.235  30.344  0.00  0.00    -0.000 A 
ATOM      9  C   UNL A   1     -24.871  -2.694  29.174  0.00  0.00    -0.000 A 
ATOM     10  C   UNL A   1     -24.791  -1.820  28.001  0.00  0.00    -0.004 A 
ATOM     11  C   UNL A   1     -24.168  -0.629  28.102  0.00  0.00    -0.018 A 
ATOM     12  C   UNL A   1     -24.477   0.180  26.908  0.00  0.00    +0.094 C 
ENDROOT
BRANCH   9  13
ATOM     13  C   UNL A   1     -25.767  -3.721  29.436  0.00  0.00    -0.000 C 
ATOM     14  C   UNL A   1     -25.347  -5.077  29.291  0.00  0.00    -0.000 C 
ENDBRANCH   9  13
BRANCH   1  15
ATOM     15  O   UNL A   1     -26.173   1.445  27.248  0.00  0.00    -0.454 OA
BRANCH  15  20
ATOM     16  C   UNL A   1     -27.083   1.831  25.071  0.00  0.00    +0.038 A 
ATOM     17  C   UNL A   1     -28.062   1.861  24.362  0.00  0.00    +0.004 A 
ATOM     18  C   UNL A   1     -29.266   1.453  24.644  0.00  0.00    +0.014 A 
ATOM     19  C   UNL A   1     -29.498   0.884  25.934  0.00  0.00    +0.011 A 
ATOM     20  C   UNL A   1     -27.265   1.373  26.436  0.00  0.00    +0.151 A 
ATOM     21  C   UNL A   1     -28.464   0.920  26.802  0.00  0.00    +0.114 A 
BRANCH  18  22
ATOM     22  C   UNL A   1     -30.411   1.464  23.640  0.00  0.00    +0.054 C 
ATOM     23  N   UNL A   1     -31.016   0.710  23.158  0.00  0.00    -0.275 NA
ATOM     24  C   UNL A   1     -30.785   2.848  23.153  0.00  0.00    +0.047 C 
ATOM     25  C   UNL A   1     -31.898   2.614  22.323  0.00  0.00    +0.033 C 
ATOM     26  C   UNL A   1     -32.073   1.191  22.252  0.00  0.00    +0.126 C 
ENDBRANCH  18  22
BRANCH  21  27
ATOM     27  C   UNL A   1     -28.744   0.420  28.208  0.00  0.00    +0.391 C 
ATOM     28  O   UNL A   1     -28.468  -0.434  28.651  0.00  0.00    -0.240 OA
ATOM     29  O   UNL A   1     -29.140   1.551  28.976  0.00  0.00    -0.240 OA
ENDBRANCH  21  27
ENDBRANCH  15  20
ENDBRANCH   1  15
BRANCH   2  30
ATOM     30  O   UNL A   1     -24.264   3.325  27.305  0.00  0.00    -0.472 OA
BRANCH  30  31
ATOM     31  C   UNL A   1     -24.574   4.188  26.343  0.00  0.00    +0.215 C 
BRANCH  31  32
ATOM     32  C   UNL A   1     -25.402   5.215  26.720  0.00  0.00    +0.136 C 
BRANCH  32  33
ATOM     33  C   UNL A   1     -24.953   6.129  27.516  0.00  0.00    +0.265 C 
ATOM     34  O   UNL A   1     -24.375   6.982  27.206  0.00  0.00    -0.272 OA
ATOM     35  N   UNL A   1     -25.325   6.023  28.896  0.00  0.00    -0.088 NA
ENDBRANCH  32  33
ENDBRANCH  31  32
ENDBRANCH  30  31
ENDBRANCH   2  30
TORSDOF 9
ENDMDL
ENDMDL
