REMARK  Name = No_1057-gen_results/8p0m/2024-11-26-14-13-15/
REMARK  9 active torsions:
REMARK  status: ('A' for Active; 'I' for Inactive)
REMARK    1  A    between atoms: C_3  and  C_8
REMARK    2  A    between atoms: C_5  and  O_7
REMARK    3  A    between atoms: C_6  and  C_26
REMARK    4  A    between atoms: O_7  and  C_13
REMARK    5  A    between atoms: C_14  and  O_19
REMARK    6  A    between atoms: O_19  and  C_29
REMARK    7  A    between atoms: C_22  and  C_34
REMARK    8  A    between atoms: C_29  and  C_30
REMARK    9  A    between atoms: C_30  and  C_31
REMARK                            x       y       z     vdW  Elec       q    Type
REMARK                         _______ _______ _______ _____ _____    ______ ____
ROOT
ATOM      1  C   UNL A   1     -29.863  -2.129  30.857  0.00  0.00    +0.161 C 
ATOM      2  C   UNL A   1     -30.123  -3.354  30.221  0.00  0.00    +0.169 C 
ATOM      3  C   UNL A   1     -29.469  -4.530  30.774  0.00  0.00    +0.035 C 
ATOM      4  C   UNL A   1     -28.651  -5.020  30.371  0.00  0.00    -0.018 C 
ATOM      5  C   UNL A   1     -27.769  -4.249  29.403  0.00  0.00    +0.052 C 
ATOM      6  C   UNL A   1     -27.121  -3.112  29.956  0.00  0.00    -0.021 A 
ATOM      7  C   UNL A   1     -25.663  -3.008  29.698  0.00  0.00    -0.004 A 
ATOM      8  C   UNL A   1     -24.923  -1.960  30.265  0.00  0.00    -0.000 A 
ATOM      9  C   UNL A   1     -25.463  -1.084  31.284  0.00  0.00    -0.000 A 
ATOM     10  C   UNL A   1     -26.832  -1.383  31.713  0.00  0.00    -0.004 A 
ATOM     11  C   UNL A   1     -27.528  -2.352  31.084  0.00  0.00    -0.018 A 
ATOM     12  C   UNL A   1     -28.946  -2.261  31.478  0.00  0.00    +0.094 C 
ENDROOT
BRANCH   9  13
ATOM     13  C   UNL A   1     -24.726   0.077  31.472  0.00  0.00    -0.000 C 
ATOM     14  C   UNL A   1     -25.226   1.097  32.336  0.00  0.00    -0.000 C 
ENDBRANCH   9  13
BRANCH   1  15
ATOM     15  O   UNL A   1     -30.059  -1.063  30.095  0.00  0.00    -0.454 OA
BRANCH  15  20
ATOM     16  C   UNL A   1     -28.016  -0.814  28.878  0.00  0.00    +0.038 A 
ATOM     17  C   UNL A   1     -27.064  -0.119  28.608  0.00  0.00    +0.004 A 
ATOM     18  C   UNL A   1     -26.876   1.133  28.913  0.00  0.00    +0.014 A 
ATOM     19  C   UNL A   1     -27.901   1.807  29.644  0.00  0.00    +0.011 A 
ATOM     20  C   UNL A   1     -29.046  -0.232  29.718  0.00  0.00    +0.151 A 
ATOM     21  C   UNL A   1     -28.940   1.052  30.060  0.00  0.00    +0.114 A 
BRANCH  18  22
ATOM     22  C   UNL A   1     -25.668   1.936  28.448  0.00  0.00    +0.054 C 
ATOM     23  N   UNL A   1     -24.974   2.617  28.916  0.00  0.00    -0.275 NA
ATOM     24  C   UNL A   1     -25.371   1.794  26.970  0.00  0.00    +0.047 C 
ATOM     25  C   UNL A   1     -24.188   2.538  26.800  0.00  0.00    +0.033 C 
ATOM     26  C   UNL A   1     -23.897   3.152  28.065  0.00  0.00    +0.126 C 
ENDBRANCH  18  22
BRANCH  21  27
ATOM     27  C   UNL A   1     -29.972   1.743  30.934  0.00  0.00    +0.391 C 
ATOM     28  O   UNL A   1     -29.908   2.603  31.442  0.00  0.00    -0.240 OA
ATOM     29  O   UNL A   1     -31.235   1.175  30.607  0.00  0.00    -0.240 OA
ENDBRANCH  21  27
ENDBRANCH  15  20
ENDBRANCH   1  15
BRANCH   2  30
ATOM     30  O   UNL A   1     -31.017  -3.465  29.392  0.00  0.00    -0.472 OA
BRANCH  30  31
ATOM     31  C   UNL A   1     -31.683  -4.556  29.029  0.00  0.00    +0.215 C 
BRANCH  31  32
ATOM     32  C   UNL A   1     -32.114  -4.574  27.726  0.00  0.00    +0.136 C 
BRANCH  32  33
ATOM     33  C   UNL A   1     -32.191  -3.463  27.070  0.00  0.00    +0.265 C 
ATOM     34  O   UNL A   1     -31.937  -2.497  27.470  0.00  0.00    -0.272 OA
ATOM     35  N   UNL A   1     -32.571  -3.552  25.691  0.00  0.00    -0.088 NA
ENDBRANCH  32  33
ENDBRANCH  31  32
ENDBRANCH  30  31
ENDBRANCH   2  30
TORSDOF 9
