MODEL 1058
MODEL 1
REMARK VINA RESULT:    -8.822      0.000      0.000
REMARK INTER + INTRA:         -11.707
REMARK INTER:                 -10.885
REMARK INTRA:                  -0.822
REMARK UNBOUND:                -0.822
REMARK  Name = No_1058-gen_results/8p0m/2024-11-26-14-13-15/
REMARK  4 active torsions:
REMARK  status: ('A' for Active; 'I' for Inactive)
REMARK    1  A    between atoms: C_3  and  C_4
REMARK    2  A    between atoms: C_6  and  C_13
REMARK    3  A    between atoms: C_20  and  C_23
REMARK    4  A    between atoms: C_20  and  C_24
REMARK                            x       y       z     vdW  Elec       q    Type
REMARK                         _______ _______ _______ _____ _____    ______ ____
ROOT
ATOM      1  C   UNL A   1     -23.793   1.480  26.234  0.00  0.00    +0.253 C 
ATOM      2  O   UNL A   1     -22.997   2.333  25.877  0.00  0.00    -0.270 OA
ATOM      3  N   UNL A   1     -23.477   0.660  27.251  0.00  0.00    -0.254 N 
ATOM      4  C   UNL A   1     -22.174   0.744  27.893  0.00  0.00    +0.099 C 
ATOM      5  C   UNL A   1     -24.397  -0.295  27.829  0.00  0.00    +0.064 C 
ATOM      6  C   UNL A   1     -24.711   0.022  29.240  0.00  0.00    -0.003 C 
ATOM      7  C   UNL A   1     -23.781  -0.586  30.056  0.00  0.00    +0.057 C 
ATOM      8  C   UNL A   1     -22.407   0.016  30.110  0.00  0.00    +0.014 C 
ATOM      9  C   UNL A   1     -21.651  -0.093  28.968  0.00  0.00    +0.023 C 
ENDROOT
BRANCH   1  13
ATOM     10  C   UNL A   1     -25.539   0.153  24.843  0.00  0.00    +0.004 A 
ATOM     11  C   UNL A   1     -26.668   0.047  24.422  0.00  0.00    +0.000 A 
ATOM     12  C   UNL A   1     -27.566   1.105  24.501  0.00  0.00    +0.000 A 
ATOM     13  C   UNL A   1     -25.150   1.343  25.618  0.00  0.00    +0.054 A 
ATOM     14  C   UNL A   1     -25.951   2.457  25.678  0.00  0.00    +0.004 A 
ATOM     15  C   UNL A   1     -27.252   2.388  25.153  0.00  0.00    +0.000 A 
BRANCH  12  16
ATOM     16  C   UNL A   1     -28.981   1.095  24.030  0.00  0.00    +0.002 A 
ATOM     17  C   UNL A   1     -29.674   2.213  23.448  0.00  0.00    +0.000 A 
ATOM     18  C   UNL A   1     -30.960   2.034  22.988  0.00  0.00    +0.002 A 
ATOM     19  C   UNL A   1     -31.634   0.868  22.835  0.00  0.00    +0.030 A 
ATOM     20  C   UNL A   1     -29.694  -0.165  23.883  0.00  0.00    +0.030 A 
ATOM     21  C   UNL A   1     -30.979  -0.234  23.316  0.00  0.00    +0.140 A 
ATOM     22  F   UNL A   1     -31.538  -1.449  23.254  0.00  0.00    -0.204 F 
ENDBRANCH  12  16
ENDBRANCH   1  13
BRANCH   7  23
ATOM     23  C   UNL A   1     -24.478  -0.578  31.504  0.00  0.00    -0.015 A 
ATOM     24  C   UNL A   1     -25.644  -0.171  31.652  0.00  0.00    -0.004 A 
ATOM     25  C   UNL A   1     -23.671  -1.026  32.579  0.00  0.00    -0.004 A 
ATOM     26  C   UNL A   1     -24.306  -0.990  33.876  0.00  0.00    -0.000 A 
ATOM     27  C   UNL A   1     -26.315  -0.084  32.923  0.00  0.00    -0.000 A 
ATOM     28  C   UNL A   1     -25.583  -0.510  34.029  0.00  0.00    -0.000 A 
ENDBRANCH   7  23
BRANCH   7  29
ATOM     29  C   UNL A   1     -23.649  -2.068  29.729  0.00  0.00    -0.019 C 
ATOM     30  C   UNL A   1     -24.575  -2.890  29.740  0.00  0.00    -0.004 C 
ENDBRANCH   7  29
TORSDOF 4
ENDMDL
ENDMDL
