REMARK  Name = No_1058-gen_results/8p0m/2024-11-26-14-13-15/
REMARK  4 active torsions:
REMARK  status: ('A' for Active; 'I' for Inactive)
REMARK    1  A    between atoms: C_3  and  C_4
REMARK    2  A    between atoms: C_6  and  C_13
REMARK    3  A    between atoms: C_20  and  C_23
REMARK    4  A    between atoms: C_20  and  C_24
REMARK                            x       y       z     vdW  Elec       q    Type
REMARK                         _______ _______ _______ _____ _____    ______ ____
ROOT
ATOM      1  C   UNL A   1     -29.050  -2.728  30.296  0.00  0.00    +0.253 C 
ATOM      2  O   UNL A   1     -28.989  -3.943  30.392  0.00  0.00    -0.270 OA
ATOM      3  N   UNL A   1     -30.184  -2.091  30.636  0.00  0.00    -0.254 N 
ATOM      4  C   UNL A   1     -31.354  -2.840  31.065  0.00  0.00    +0.099 C 
ATOM      5  C   UNL A   1     -30.315  -0.651  30.677  0.00  0.00    +0.064 C 
ATOM      6  C   UNL A   1     -30.575  -0.157  32.048  0.00  0.00    -0.003 C 
ATOM      7  C   UNL A   1     -31.934  -0.151  32.274  0.00  0.00    +0.057 C 
ATOM      8  C   UNL A   1     -32.606  -1.474  32.503  0.00  0.00    +0.014 C 
ATOM      9  C   UNL A   1     -32.670  -2.318  31.421  0.00  0.00    +0.023 C 
ENDROOT
BRANCH   1  13
ATOM     10  C   UNL A   1     -28.016  -0.814  28.878  0.00  0.00    +0.004 A 
ATOM     11  C   UNL A   1     -27.064  -0.119  28.608  0.00  0.00    +0.000 A 
ATOM     12  C   UNL A   1     -25.792  -0.430  29.076  0.00  0.00    +0.000 A 
ATOM     13  C   UNL A   1     -27.882  -1.899  29.863  0.00  0.00    +0.054 A 
ATOM     14  C   UNL A   1     -26.653  -2.314  30.314  0.00  0.00    +0.004 A 
ATOM     15  C   UNL A   1     -25.515  -1.561  29.979  0.00  0.00    +0.000 A 
BRANCH  12  16
ATOM     16  C   UNL A   1     -24.546   0.349  28.823  0.00  0.00    +0.002 A 
ATOM     17  C   UNL A   1     -23.241   0.022  29.332  0.00  0.00    +0.000 A 
ATOM     18  C   UNL A   1     -22.165   0.794  28.952  0.00  0.00    +0.002 A 
ATOM     19  C   UNL A   1     -22.124   1.748  27.989  0.00  0.00    +0.030 A 
ATOM     20  C   UNL A   1     -24.523   1.378  27.795  0.00  0.00    +0.030 A 
ATOM     21  C   UNL A   1     -23.339   2.042  27.430  0.00  0.00    +0.140 A 
ATOM     22  F   UNL A   1     -23.451   2.984  26.484  0.00  0.00    -0.204 F 
ENDBRANCH  12  16
ENDBRANCH   1  13
BRANCH   7  23
ATOM     23  C   UNL A   1     -32.108   0.818  33.544  0.00  0.00    -0.015 A 
ATOM     24  C   UNL A   1     -31.465   0.624  34.591  0.00  0.00    -0.004 A 
ATOM     25  C   UNL A   1     -33.053   1.863  33.398  0.00  0.00    -0.004 A 
ATOM     26  C   UNL A   1     -33.213   2.709  34.558  0.00  0.00    -0.000 A 
ATOM     27  C   UNL A   1     -31.606   1.414  35.786  0.00  0.00    -0.000 A 
ATOM     28  C   UNL A   1     -32.518   2.465  35.717  0.00  0.00    -0.000 A 
ENDBRANCH   7  23
BRANCH   7  29
ATOM     29  C   UNL A   1     -32.673   0.581  31.161  0.00  0.00    -0.019 C 
ATOM     30  C   UNL A   1     -33.484   1.503  31.324  0.00  0.00    -0.004 C 
ENDBRANCH   7  29
TORSDOF 4
