REMARK  Name = No_1060-gen_results/8p0m/2024-11-26-14-13-15/
REMARK  1 active torsions:
REMARK  status: ('A' for Active; 'I' for Inactive)
REMARK    1  A    between atoms: C_5  and  C_12
REMARK                            x       y       z     vdW  Elec       q    Type
REMARK                         _______ _______ _______ _____ _____    ______ ____
ROOT
ATOM      1  C   UNL A   1     -28.016  -0.814  28.878  0.00  0.00    +0.101 C 
ATOM      2  C   UNL A   1     -27.064  -0.119  28.608  0.00  0.00    -0.010 A 
ATOM      3  C   UNL A   1     -27.001   0.691  27.491  0.00  0.00    -0.025 A 
ATOM      4  C   UNL A   1     -25.855   1.482  27.083  0.00  0.00    -0.003 A 
ATOM      5  C   UNL A   1     -24.690   1.453  27.881  0.00  0.00    +0.043 A 
ATOM      6  C   UNL A   1     -24.738   0.601  29.042  0.00  0.00    +0.001 A 
ATOM      7  C   UNL A   1     -25.823  -0.169  29.389  0.00  0.00    -0.003 A 
ATOM      8  N   UNL A   1     -29.215  -0.173  29.013  0.00  0.00    -0.241 NA
ATOM      9  C   UNL A   1     -29.720   0.547  28.324  0.00  0.00    +0.137 C 
ATOM     10  C   UNL A   1     -29.348   1.149  27.174  0.00  0.00    +0.039 C 
ATOM     11  C   UNL A   1     -28.317   1.044  26.599  0.00  0.00    +0.029 C 
ATOM     12  N   UNL A   1     -31.191   0.609  28.475  0.00  0.00    -0.171 NA
ATOM     13  C   UNL A   1     -31.787   0.205  29.554  0.00  0.00    +0.243 C 
ATOM     14  C   UNL A   1     -30.014  -0.815  30.117  0.00  0.00    +0.168 C 
ATOM     15  N   UNL A   1     -31.230  -0.554  30.367  0.00  0.00    -0.168 NA
ATOM     16  N   UNL A   1     -33.124   0.529  29.666  0.00  0.00    -0.094 NA
ENDROOT
BRANCH   5  17
ATOM     17  C   UNL A   1     -23.478   2.137  27.555  0.00  0.00    +0.341 C 
ATOM     18  F   UNL A   1     -23.506   2.828  26.641  0.00  0.00    -0.193 F 
ATOM     19  F   UNL A   1     -22.387   1.866  28.179  0.00  0.00    -0.193 F 
ENDBRANCH   5  17
TORSDOF 1
