MODEL 1060
MODEL 1
REMARK VINA RESULT:    -6.814      0.000      0.000
REMARK INTER + INTRA:          -7.339
REMARK INTER:                  -7.212
REMARK INTRA:                  -0.127
REMARK UNBOUND:                -0.127
REMARK  Name = No_1060-gen_results/8p0m/2024-11-26-14-13-15/
REMARK  1 active torsions:
REMARK  status: ('A' for Active; 'I' for Inactive)
REMARK    1  A    between atoms: C_5  and  C_12
REMARK                            x       y       z     vdW  Elec       q    Type
REMARK                         _______ _______ _______ _____ _____    ______ ____
ROOT
ATOM      1  C   UNL A   1     -25.347  -1.281  31.356  0.00  0.00    +0.101 C 
ATOM      2  C   UNL A   1     -24.490  -0.869  30.609  0.00  0.00    -0.010 A 
ATOM      3  C   UNL A   1     -23.770  -1.678  29.752  0.00  0.00    -0.025 A 
ATOM      4  C   UNL A   1     -22.682  -1.245  28.895  0.00  0.00    -0.003 A 
ATOM      5  C   UNL A   1     -22.309   0.117  28.905  0.00  0.00    +0.043 A 
ATOM      6  C   UNL A   1     -23.044   0.969  29.805  0.00  0.00    +0.001 A 
ATOM      7  C   UNL A   1     -24.047   0.529  30.636  0.00  0.00    -0.003 A 
ATOM      8  N   UNL A   1     -26.386  -1.953  30.775  0.00  0.00    -0.241 NA
ATOM      9  C   UNL A   1     -26.369  -2.803  30.050  0.00  0.00    +0.137 C 
ATOM     10  C   UNL A   1     -25.379  -3.437  29.385  0.00  0.00    +0.039 C 
ATOM     11  C   UNL A   1     -24.217  -3.208  29.421  0.00  0.00    +0.029 C 
ATOM     12  N   UNL A   1     -27.589  -3.639  30.060  0.00  0.00    -0.171 NA
ATOM     13  C   UNL A   1     -28.716  -3.204  30.534  0.00  0.00    +0.243 C 
ATOM     14  C   UNL A   1     -27.668  -1.630  31.497  0.00  0.00    +0.168 C 
ATOM     15  N   UNL A   1     -28.771  -2.226  31.300  0.00  0.00    -0.168 NA
ATOM     16  N   UNL A   1     -29.825  -3.983  30.274  0.00  0.00    -0.094 NA
ENDROOT
BRANCH   5  17
ATOM     17  C   UNL A   1     -21.218   0.655  28.155  0.00  0.00    +0.341 C 
ATOM     18  F   UNL A   1     -20.226   0.082  28.204  0.00  0.00    -0.193 F 
ATOM     19  F   UNL A   1     -21.322   1.800  27.580  0.00  0.00    -0.193 F 
ENDBRANCH   5  17
TORSDOF 1
ENDMDL
ENDMDL
