REMARK  Name = No_1061-gen_results/8p0m/2024-11-26-14-13-15/
REMARK  2 active torsions:
REMARK  status: ('A' for Active; 'I' for Inactive)
REMARK    1  A    between atoms: C_2  and  C_10
REMARK    2  A    between atoms: C_3  and  C_7
REMARK                            x       y       z     vdW  Elec       q    Type
REMARK                         _______ _______ _______ _____ _____    ______ ____
ROOT
ATOM      1  C   UNL A   1     -28.016  -0.814  28.878  0.00  0.00    +0.008 A 
ATOM      2  C   UNL A   1     -28.469  -0.785  29.829  0.00  0.00    +0.080 A 
ATOM      3  C   UNL A   1     -27.136   0.236  28.535  0.00  0.00    +0.044 A 
ATOM      4  C   UNL A   1     -26.875   1.282  29.398  0.00  0.00    +0.001 A 
ATOM      5  C   UNL A   1     -28.361   0.199  30.924  0.00  0.00    +0.007 A 
ATOM      6  C   UNL A   1     -27.528   1.223  30.636  0.00  0.00    +0.000 A 
ENDROOT
BRANCH   3   7
ATOM      7  C   UNL A   1     -26.399   0.295  27.228  0.00  0.00    +0.341 C 
ATOM      8  F   UNL A   1     -26.931  -0.135  26.303  0.00  0.00    -0.193 F 
ATOM      9  F   UNL A   1     -25.133   0.663  27.212  0.00  0.00    -0.193 F 
ENDBRANCH   3   7
BRANCH   2  10
ATOM     10  C   UNL A   1     -29.407  -1.986  30.346  0.00  0.00    +0.388 C 
ATOM     11  O   UNL A   1     -29.818  -1.932  31.548  0.00  0.00    -0.241 OA
ATOM     12  O   UNL A   1     -29.827  -2.781  29.531  0.00  0.00    -0.241 OA
ENDBRANCH   2  10
TORSDOF 2
