MODEL 1061
MODEL 1
REMARK VINA RESULT:    -5.650      0.000      0.000
REMARK INTER + INTRA:          -6.497
REMARK INTER:                  -6.311
REMARK INTRA:                  -0.186
REMARK UNBOUND:                -0.186
REMARK  Name = No_1061-gen_results/8p0m/2024-11-26-14-13-15/
REMARK  2 active torsions:
REMARK  status: ('A' for Active; 'I' for Inactive)
REMARK    1  A    between atoms: C_2  and  C_10
REMARK    2  A    between atoms: C_3  and  C_7
REMARK                            x       y       z     vdW  Elec       q    Type
REMARK                         _______ _______ _______ _____ _____    ______ ____
ROOT
ATOM      1  C   UNL A   1     -28.206 -11.780  31.662  0.00  0.00    +0.008 A 
ATOM      2  C   UNL A   1     -28.229 -11.279  32.588  0.00  0.00    +0.080 A 
ATOM      3  C   UNL A   1     -29.046 -11.301  30.632  0.00  0.00    +0.044 A 
ATOM      4  C   UNL A   1     -29.887 -10.221  30.819  0.00  0.00    +0.001 A 
ATOM      5  C   UNL A   1     -29.019 -10.118  33.043  0.00  0.00    +0.007 A 
ATOM      6  C   UNL A   1     -29.839  -9.628  32.087  0.00  0.00    +0.000 A 
ENDROOT
BRANCH   3   7
ATOM      7  C   UNL A   1     -29.082 -11.901  29.256  0.00  0.00    +0.341 C 
ATOM      8  F   UNL A   1     -29.041 -11.176  28.364  0.00  0.00    -0.193 F 
ATOM      9  F   UNL A   1     -29.332 -13.188  29.115  0.00  0.00    -0.193 F 
ENDBRANCH   3   7
BRANCH   2  10
ATOM     10  C   UNL A   1     -27.237 -11.691  33.787  0.00  0.00    +0.388 C 
ATOM     11  O   UNL A   1     -26.690 -12.837  33.727  0.00  0.00    -0.241 OA
ATOM     12  O   UNL A   1     -26.914 -10.837  34.586  0.00  0.00    -0.241 OA
ENDBRANCH   2  10
TORSDOF 2
ENDMDL
ENDMDL
