MODEL 1062
MODEL 1
REMARK VINA RESULT:    -4.591      0.000      0.000
REMARK INTER + INTRA:          -4.591
REMARK INTER:                  -4.591
REMARK INTRA:                   0.000
REMARK UNBOUND:                 0.000
REMARK  Name = No_1062-gen_results/8p0m/2024-11-26-14-13-15/
REMARK  0 active torsions:
REMARK  status: ('A' for Active; 'I' for Inactive)
REMARK                            x       y       z     vdW  Elec       q    Type
REMARK                         _______ _______ _______ _____ _____    ______ ____
ROOT
ATOM      1  C   UNL A   1     -24.102  -4.561  28.764  0.00  0.00    +0.042 A 
ATOM      2  C   UNL A   1     -25.028  -5.288  29.039  0.00  0.00    +0.003 A 
ATOM      3  C   UNL A   1     -26.192  -4.785  29.610  0.00  0.00    +0.000 A 
ATOM      4  C   UNL A   1     -26.313  -3.386  29.935  0.00  0.00    +0.003 A 
ATOM      5  C   UNL A   1     -25.187  -2.622  29.604  0.00  0.00    +0.042 A 
ATOM      6  C   UNL A   1     -24.104  -3.149  29.080  0.00  0.00    +0.196 A 
ATOM      7  O   UNL A   1     -23.038  -2.342  28.825  0.00  0.00    -0.287 OA
ENDROOT
TORSDOF 0
ENDMDL
ENDMDL
