REMARK  Name = No_1063-gen_results/8p0m/2024-11-26-14-13-15/
REMARK  1 active torsions:
REMARK  status: ('A' for Active; 'I' for Inactive)
REMARK    1  A    between atoms: C_3  and  C_12
REMARK                            x       y       z     vdW  Elec       q    Type
REMARK                         _______ _______ _______ _____ _____    ______ ____
ROOT
ATOM      1  C   UNL A   1     -28.016  -0.814  28.878  0.00  0.00    +0.017 C 
ATOM      2  C   UNL A   1     -28.469  -0.785  29.829  0.00  0.00    +0.024 C 
ATOM      3  C   UNL A   1     -28.196   0.348  28.055  0.00  0.00    +0.055 C 
ATOM      4  C   UNL A   1     -27.442   0.510  26.795  0.00  0.00    +0.165 C 
ATOM      5  C   UNL A   1     -26.169  -0.079  26.679  0.00  0.00    +0.036 C 
ATOM      6  C   UNL A   1     -25.731  -0.961  27.688  0.00  0.00    +0.012 C 
ATOM      7  C   UNL A   1     -26.504  -1.222  28.758  0.00  0.00    +0.079 C 
ATOM      8  C   UNL A   1     -28.421  -2.045  30.734  0.00  0.00    +0.115 C 
ATOM      9  N   UNL A   1     -27.223  -2.682  30.709  0.00  0.00    -0.205 NA
ATOM     10  C   UNL A   1     -26.162  -2.371  29.699  0.00  0.00    +0.241 C 
ATOM     11  O   UNL A   1     -25.195  -3.049  29.584  0.00  0.00    -0.273 OA
ATOM     12  F   UNL A   1     -27.799   1.403  25.963  0.00  0.00    -0.237 F 
ENDROOT
BRANCH   3  13
ATOM     13  C   UNL A   1     -29.503   0.970  27.979  0.00  0.00    -0.020 A 
ATOM     14  C   UNL A   1     -30.598   0.386  27.590  0.00  0.00    -0.004 A 
ATOM     15  C   UNL A   1     -31.848   0.981  27.665  0.00  0.00    -0.000 A 
ATOM     16  C   UNL A   1     -31.933   2.272  28.192  0.00  0.00    -0.000 A 
ATOM     17  C   UNL A   1     -29.599   2.328  28.619  0.00  0.00    -0.004 A 
ATOM     18  C   UNL A   1     -30.809   2.946  28.686  0.00  0.00    -0.000 A 
ENDBRANCH   3  13
TORSDOF 1
