MODEL 1064
MODEL 1
REMARK VINA RESULT:    -4.926      0.000      0.000
REMARK INTER + INTRA:          -4.926
REMARK INTER:                  -4.926
REMARK INTRA:                   0.000
REMARK UNBOUND:                 0.000
REMARK  Name = No_1064-gen_results/8p0m/2024-11-26-14-13-15/
REMARK  0 active torsions:
REMARK  status: ('A' for Active; 'I' for Inactive)
REMARK                            x       y       z     vdW  Elec       q    Type
REMARK                         _______ _______ _______ _____ _____    ______ ____
ROOT
ATOM      1  C   UNL A   1     -26.468  -3.451  29.954  0.00  0.00    +0.003 A 
ATOM      2  C   UNL A   1     -26.241  -4.595  29.632  0.00  0.00    +0.030 A 
ATOM      3  C   UNL A   1     -25.078  -5.036  29.024  0.00  0.00    +0.141 A 
ATOM      4  C   UNL A   1     -24.061  -4.064  28.788  0.00  0.00    +0.041 A 
ATOM      5  C   UNL A   1     -24.272  -2.840  29.296  0.00  0.00    +0.060 A 
ATOM      6  C   UNL A   1     -25.384  -2.525  29.896  0.00  0.00    +0.011 A 
ATOM      7  F   UNL A   1     -24.881  -6.289  28.591  0.00  0.00    -0.204 F 
ATOM      8 CL   UNL A   1     -23.008  -1.717  29.030  0.00  0.00    -0.082 Cl
ENDROOT
TORSDOF 0
ENDMDL
ENDMDL
