REMARK  Name = No_1065-gen_results/8p0m/2024-11-26-14-13-15/
REMARK  7 active torsions:
REMARK  status: ('A' for Active; 'I' for Inactive)
REMARK    1  A    between atoms: C_4  and  O_19
REMARK    2  A    between atoms: C_6  and  O_21
REMARK    3  A    between atoms: C_8  and  C_11
REMARK    4  A    between atoms: C_10  and  C_16
REMARK    5  A    between atoms: O_21  and  C_22
REMARK    6  A    between atoms: C_22  and  C_23
REMARK    7  A    between atoms: C_30  and  O_31
REMARK                            x       y       z     vdW  Elec       q    Type
REMARK                         _______ _______ _______ _____ _____    ______ ____
ROOT
ATOM      1  C   UNL A   1     -28.016  -0.814  28.878  0.00  0.00    +0.038 A 
ATOM      2  C   UNL A   1     -27.064  -0.119  28.608  0.00  0.00    +0.012 A 
ATOM      3  C   UNL A   1     -26.972   0.714  27.506  0.00  0.00    +0.035 A 
ATOM      4  C   UNL A   1     -28.105   0.774  26.642  0.00  0.00    +0.152 A 
ATOM      5  C   UNL A   1     -29.204   0.118  27.048  0.00  0.00    +0.125 A 
ATOM      6  C   UNL A   1     -29.213  -0.609  28.128  0.00  0.00    +0.153 A 
ATOM      7  C   UNL A   1     -25.711   1.452  27.138  0.00  0.00    +0.007 A 
ATOM      8  C   UNL A   1     -24.605   0.925  27.690  0.00  0.00    +0.072 A 
ATOM      9  C   UNL A   1     -24.623   0.060  28.823  0.00  0.00    +0.010 A 
ATOM     10  C   UNL A   1     -25.727  -0.473  29.241  0.00  0.00    +0.080 A 
ATOM     11 CL   UNL A   1     -30.733   0.299  26.261  0.00  0.00    -0.076 Cl
ENDROOT
BRANCH   8  12
ATOM     12  C   UNL A   1     -23.428   1.873  27.461  0.00  0.00    +0.419 C 
ATOM     13  F   UNL A   1     -23.247   2.217  26.323  0.00  0.00    -0.166 F 
ATOM     14  F   UNL A   1     -23.445   2.998  28.266  0.00  0.00    -0.166 F 
ATOM     15  F   UNL A   1     -22.215   1.235  27.876  0.00  0.00    -0.166 F 
ENDBRANCH   8  12
BRANCH  10  16
ATOM     16  C   UNL A   1     -25.673  -1.460  30.316  0.00  0.00    +0.388 C 
ATOM     17  O   UNL A   1     -25.471  -1.135  31.380  0.00  0.00    -0.241 OA
ATOM     18  O   UNL A   1     -26.093  -2.649  29.949  0.00  0.00    -0.241 OA
ENDBRANCH  10  16
BRANCH   4  19
ATOM     19  O   UNL A   1     -28.099   1.633  25.596  0.00  0.00    -0.470 OA
ATOM     20  C   UNL A   1     -27.637   1.089  24.443  0.00  0.00    +0.253 C 
ENDBRANCH   4  19
BRANCH   6  21
ATOM     21  O   UNL A   1     -30.334  -1.252  28.538  0.00  0.00    -0.465 OA
BRANCH  21  22
ATOM     22  C   UNL A   1     -30.494  -1.523  29.891  0.00  0.00    +0.290 C 
BRANCH  22  23
ATOM     23  C   UNL A   1     -31.878  -1.722  30.205  0.00  0.00    +0.272 C 
ATOM     24  O   UNL A   1     -32.200  -1.995  31.242  0.00  0.00    -0.271 OA
ATOM     25  N   UNL A   1     -32.740  -1.633  29.176  0.00  0.00    -0.255 N 
ATOM     26  C   UNL A   1     -34.151  -1.872  29.364  0.00  0.00    +0.096 C 
ATOM     27  C   UNL A   1     -34.706  -1.453  28.512  0.00  0.00    +0.022 C 
ATOM     28  C   UNL A   1     -34.249  -1.301  27.273  0.00  0.00    +0.006 C 
ATOM     29  C   UNL A   1     -32.891  -1.259  26.966  0.00  0.00    +0.051 C 
ATOM     30  C   UNL A   1     -32.215  -1.365  27.928  0.00  0.00    +0.194 C 
BRANCH  30  31
ATOM     31  O   UNL A   1     -31.553  -1.859  27.355  0.00  0.00    -0.335 OA
ATOM     32  C   UNL A   1     -31.529  -3.212  27.201  0.00  0.00    +0.176 C 
ENDBRANCH  30  31
ENDBRANCH  22  23
ENDBRANCH  21  22
ENDBRANCH   6  21
TORSDOF 7
