MODEL 1065
MODEL 1
REMARK VINA RESULT:    -7.156      0.000      0.000
REMARK INTER + INTRA:         -10.998
REMARK INTER:                 -10.085
REMARK INTRA:                  -0.914
REMARK UNBOUND:                -0.914
REMARK  Name = No_1065-gen_results/8p0m/2024-11-26-14-13-15/
REMARK  7 active torsions:
REMARK  status: ('A' for Active; 'I' for Inactive)
REMARK    1  A    between atoms: C_4  and  O_19
REMARK    2  A    between atoms: C_6  and  O_21
REMARK    3  A    between atoms: C_8  and  C_11
REMARK    4  A    between atoms: C_10  and  C_16
REMARK    5  A    between atoms: O_21  and  C_22
REMARK    6  A    between atoms: C_22  and  C_23
REMARK    7  A    between atoms: C_30  and  O_31
REMARK                            x       y       z     vdW  Elec       q    Type
REMARK                         _______ _______ _______ _____ _____    ______ ____
ROOT
ATOM      1  C   UNL A   1     -28.283   0.462  25.271  0.00  0.00    +0.038 A 
ATOM      2  C   UNL A   1     -28.970   0.938  24.397  0.00  0.00    +0.012 A 
ATOM      3  C   UNL A   1     -29.311   2.275  24.290  0.00  0.00    +0.035 A 
ATOM      4  C   UNL A   1     -28.782   3.160  25.276  0.00  0.00    +0.152 A 
ATOM      5  C   UNL A   1     -27.897   2.636  26.139  0.00  0.00    +0.125 A 
ATOM      6  C   UNL A   1     -27.601   1.368  26.137  0.00  0.00    +0.153 A 
ATOM      7  C   UNL A   1     -30.284   2.795  23.264  0.00  0.00    +0.007 A 
ATOM      8  C   UNL A   1     -31.090   1.842  22.763  0.00  0.00    +0.072 A 
ATOM      9  C   UNL A   1     -30.804   0.448  22.837  0.00  0.00    +0.010 A 
ATOM     10  C   UNL A   1     -29.870  -0.005  23.612  0.00  0.00    +0.080 A 
ATOM     11 CL   UNL A   1     -26.969   3.615  27.221  0.00  0.00    -0.076 Cl
ENDROOT
BRANCH   8  12
ATOM     12  C   UNL A   1     -31.860   2.411  21.572  0.00  0.00    +0.419 C 
ATOM     13  F   UNL A   1     -32.790   3.124  21.843  0.00  0.00    -0.166 F 
ATOM     14  F   UNL A   1     -31.065   3.054  20.641  0.00  0.00    -0.166 F 
ATOM     15  F   UNL A   1     -32.403   1.335  20.799  0.00  0.00    -0.166 F 
ENDBRANCH   8  12
BRANCH  10  16
ATOM     16  C   UNL A   1     -29.711  -1.449  23.759  0.00  0.00    +0.388 C 
ATOM     17  O   UNL A   1     -28.831  -1.977  23.284  0.00  0.00    -0.241 OA
ATOM     18  O   UNL A   1     -30.527  -1.973  24.643  0.00  0.00    -0.241 OA
ENDBRANCH  10  16
BRANCH   4  19
ATOM     19  O   UNL A   1     -29.018   4.489  25.171  0.00  0.00    -0.470 OA
ATOM     20  C   UNL A   1     -29.866   4.970  26.113  0.00  0.00    +0.253 C 
ENDBRANCH   4  19
BRANCH   6  21
ATOM     21  O   UNL A   1     -26.692   0.854  27.002  0.00  0.00    -0.465 OA
BRANCH  21  22
ATOM     22  C   UNL A   1     -25.590   0.179  26.492  0.00  0.00    +0.290 C 
BRANCH  22  23
ATOM     23  C   UNL A   1     -24.848  -0.445  27.547  0.00  0.00    +0.272 C 
ATOM     24  O   UNL A   1     -25.289  -1.284  28.143  0.00  0.00    -0.271 OA
ATOM     25  N   UNL A   1     -23.640   0.082  27.818  0.00  0.00    -0.255 N 
ATOM     26  C   UNL A   1     -22.830  -0.429  28.897  0.00  0.00    +0.096 C 
ATOM     27  C   UNL A   1     -21.790  -0.098  28.758  0.00  0.00    +0.022 C 
ATOM     28  C   UNL A   1     -21.393   1.008  28.136  0.00  0.00    +0.006 C 
ATOM     29  C   UNL A   1     -22.189   1.689  27.219  0.00  0.00    +0.051 C 
ATOM     30  C   UNL A   1     -23.235   1.164  27.063  0.00  0.00    +0.194 C 
BRANCH  30  31
ATOM     31  O   UNL A   1     -23.627   2.081  26.935  0.00  0.00    -0.335 OA
ATOM     32  C   UNL A   1     -23.514   2.813  25.793  0.00  0.00    +0.176 C 
ENDBRANCH  30  31
ENDBRANCH  22  23
ENDBRANCH  21  22
ENDBRANCH   6  21
TORSDOF 7
ENDMDL
ENDMDL
