MODEL 1066
MODEL 1
REMARK VINA RESULT:    -4.280      0.000      0.000
REMARK INTER + INTRA:          -4.280
REMARK INTER:                  -4.280
REMARK INTRA:                   0.000
REMARK UNBOUND:                 0.000
REMARK  Name = No_1066-gen_results/8p0m/2024-11-26-14-13-15/
REMARK  0 active torsions:
REMARK  status: ('A' for Active; 'I' for Inactive)
REMARK                            x       y       z     vdW  Elec       q    Type
REMARK                         _______ _______ _______ _____ _____    ______ ____
ROOT
ATOM      1  C   UNL A   1     -24.124  -4.853  28.621  0.00  0.00    +0.000 A 
ATOM      2  C   UNL A   1     -25.010  -5.274  29.007  0.00  0.00    +0.000 A 
ATOM      3  C   UNL A   1     -24.068  -3.396  28.741  0.00  0.00    +0.000 A 
ATOM      4  C   UNL A   1     -25.078  -2.671  29.324  0.00  0.00    +0.000 A 
ATOM      5  C   UNL A   1     -26.214  -4.770  29.668  0.00  0.00    +0.000 A 
ATOM      6  C   UNL A   1     -26.169  -3.360  29.788  0.00  0.00    +0.000 A 
ENDROOT
TORSDOF 0
ENDMDL
ENDMDL
