MODEL 1067
MODEL 1
REMARK VINA RESULT:    -6.746      0.000      0.000
REMARK INTER + INTRA:          -8.535
REMARK INTER:                  -7.930
REMARK INTRA:                  -0.606
REMARK UNBOUND:                -0.606
REMARK  Name = No_1067-gen_results/8p0m/2024-11-26-14-13-15/
REMARK  3 active torsions:
REMARK  status: ('A' for Active; 'I' for Inactive)
REMARK    1  A    between atoms: C_2  and  C_7
REMARK    2  A    between atoms: C_7  and  C_8
REMARK    3  A    between atoms: C_7  and  C_9
REMARK                            x       y       z     vdW  Elec       q    Type
REMARK                         _______ _______ _______ _____ _____    ______ ____
ROOT
ATOM      1  C   UNL A   1     -24.274  -1.170  29.128  0.00  0.00    +0.064 C 
ENDROOT
BRANCH   1   3
ATOM      2  C   UNL A   1     -23.820  -3.488  28.712  0.00  0.00    -0.004 A 
ATOM      3  C   UNL A   1     -24.567  -2.629  29.120  0.00  0.00    -0.017 A 
ATOM      4  C   UNL A   1     -25.808  -2.952  29.656  0.00  0.00    -0.004 A 
ATOM      5  C   UNL A   1     -26.264  -4.318  29.699  0.00  0.00    -0.000 A 
ATOM      6  C   UNL A   1     -25.347  -5.244  29.185  0.00  0.00    -0.000 A 
ATOM      7  C   UNL A   1     -24.192  -4.885  28.674  0.00  0.00    -0.000 A 
ENDBRANCH   1   3
BRANCH   1   8
ATOM      8  C   UNL A   1     -24.073  -0.405  28.198  0.00  0.00    -0.017 A 
ATOM      9  C   UNL A   1     -22.927   0.438  28.113  0.00  0.00    -0.004 A 
ATOM     10  C   UNL A   1     -24.953  -0.261  27.023  0.00  0.00    -0.004 A 
ATOM     11  C   UNL A   1     -24.586   0.650  25.985  0.00  0.00    -0.000 A 
ATOM     12  C   UNL A   1     -22.709   1.389  27.777  0.00  0.00    -0.000 A 
ATOM     13  C   UNL A   1     -23.530   1.633  26.303  0.00  0.00    -0.000 A 
ENDBRANCH   1   8
BRANCH   1  14
ATOM     14  C   UNL A   1     -24.271  -0.592  30.483  0.00  0.00    +0.118 C 
ATOM     15  N   UNL A   1     -23.419  -0.962  31.306  0.00  0.00    -0.131 NA
ENDBRANCH   1  14
TORSDOF 3
ENDMDL
ENDMDL
