REMARK  Name = No_1067-gen_results/8p0m/2024-11-26-14-13-15/
REMARK  3 active torsions:
REMARK  status: ('A' for Active; 'I' for Inactive)
REMARK    1  A    between atoms: C_2  and  C_7
REMARK    2  A    between atoms: C_7  and  C_8
REMARK    3  A    between atoms: C_7  and  C_9
REMARK                            x       y       z     vdW  Elec       q    Type
REMARK                         _______ _______ _______ _____ _____    ______ ____
ROOT
ATOM      1  C   UNL A   1     -27.106   1.102  27.759  0.00  0.00    +0.064 C 
ENDROOT
BRANCH   1   3
ATOM      2  C   UNL A   1     -28.016  -0.814  28.878  0.00  0.00    -0.004 A 
ATOM      3  C   UNL A   1     -27.064  -0.119  28.608  0.00  0.00    -0.017 A 
ATOM      4  C   UNL A   1     -25.792  -0.430  29.076  0.00  0.00    -0.004 A 
ATOM      5  C   UNL A   1     -25.576  -1.565  29.936  0.00  0.00    -0.000 A 
ATOM      6  C   UNL A   1     -26.735  -2.300  30.217  0.00  0.00    -0.000 A 
ATOM      7  C   UNL A   1     -27.918  -1.954  29.763  0.00  0.00    -0.000 A 
ENDBRANCH   1   3
BRANCH   1   8
ATOM      8  C   UNL A   1     -26.716   2.235  27.994  0.00  0.00    -0.017 A 
ATOM      9  C   UNL A   1     -26.032   2.594  29.191  0.00  0.00    -0.004 A 
ATOM     10  C   UNL A   1     -26.861   3.380  27.076  0.00  0.00    -0.004 A 
ATOM     11  C   UNL A   1     -26.331   4.651  27.458  0.00  0.00    -0.000 A 
ATOM     12  C   UNL A   1     -25.993   3.405  29.828  0.00  0.00    -0.000 A 
ATOM     13  C   UNL A   1     -25.970   4.823  28.881  0.00  0.00    -0.000 A 
ENDBRANCH   1   8
BRANCH   1  14
ATOM     14  C   UNL A   1     -27.681   0.855  26.426  0.00  0.00    +0.118 C 
ATOM     15  N   UNL A   1     -26.942   0.498  25.495  0.00  0.00    -0.131 NA
ENDBRANCH   1  14
TORSDOF 3
