MODEL 1068
MODEL 1
REMARK VINA RESULT:    -5.028      0.000      0.000
REMARK INTER + INTRA:          -5.737
REMARK INTER:                  -5.616
REMARK INTRA:                  -0.121
REMARK UNBOUND:                -0.121
REMARK  Name = No_1068-gen_results/8p0m/2024-11-26-14-13-15/
REMARK  2 active torsions:
REMARK  status: ('A' for Active; 'I' for Inactive)
REMARK    1  A    between atoms: C_2  and  O_7
REMARK    2  A    between atoms: O_7  and  C_8
REMARK                            x       y       z     vdW  Elec       q    Type
REMARK                         _______ _______ _______ _____ _____    ______ ____
ROOT
ATOM      1  C   UNL A   1     -25.057  -2.548  29.717  0.00  0.00    +0.037 A 
ATOM      2  C   UNL A   1     -24.100  -3.042  29.168  0.00  0.00    +0.145 A 
ATOM      3  C   UNL A   1     -24.029  -4.345  28.795  0.00  0.00    +0.037 A 
ATOM      4  C   UNL A   1     -25.132  -5.178  29.061  0.00  0.00    +0.003 A 
ATOM      5  C   UNL A   1     -26.256  -3.317  29.934  0.00  0.00    +0.003 A 
ATOM      6  C   UNL A   1     -26.225  -4.639  29.604  0.00  0.00    +0.000 A 
ENDROOT
BRANCH   2   7
ATOM      7  O   UNL A   1     -22.969  -2.281  28.850  0.00  0.00    -0.450 OA
BRANCH   7   8
ATOM      8  C   UNL A   1     -22.717  -1.015  29.299  0.00  0.00    +0.180 C 
ATOM      9  C   UNL A   1     -21.686  -0.338  29.022  0.00  0.00    +0.044 C 
ENDBRANCH   7   8
ENDBRANCH   2   7
TORSDOF 2
ENDMDL
ENDMDL
