REMARK  Name = No_1069-gen_results/8p0m/2024-11-26-14-13-15/
REMARK  2 active torsions:
REMARK  status: ('A' for Active; 'I' for Inactive)
REMARK    1  A    between atoms: C_7  and  C_8
REMARK    2  A    between atoms: C_11  and  N_13
REMARK                            x       y       z     vdW  Elec       q    Type
REMARK                         _______ _______ _______ _____ _____    ______ ____
ROOT
ATOM      1  O   UNL A   1     -28.123  -1.335  28.487  0.00  0.00    -0.422 OA
ATOM      2  C   UNL A   1     -27.064  -0.824  28.869  0.00  0.00    +0.178 A 
ATOM      3  C   UNL A   1     -27.025   0.188  29.736  0.00  0.00    +0.178 A 
ATOM      4  C   UNL A   1     -25.839   0.851  29.996  0.00  0.00    +0.047 A 
ATOM      5  C   UNL A   1     -25.707  -1.410  28.630  0.00  0.00    +0.041 A 
ATOM      6  C   UNL A   1     -24.504  -0.826  28.956  0.00  0.00    +0.010 A 
ATOM      7  C   UNL A   1     -24.580   0.350  29.672  0.00  0.00    +0.083 A 
ATOM      8  C   UNL A   1     -29.266  -0.753  29.121  0.00  0.00    +0.467 C 
ATOM      9  O   UNL A   1     -28.789   0.113  29.752  0.00  0.00    -0.422 OA
ENDROOT
BRANCH   7  10
ATOM     10  C   UNL A   1     -23.308   1.023  29.958  0.00  0.00    +0.388 C 
ATOM     11  O   UNL A   1     -23.345   2.043  30.532  0.00  0.00    -0.241 OA
ATOM     12  O   UNL A   1     -22.168   0.385  29.898  0.00  0.00    -0.241 OA
ENDBRANCH   7  10
BRANCH   8  13
ATOM     13  N   UNL A   1     -30.434  -1.044  28.952  0.00  0.00    -0.188 NA
ATOM     14  C   UNL A   1     -31.260  -1.697  29.257  0.00  0.00    +0.121 C 
ENDBRANCH   8  13
TORSDOF 2
