MODEL 1069
MODEL 1
REMARK VINA RESULT:    -5.771      0.000      0.000
REMARK INTER + INTRA:          -6.540
REMARK INTER:                  -6.445
REMARK INTRA:                  -0.095
REMARK UNBOUND:                -0.095
REMARK  Name = No_1069-gen_results/8p0m/2024-11-26-14-13-15/
REMARK  2 active torsions:
REMARK  status: ('A' for Active; 'I' for Inactive)
REMARK    1  A    between atoms: C_7  and  C_8
REMARK    2  A    between atoms: C_11  and  N_13
REMARK                            x       y       z     vdW  Elec       q    Type
REMARK                         _______ _______ _______ _____ _____    ______ ____
ROOT
ATOM      1  O   UNL A   1     -30.350 -10.666  29.263  0.00  0.00    -0.422 OA
ATOM      2  C   UNL A   1     -29.642 -10.888  30.252  0.00  0.00    +0.178 A 
ATOM      3  C   UNL A   1     -28.576 -11.686  30.210  0.00  0.00    +0.178 A 
ATOM      4  C   UNL A   1     -27.921 -12.054  31.372  0.00  0.00    +0.047 A 
ATOM      5  C   UNL A   1     -29.716 -10.118  31.534  0.00  0.00    +0.041 A 
ATOM      6  C   UNL A   1     -29.013 -10.393  32.686  0.00  0.00    +0.010 A 
ATOM      7  C   UNL A   1     -28.077 -11.401  32.593  0.00  0.00    +0.083 A 
ATOM      8  C   UNL A   1     -29.857 -11.316  28.087  0.00  0.00    +0.467 C 
ATOM      9  O   UNL A   1     -28.955 -11.939  28.504  0.00  0.00    -0.422 OA
ENDROOT
BRANCH   7  10
ATOM     10  C   UNL A   1     -27.377 -11.757  33.832  0.00  0.00    +0.388 C 
ATOM     11  O   UNL A   1     -26.789 -12.769  33.858  0.00  0.00    -0.241 OA
ATOM     12  O   UNL A   1     -27.117 -10.864  34.752  0.00  0.00    -0.241 OA
ENDBRANCH   7  10
BRANCH   8  13
ATOM     13  N   UNL A   1     -30.334 -11.285  26.970  0.00  0.00    -0.188 NA
ATOM     14  C   UNL A   1     -30.433 -11.806  26.010  0.00  0.00    +0.121 C 
ENDBRANCH   8  13
TORSDOF 2
ENDMDL
ENDMDL
