MODEL 106
MODEL 1
REMARK VINA RESULT:    -6.563      0.000      0.000
REMARK INTER + INTRA:          -7.313
REMARK INTER:                  -6.946
REMARK INTRA:                  -0.366
REMARK UNBOUND:                -0.366
REMARK  Name = No_106-gen_results/8p0m/2024-11-26-14-13-15/
REMARK  1 active torsions:
REMARK  status: ('A' for Active; 'I' for Inactive)
REMARK    1  A    between atoms: C_2  and  C_7
REMARK                            x       y       z     vdW  Elec       q    Type
REMARK                         _______ _______ _______ _____ _____    ______ ____
ROOT
ATOM      1  C   UNL A   1     -25.848  -2.820  29.467  0.00  0.00    +0.000 A 
ATOM      2  C   UNL A   1     -24.760  -2.595  28.989  0.00  0.00    +0.000 A 
ATOM      3  C   UNL A   1     -23.924  -3.630  28.586  0.00  0.00    +0.000 A 
ATOM      4  C   UNL A   1     -24.309  -5.006  28.767  0.00  0.00    +0.000 A 
ATOM      5  C   UNL A   1     -25.572  -5.176  29.349  0.00  0.00    +0.000 A 
ATOM      6  C   UNL A   1     -26.317  -4.163  29.728  0.00  0.00    +0.000 A 
ENDROOT
BRANCH   2   7
ATOM      7  C   UNL A   1     -24.048  -1.299  28.602  0.00  0.00    +0.000 A 
ATOM      8  C   UNL A   1     -24.374  -0.426  27.931  0.00  0.00    +0.000 A 
ATOM      9  C   UNL A   1     -23.589   0.805  27.663  0.00  0.00    +0.000 A 
ATOM     10  C   UNL A   1     -22.293   0.846  28.192  0.00  0.00    +0.000 A 
ATOM     11  C   UNL A   1     -22.657  -1.170  29.166  0.00  0.00    +0.000 A 
ATOM     12  C   UNL A   1     -21.877  -0.177  28.970  0.00  0.00    +0.000 A 
ENDBRANCH   2   7
TORSDOF 1
ENDMDL
ENDMDL
