REMARK  Name = No_1070-gen_results/8p0m/2024-11-26-14-13-15/
REMARK  1 active torsions:
REMARK  status: ('A' for Active; 'I' for Inactive)
REMARK    1  A    between atoms: C_5  and  C_19
REMARK                            x       y       z     vdW  Elec       q    Type
REMARK                         _______ _______ _______ _____ _____    ______ ____
ROOT
ATOM      1  C   UNL A   1     -28.016  -0.814  28.878  0.00  0.00    +0.003 A 
ATOM      2  C   UNL A   1     -27.064  -0.119  28.608  0.00  0.00    +0.039 A 
ATOM      3  C   UNL A   1     -26.972   0.714  27.506  0.00  0.00    +0.003 A 
ATOM      4  C   UNL A   1     -28.105   0.774  26.642  0.00  0.00    +0.007 A 
ATOM      5  C   UNL A   1     -29.204   0.118  27.048  0.00  0.00    +0.080 A 
ATOM      6  C   UNL A   1     -29.213  -0.609  28.128  0.00  0.00    +0.007 A 
ATOM      7  C   UNL A   1     -25.711   1.452  27.138  0.00  0.00    +0.000 A 
ATOM      8  C   UNL A   1     -24.605   0.925  27.690  0.00  0.00    +0.003 A 
ATOM      9  C   UNL A   1     -23.309   1.602  27.492  0.00  0.00    +0.000 A 
ATOM     10  C   UNL A   1     -23.217   2.496  26.439  0.00  0.00    +0.000 A 
ATOM     11  C   UNL A   1     -25.555   2.421  26.183  0.00  0.00    +0.000 A 
ATOM     12  C   UNL A   1     -24.332   3.072  25.924  0.00  0.00    +0.000 A 
ATOM     13  C   UNL A   1     -22.094   1.027  28.129  0.00  0.00    +0.000 A 
ATOM     14  C   UNL A   1     -22.219  -0.100  28.989  0.00  0.00    +0.000 A 
ATOM     15  C   UNL A   1     -23.454  -0.770  29.129  0.00  0.00    +0.003 A 
ATOM     16  C   UNL A   1     -24.598  -0.217  28.532  0.00  0.00    +0.039 A 
ATOM     17  C   UNL A   1     -25.714  -0.559  29.166  0.00  0.00    +0.196 C 
ATOM     18  O   UNL A   1     -25.815  -1.383  30.145  0.00  0.00    -0.287 OA
ENDROOT
BRANCH   5  19
ATOM     19  C   UNL A   1     -30.426   0.337  26.244  0.00  0.00    +0.388 C 
ATOM     20  O   UNL A   1     -31.427   0.590  26.646  0.00  0.00    -0.241 OA
ATOM     21  O   UNL A   1     -30.282   0.149  24.918  0.00  0.00    -0.241 OA
ENDBRANCH   5  19
TORSDOF 1
