MODEL 1070
MODEL 1
REMARK VINA RESULT:    -7.919      0.000      0.000
REMARK INTER + INTRA:          -8.486
REMARK INTER:                  -8.382
REMARK INTRA:                  -0.104
REMARK UNBOUND:                -0.104
REMARK  Name = No_1070-gen_results/8p0m/2024-11-26-14-13-15/
REMARK  1 active torsions:
REMARK  status: ('A' for Active; 'I' for Inactive)
REMARK    1  A    between atoms: C_5  and  C_19
REMARK                            x       y       z     vdW  Elec       q    Type
REMARK                         _______ _______ _______ _____ _____    ______ ____
ROOT
ATOM      1  C   UNL A   1     -30.057 -10.011  32.654  0.00  0.00    +0.003 A 
ATOM      2  C   UNL A   1     -30.301 -10.208  31.486  0.00  0.00    +0.039 A 
ATOM      3  C   UNL A   1     -29.533 -10.978  30.630  0.00  0.00    +0.003 A 
ATOM      4  C   UNL A   1     -28.381 -11.611  31.184  0.00  0.00    +0.007 A 
ATOM      5  C   UNL A   1     -28.221 -11.507  32.513  0.00  0.00    +0.080 A 
ATOM      6  C   UNL A   1     -29.023 -10.794  33.250  0.00  0.00    +0.007 A 
ATOM      7  C   UNL A   1     -29.801 -11.078  29.151  0.00  0.00    +0.000 A 
ATOM      8  C   UNL A   1     -30.546 -10.065  28.676  0.00  0.00    +0.003 A 
ATOM      9  C   UNL A   1     -30.967 -10.083  27.261  0.00  0.00    +0.000 A 
ATOM     10  C   UNL A   1     -30.258 -10.904  26.401  0.00  0.00    +0.000 A 
ATOM     11  C   UNL A   1     -29.221 -11.929  28.249  0.00  0.00    +0.000 A 
ATOM     12  C   UNL A   1     -29.555 -11.961  26.880  0.00  0.00    +0.000 A 
ATOM     13  C   UNL A   1     -31.814  -8.972  26.750  0.00  0.00    +0.000 A 
ATOM     14  C   UNL A   1     -32.279  -7.973  27.651  0.00  0.00    +0.000 A 
ATOM     15  C   UNL A   1     -31.829  -7.938  28.988  0.00  0.00    +0.003 A 
ATOM     16  C   UNL A   1     -31.036  -8.993  29.466  0.00  0.00    +0.039 A 
ATOM     17  C   UNL A   1     -31.155  -9.160  30.778  0.00  0.00    +0.196 C 
ATOM     18  O   UNL A   1     -31.810  -8.410  31.588  0.00  0.00    -0.287 OA
ENDROOT
BRANCH   5  19
ATOM     19  C   UNL A   1     -27.132 -12.317  33.102  0.00  0.00    +0.388 C 
ATOM     20  O   UNL A   1     -26.377 -12.895  32.534  0.00  0.00    -0.241 OA
ATOM     21  O   UNL A   1     -27.126 -12.378  34.448  0.00  0.00    -0.241 OA
ENDBRANCH   5  19
TORSDOF 1
ENDMDL
ENDMDL
