MODEL 1071
MODEL 1
REMARK VINA RESULT:    -7.884      0.000      0.000
REMARK INTER + INTRA:         -11.025
REMARK INTER:                  -9.728
REMARK INTRA:                  -1.297
REMARK UNBOUND:                -1.297
REMARK  Name = No_1071-gen_results/8p0m/2024-11-26-14-13-15/
REMARK  4 active torsions:
REMARK  status: ('A' for Active; 'I' for Inactive)
REMARK    1  A    between atoms: C_2  and  C_12
REMARK    2  A    between atoms: C_12  and  O_13
REMARK    3  A    between atoms: O_13  and  C_15
REMARK    4  A    between atoms: C_15  and  C_16
REMARK                            x       y       z     vdW  Elec       q    Type
REMARK                         _______ _______ _______ _____ _____    ______ ____
ROOT
ATOM      1  C   UNL A   1     -22.890   1.849  26.857  0.00  0.00    +0.342 C 
ATOM      2  O   UNL A   1     -21.893   2.022  26.138  0.00  0.00    -0.245 OA
ENDROOT
BRANCH   1   4
ATOM      3  C   UNL A   1     -24.944   2.838  26.617  0.00  0.00    +0.018 A 
ATOM      4  C   UNL A   1     -24.422   1.980  26.297  0.00  0.00    +0.076 A 
ATOM      5  C   UNL A   1     -26.370   2.952  26.128  0.00  0.00    +0.058 A 
ATOM      6  C   UNL A   1     -26.946   1.875  25.421  0.00  0.00    +0.011 A 
ATOM      7  C   UNL A   1     -24.788   0.724  25.605  0.00  0.00    +0.006 A 
ATOM      8  C   UNL A   1     -26.096   0.788  25.146  0.00  0.00    +0.001 A 
ATOM      9  C   UNL A   1     -28.278   1.933  24.921  0.00  0.00    +0.001 A 
ATOM     10  C   UNL A   1     -28.835   1.105  24.441  0.00  0.00    +0.000 A 
ATOM     11  C   UNL A   1     -28.059  -0.144  24.127  0.00  0.00    +0.000 A 
ATOM     12  C   UNL A   1     -26.738  -0.256  24.413  0.00  0.00    +0.000 A 
ATOM     13 CL   UNL A   1     -27.332   4.339  26.448  0.00  0.00    -0.082 Cl
ENDBRANCH   1   4
BRANCH   1  14
ATOM     14  O   UNL A   1     -22.909   1.662  27.977  0.00  0.00    -0.440 OA
BRANCH  14  15
ATOM     15  C   UNL A   1     -22.438   0.528  28.613  0.00  0.00    +0.235 C 
BRANCH  15  16
ATOM     16  C   UNL A   1     -23.358  -0.354  28.988  0.00  0.00    +0.021 A 
ATOM     17  C   UNL A   1     -23.178  -1.610  28.757  0.00  0.00    -0.001 A 
ATOM     18  C   UNL A   1     -24.591   0.023  29.635  0.00  0.00    -0.001 A 
ATOM     19  C   UNL A   1     -25.597  -0.884  30.004  0.00  0.00    -0.000 A 
ATOM     20  C   UNL A   1     -24.193  -2.644  29.159  0.00  0.00    -0.000 A 
ATOM     21  C   UNL A   1     -25.343  -2.253  29.785  0.00  0.00    -0.000 A 
ATOM     22  C   UNL A   1     -23.932  -4.073  28.940  0.00  0.00    -0.000 A 
ATOM     23  C   UNL A   1     -24.824  -4.910  28.957  0.00  0.00    -0.000 A 
ATOM     24  C   UNL A   1     -26.155  -4.543  29.617  0.00  0.00    -0.000 A 
ATOM     25  C   UNL A   1     -26.407  -3.223  30.050  0.00  0.00    -0.000 A 
ENDBRANCH  15  16
ENDBRANCH  14  15
ENDBRANCH   1  14
TORSDOF 4
ENDMDL
ENDMDL
