REMARK  Name = No_1071-gen_results/8p0m/2024-11-26-14-13-15/
REMARK  4 active torsions:
REMARK  status: ('A' for Active; 'I' for Inactive)
REMARK    1  A    between atoms: C_2  and  C_12
REMARK    2  A    between atoms: C_12  and  O_13
REMARK    3  A    between atoms: O_13  and  C_15
REMARK    4  A    between atoms: C_15  and  C_16
REMARK                            x       y       z     vdW  Elec       q    Type
REMARK                         _______ _______ _______ _____ _____    ______ ____
ROOT
ATOM      1  C   UNL A   1     -30.104  -0.857  29.823  0.00  0.00    +0.342 C 
ATOM      2  O   UNL A   1     -30.759  -1.375  30.742  0.00  0.00    -0.245 OA
ENDROOT
BRANCH   1   4
ATOM      3  C   UNL A   1     -28.016  -0.814  28.878  0.00  0.00    +0.018 A 
ATOM      4  C   UNL A   1     -28.469  -0.785  29.829  0.00  0.00    +0.076 A 
ATOM      5  C   UNL A   1     -26.504  -0.778  28.877  0.00  0.00    +0.058 A 
ATOM      6  C   UNL A   1     -25.810  -0.853  30.103  0.00  0.00    +0.011 A 
ATOM      7  C   UNL A   1     -27.991  -0.892  31.226  0.00  0.00    +0.006 A 
ATOM      8  C   UNL A   1     -26.604  -0.868  31.265  0.00  0.00    +0.001 A 
ATOM      9  C   UNL A   1     -24.389  -0.805  30.164  0.00  0.00    +0.001 A 
ATOM     10  C   UNL A   1     -23.766  -0.950  31.068  0.00  0.00    +0.000 A 
ATOM     11  C   UNL A   1     -24.487  -1.029  32.385  0.00  0.00    +0.000 A 
ATOM     12  C   UNL A   1     -25.837  -0.926  32.468  0.00  0.00    +0.000 A 
ATOM     13 CL   UNL A   1     -25.599  -0.696  27.419  0.00  0.00    -0.082 Cl
ENDBRANCH   1   4
BRANCH   1  14
ATOM     14  O   UNL A   1     -30.506  -0.305  28.916  0.00  0.00    -0.440 OA
BRANCH  14  15
ATOM     15  C   UNL A   1     -31.787   0.199  28.782  0.00  0.00    +0.235 C 
BRANCH  15  16
ATOM     16  C   UNL A   1     -31.962   1.098  27.820  0.00  0.00    +0.021 A 
ATOM     17  C   UNL A   1     -33.151   1.503  27.526  0.00  0.00    -0.001 A 
ATOM     18  C   UNL A   1     -30.873   1.645  27.047  0.00  0.00    -0.001 A 
ATOM     19  C   UNL A   1     -31.035   2.564  25.999  0.00  0.00    -0.000 A 
ATOM     20  C   UNL A   1     -33.398   2.515  26.442  0.00  0.00    -0.000 A 
ATOM     21  C   UNL A   1     -32.342   3.025  25.741  0.00  0.00    -0.000 A 
ATOM     22  C   UNL A   1     -34.757   3.005  26.172  0.00  0.00    -0.000 A 
ATOM     23  C   UNL A   1     -35.052   3.572  25.129  0.00  0.00    -0.000 A 
ATOM     24  C   UNL A   1     -33.924   4.150  24.270  0.00  0.00    -0.000 A 
ATOM     25  C   UNL A   1     -32.572   3.895  24.586  0.00  0.00    -0.000 A 
ENDBRANCH  15  16
ENDBRANCH  14  15
ENDBRANCH   1  14
TORSDOF 4
