REMARK  Name = No_1072-gen_results/8p0m/2024-11-26-14-13-15/
REMARK  7 active torsions:
REMARK  status: ('A' for Active; 'I' for Inactive)
REMARK    1  A    between atoms: C_2  and  O_25
REMARK    2  A    between atoms: C_4  and  C_16
REMARK    3  A    between atoms: C_9  and  C_12
REMARK    4  A    between atoms: N_18  and  C_19
REMARK    5  A    between atoms: C_19  and  C_20
REMARK    6  A    between atoms: O_25  and  C_26
REMARK    7  A    between atoms: C_26  and  C_27
REMARK                            x       y       z     vdW  Elec       q    Type
REMARK                         _______ _______ _______ _____ _____    ______ ____
ROOT
ATOM      1  C   UNL A   1     -28.016  -0.814  28.878  0.00  0.00    +0.037 A 
ATOM      2  C   UNL A   1     -28.469  -0.785  29.829  0.00  0.00    +0.149 A 
ATOM      3  C   UNL A   1     -27.087   0.290  28.638  0.00  0.00    +0.006 A 
ATOM      4  C   UNL A   1     -26.252   0.411  27.422  0.00  0.00    +0.055 C 
ATOM      5  C   UNL A   1     -28.391   0.104  30.980  0.00  0.00    +0.037 A 
ATOM      6  C   UNL A   1     -27.533   1.167  30.787  0.00  0.00    +0.002 A 
ATOM      7  C   UNL A   1     -26.828   1.256  29.645  0.00  0.00    +0.014 A 
ATOM      8  C   UNL A   1     -25.138   0.675  27.231  0.00  0.00    +0.008 C 
ATOM      9  C   UNL A   1     -24.316   0.866  28.442  0.00  0.00    +0.070 C 
ATOM     10  C   UNL A   1     -24.495   1.511  29.556  0.00  0.00    +0.017 C 
ATOM     11  C   UNL A   1     -25.526   1.822  30.010  0.00  0.00    +0.205 C 
ATOM     12  F   UNL A   1     -25.588   2.794  30.928  0.00  0.00    -0.228 F 
ENDROOT
BRANCH   9  13
ATOM     13  C   UNL A   1     -22.884   0.447  28.223  0.00  0.00    +0.418 C 
ATOM     14  F   UNL A   1     -22.070   1.280  27.747  0.00  0.00    -0.166 F 
ATOM     15  F   UNL A   1     -22.287   0.032  29.474  0.00  0.00    -0.166 F 
ATOM     16  F   UNL A   1     -22.755  -0.665  27.517  0.00  0.00    -0.166 F 
ENDBRANCH   9  13
BRANCH   4  17
ATOM     17  C   UNL A   1     -27.101   0.316  26.163  0.00  0.00    +0.265 C 
ATOM     18  O   UNL A   1     -26.579  -0.010  25.117  0.00  0.00    -0.268 OA
ATOM     19  N   UNL A   1     -28.305   0.875  26.084  0.00  0.00    -0.193 NA
BRANCH  19  20
ATOM     20  C   UNL A   1     -29.146   0.862  24.950  0.00  0.00    +0.218 C 
BRANCH  20  21
ATOM     21  C   UNL A   1     -30.119  -0.067  24.815  0.00  0.00    +0.417 C 
ATOM     22  F   UNL A   1     -29.793  -1.175  24.958  0.00  0.00    -0.168 F 
ATOM     23  F   UNL A   1     -31.079   0.109  25.834  0.00  0.00    -0.168 F 
ATOM     24  F   UNL A   1     -30.843   0.026  23.676  0.00  0.00    -0.168 F 
ENDBRANCH  20  21
ENDBRANCH  19  20
ENDBRANCH   4  17
BRANCH   2  25
ATOM     25  O   UNL A   1     -29.589  -1.752  30.032  0.00  0.00    -0.416 OA
BRANCH  25  26
ATOM     26  C   UNL A   1     -29.497  -2.977  30.660  0.00  0.00    +0.427 C 
ATOM     27  O   UNL A   1     -28.439  -3.107  31.393  0.00  0.00    -0.237 OA
BRANCH  26  28
ATOM     28  C   UNL A   1     -30.299  -3.925  30.049  0.00  0.00    +0.463 C 
ATOM     29  O   UNL A   1     -31.446  -3.908  30.492  0.00  0.00    -0.233 OA
ATOM     30  O   UNL A   1     -29.776  -5.105  29.714  0.00  0.00    -0.233 OA
ENDBRANCH  26  28
ENDBRANCH  25  26
ENDBRANCH   2  25
TORSDOF 7
