MODEL 1072
MODEL 1
REMARK VINA RESULT:    -7.177      0.000      0.000
REMARK INTER + INTRA:         -10.935
REMARK INTER:                 -10.115
REMARK INTRA:                  -0.820
REMARK UNBOUND:                -0.820
REMARK  Name = No_1072-gen_results/8p0m/2024-11-26-14-13-15/
REMARK  7 active torsions:
REMARK  status: ('A' for Active; 'I' for Inactive)
REMARK    1  A    between atoms: C_2  and  O_25
REMARK    2  A    between atoms: C_4  and  C_16
REMARK    3  A    between atoms: C_9  and  C_12
REMARK    4  A    between atoms: N_18  and  C_19
REMARK    5  A    between atoms: C_19  and  C_20
REMARK    6  A    between atoms: O_25  and  C_26
REMARK    7  A    between atoms: C_26  and  C_27
REMARK                            x       y       z     vdW  Elec       q    Type
REMARK                         _______ _______ _______ _____ _____    ______ ____
ROOT
ATOM      1  C   UNL A   1     -12.789   2.679  36.619  0.00  0.00    +0.037 A 
ATOM      2  C   UNL A   1     -13.539   3.111  36.019  0.00  0.00    +0.149 A 
ATOM      3  C   UNL A   1     -11.988   1.673  35.921  0.00  0.00    +0.006 A 
ATOM      4  C   UNL A   1     -10.812   1.001  36.517  0.00  0.00    +0.055 C 
ATOM      5  C   UNL A   1     -13.978   2.946  34.640  0.00  0.00    +0.037 A 
ATOM      6  C   UNL A   1     -13.254   1.995  33.951  0.00  0.00    +0.002 A 
ATOM      7  C   UNL A   1     -12.219   1.380  34.551  0.00  0.00    +0.014 A 
ATOM      8  C   UNL A   1      -9.745   0.752  36.133  0.00  0.00    +0.008 C 
ATOM      9  C   UNL A   1      -9.419   1.265  34.788  0.00  0.00    +0.070 C 
ATOM     10  C   UNL A   1     -10.052   1.273  33.653  0.00  0.00    +0.017 C 
ATOM     11  C   UNL A   1     -11.208   1.170  33.511  0.00  0.00    +0.205 C 
ATOM     12  F   UNL A   1     -11.708   0.805  32.325  0.00  0.00    -0.228 F 
ENDROOT
BRANCH   9  13
ATOM     13  C   UNL A   1      -7.957   1.607  34.654  0.00  0.00    +0.418 C 
ATOM     14  F   UNL A   1      -7.339   2.050  35.657  0.00  0.00    -0.166 F 
ATOM     15  F   UNL A   1      -7.204   0.439  34.252  0.00  0.00    -0.166 F 
ATOM     16  F   UNL A   1      -7.689   2.421  33.646  0.00  0.00    -0.166 F 
ENDBRANCH   9  13
BRANCH   4  17
ATOM     17  C   UNL A   1     -11.159   0.380  37.861  0.00  0.00    +0.265 C 
ATOM     18  O   UNL A   1     -11.666   1.069  38.722  0.00  0.00    -0.268 OA
ATOM     19  N   UNL A   1     -10.647  -0.784  38.250  0.00  0.00    -0.193 NA
BRANCH  19  20
ATOM     20  C   UNL A   1     -10.890  -1.418  39.488  0.00  0.00    +0.218 C 
BRANCH  20  21
ATOM     21  C   UNL A   1     -11.936  -2.260  39.646  0.00  0.00    +0.417 C 
ATOM     22  F   UNL A   1     -11.876  -2.987  40.553  0.00  0.00    -0.168 F 
ATOM     23  F   UNL A   1     -13.100  -1.513  39.922  0.00  0.00    -0.168 F 
ATOM     24  F   UNL A   1     -12.268  -2.972  38.545  0.00  0.00    -0.168 F 
ENDBRANCH  20  21
ENDBRANCH  19  20
ENDBRANCH   4  17
BRANCH   2  25
ATOM     25  O   UNL A   1     -14.523   3.968  36.746  0.00  0.00    -0.416 OA
BRANCH  25  26
ATOM     26  C   UNL A   1     -15.807   3.606  37.098  0.00  0.00    +0.427 C 
ATOM     27  O   UNL A   1     -16.711   4.040  36.281  0.00  0.00    -0.237 OA
BRANCH  26  28
ATOM     28  C   UNL A   1     -15.888   3.244  38.432  0.00  0.00    +0.463 C 
ATOM     29  O   UNL A   1     -17.008   2.832  38.727  0.00  0.00    -0.233 OA
ATOM     30  O   UNL A   1     -15.224   3.956  39.343  0.00  0.00    -0.233 OA
ENDBRANCH  26  28
ENDBRANCH  25  26
ENDBRANCH   2  25
TORSDOF 7
ENDMDL
ENDMDL
