MODEL 1073
MODEL 1
REMARK VINA RESULT:    -5.799      0.000      0.000
REMARK INTER + INTRA:         -10.315
REMARK INTER:                  -7.834
REMARK INTRA:                  -2.481
REMARK UNBOUND:                -2.481
REMARK  Name = No_1073-gen_results/8p0m/2024-11-26-14-13-15/
REMARK  6 active torsions:
REMARK  status: ('A' for Active; 'I' for Inactive)
REMARK    1  A    between atoms: C_4  and  C_11
REMARK    2  A    between atoms: C_11  and  C_13
REMARK    3  A    between atoms: C_13  and  O_14
REMARK    4  A    between atoms: O_14  and  C_15
REMARK    5  A    between atoms: C_16  and  C_17
REMARK    6  A    between atoms: C_18  and  C_19
REMARK                            x       y       z     vdW  Elec       q    Type
REMARK                         _______ _______ _______ _____ _____    ______ ____
ROOT
ATOM      1  C   UNL A   1     -25.963   0.239  26.395  0.00  0.00    -0.000 A 
ATOM      2  C   UNL A   1     -25.470  -0.468  27.244  0.00  0.00    -0.000 A 
ATOM      3  C   UNL A   1     -24.187  -0.280  27.755  0.00  0.00    -0.004 A 
ATOM      4  C   UNL A   1     -23.505  -1.098  28.777  0.00  0.00    -0.019 A 
ATOM      5  C   UNL A   1     -22.161  -0.899  29.253  0.00  0.00    -0.004 A 
ATOM      6  C   UNL A   1     -21.561   0.292  28.832  0.00  0.00    -0.000 A 
ATOM      7  C   UNL A   1     -25.076   1.271  25.757  0.00  0.00    -0.000 A 
ATOM      8  C   UNL A   1     -23.833   1.584  26.256  0.00  0.00    -0.000 A 
ATOM      9  C   UNL A   1     -23.293   0.798  27.258  0.00  0.00    -0.000 A 
ATOM     10  C   UNL A   1     -22.041   1.077  27.805  0.00  0.00    -0.000 A 
ENDROOT
BRANCH   4  11
ATOM     11  C   UNL A   1     -24.204  -2.278  29.381  0.00  0.00    +0.066 C 
ATOM     12  C   UNL A   1     -24.006  -3.477  28.860  0.00  0.00    +0.009 C 
BRANCH  11  13
ATOM     13  C   UNL A   1     -24.998  -2.032  30.567  0.00  0.00    +0.210 C 
BRANCH  13  14
ATOM     14  O   UNL A   1     -24.545  -1.353  31.241  0.00  0.00    -0.472 OA
BRANCH  14  15
ATOM     15  C   UNL A   1     -25.065  -0.778  32.227  0.00  0.00    +0.172 C 
ATOM     16  C   UNL A   1     -25.007   0.589  32.329  0.00  0.00    +0.040 C 
BRANCH  16  17
ATOM     17  C   UNL A   1     -24.372   1.224  31.454  0.00  0.00    +0.003 C 
ATOM     18  C   UNL A   1     -24.607   1.924  30.597  0.00  0.00    +0.000 C 
BRANCH  18  19
ATOM     19  C   UNL A   1     -25.501   2.186  30.168  0.00  0.00    +0.000 C 
ATOM     20  C   UNL A   1     -25.633   3.158  29.043  0.00  0.00    +0.000 C 
ENDBRANCH  18  19
ENDBRANCH  16  17
ENDBRANCH  14  15
ENDBRANCH  13  14
ENDBRANCH  11  13
ENDBRANCH   4  11
TORSDOF 6
ENDMDL
ENDMDL
