REMARK  Name = No_1073-gen_results/8p0m/2024-11-26-14-13-15/
REMARK  6 active torsions:
REMARK  status: ('A' for Active; 'I' for Inactive)
REMARK    1  A    between atoms: C_4  and  C_11
REMARK    2  A    between atoms: C_11  and  C_13
REMARK    3  A    between atoms: C_13  and  O_14
REMARK    4  A    between atoms: O_14  and  C_15
REMARK    5  A    between atoms: C_16  and  C_17
REMARK    6  A    between atoms: C_18  and  C_19
REMARK                            x       y       z     vdW  Elec       q    Type
REMARK                         _______ _______ _______ _____ _____    ______ ____
ROOT
ATOM      1  C   UNL A   1     -28.016  -0.814  28.878  0.00  0.00    -0.000 A 
ATOM      2  C   UNL A   1     -27.064  -0.119  28.608  0.00  0.00    -0.000 A 
ATOM      3  C   UNL A   1     -25.765  -0.390  29.036  0.00  0.00    -0.004 A 
ATOM      4  C   UNL A   1     -24.552   0.406  28.765  0.00  0.00    -0.019 A 
ATOM      5  C   UNL A   1     -23.230   0.118  29.258  0.00  0.00    -0.004 A 
ATOM      6  C   UNL A   1     -23.094  -1.131  29.873  0.00  0.00    -0.000 A 
ATOM      7  C   UNL A   1     -27.798  -1.934  29.856  0.00  0.00    -0.000 A 
ATOM      8  C   UNL A   1     -26.542  -2.327  30.258  0.00  0.00    -0.000 A 
ATOM      9  C   UNL A   1     -25.451  -1.552  29.908  0.00  0.00    -0.000 A 
ATOM     10  C   UNL A   1     -24.156  -1.910  30.281  0.00  0.00    -0.000 A 
ENDROOT
BRANCH   4  11
ATOM     11  C   UNL A   1     -24.645   1.658  27.946  0.00  0.00    +0.066 C 
ATOM     12  C   UNL A   1     -25.076   1.578  26.699  0.00  0.00    +0.009 C 
BRANCH  11  13
ATOM     13  C   UNL A   1     -24.331   2.903  28.616  0.00  0.00    +0.210 C 
BRANCH  13  14
ATOM     14  O   UNL A   1     -25.176   3.524  28.764  0.00  0.00    -0.472 OA
BRANCH  14  15
ATOM     15  C   UNL A   1     -25.558   4.490  28.062  0.00  0.00    +0.172 C 
ATOM     16  C   UNL A   1     -26.363   5.456  28.610  0.00  0.00    +0.040 C 
BRANCH  16  17
ATOM     17  C   UNL A   1     -26.748   5.308  29.794  0.00  0.00    +0.003 C 
ATOM     18  C   UNL A   1     -26.753   4.488  30.573  0.00  0.00    +0.000 C 
BRANCH  18  19
ATOM     19  C   UNL A   1     -26.524   3.491  30.501  0.00  0.00    +0.000 C 
ATOM     20  C   UNL A   1     -26.692   2.515  31.618  0.00  0.00    +0.000 C 
ENDBRANCH  18  19
ENDBRANCH  16  17
ENDBRANCH  14  15
ENDBRANCH  13  14
ENDBRANCH  11  13
ENDBRANCH   4  11
TORSDOF 6
