MODEL 1074
MODEL 1
REMARK VINA RESULT:    -5.962      0.000      0.000
REMARK INTER + INTRA:          -6.786
REMARK INTER:                  -6.659
REMARK INTRA:                  -0.127
REMARK UNBOUND:                -0.127
REMARK  Name = No_1074-gen_results/8p0m/2024-11-26-14-13-15/
REMARK  2 active torsions:
REMARK  status: ('A' for Active; 'I' for Inactive)
REMARK    1  A    between atoms: C_6  and  C_16
REMARK    2  A    between atoms: C_8  and  C_9
REMARK                            x       y       z     vdW  Elec       q    Type
REMARK                         _______ _______ _______ _____ _____    ______ ____
ROOT
ATOM      1  C   UNL A   1      -6.667  -0.376  10.220  0.00  0.00    +0.005 A 
ATOM      2  C   UNL A   1      -7.278   0.497  10.791  0.00  0.00    -0.000 A 
ATOM      3  C   UNL A   1      -7.454   0.538  12.160  0.00  0.00    +0.001 A 
ATOM      4  C   UNL A   1      -8.560   1.171  12.723  0.00  0.00    +0.006 A 
ATOM      5  C   UNL A   1      -9.454   2.011  11.938  0.00  0.00    +0.031 A 
ATOM      6  C   UNL A   1      -9.224   2.009  10.552  0.00  0.00    -0.016 A 
ATOM      7  C   UNL A   1      -8.231   1.229  10.044  0.00  0.00    -0.004 A 
ATOM      8  C   UNL A   1      -6.327  -0.237   8.777  0.00  0.00    +0.055 A 
ATOM      9  C   UNL A   1      -7.090   0.660   7.937  0.00  0.00    +0.005 A 
ATOM     10  C   UNL A   1      -8.120   1.334   8.585  0.00  0.00    -0.000 A 
ATOM     11 BR   UNL A   1     -10.721   3.133  12.770  0.00  0.00    -0.049 Br
ENDROOT
BRANCH   8  12
ATOM     12  C   UNL A   1      -5.416  -1.183   8.129  0.00  0.00    +0.265 C 
ATOM     13  O   UNL A   1      -5.847  -1.720   7.200  0.00  0.00    -0.268 OA
ATOM     14  N   UNL A   1      -4.198  -1.376   8.639  0.00  0.00    -0.200 NA
ATOM     15  C   UNL A   1      -3.221  -2.279   8.018  0.00  0.00    +0.139 C 
ENDBRANCH   8  12
BRANCH   6  16
ATOM     16  C   UNL A   1     -10.180   2.911   9.793  0.00  0.00    +0.027 C 
ATOM     17  C   UNL A   1     -11.138   2.624   9.039  0.00  0.00    +0.005 C 
ENDBRANCH   6  16
TORSDOF 2
ENDMDL
ENDMDL
