REMARK  Name = No_1074-gen_results/8p0m/2024-11-26-14-13-15/
REMARK  2 active torsions:
REMARK  status: ('A' for Active; 'I' for Inactive)
REMARK    1  A    between atoms: C_6  and  C_16
REMARK    2  A    between atoms: C_8  and  C_9
REMARK                            x       y       z     vdW  Elec       q    Type
REMARK                         _______ _______ _______ _____ _____    ______ ____
ROOT
ATOM      1  C   UNL A   1     -28.016  -0.814  28.878  0.00  0.00    +0.005 A 
ATOM      2  C   UNL A   1     -27.064  -0.119  28.608  0.00  0.00    -0.000 A 
ATOM      3  C   UNL A   1     -27.001   0.691  27.491  0.00  0.00    +0.001 A 
ATOM      4  C   UNL A   1     -25.777   1.021  26.913  0.00  0.00    +0.006 A 
ATOM      5  C   UNL A   1     -24.509   0.736  27.569  0.00  0.00    +0.031 A 
ATOM      6  C   UNL A   1     -24.593  -0.036  28.739  0.00  0.00    -0.016 A 
ATOM      7  C   UNL A   1     -25.811  -0.477  29.158  0.00  0.00    -0.004 A 
ATOM      8  C   UNL A   1     -28.107  -1.483  30.205  0.00  0.00    +0.055 A 
ATOM      9  C   UNL A   1     -26.910  -1.712  30.984  0.00  0.00    +0.005 A 
ATOM     10  C   UNL A   1     -25.732  -1.271  30.389  0.00  0.00    -0.000 A 
ATOM     11 BR   UNL A   1     -22.897   1.497  26.952  0.00  0.00    -0.049 Br
ENDROOT
BRANCH   8  12
ATOM     12  C   UNL A   1     -29.340  -2.156  30.620  0.00  0.00    +0.265 C 
ATOM     13  O   UNL A   1     -30.311  -1.726  30.164  0.00  0.00    -0.268 OA
ATOM     14  N   UNL A   1     -29.274  -3.175  31.480  0.00  0.00    -0.200 NA
ATOM     15  C   UNL A   1     -30.464  -3.920  31.908  0.00  0.00    +0.139 C 
ENDBRANCH   8  12
BRANCH   6  16
ATOM     16  C   UNL A   1     -23.241  -0.289  29.380  0.00  0.00    +0.027 C 
ATOM     17  C   UNL A   1     -22.093   0.046  29.008  0.00  0.00    +0.005 C 
ENDBRANCH   6  16
TORSDOF 2
