MODEL 1075
MODEL 1
REMARK VINA RESULT:    -7.858      0.000      0.000
REMARK INTER + INTRA:         -13.376
REMARK INTER:                 -11.073
REMARK INTRA:                  -2.303
REMARK UNBOUND:                -2.303
REMARK  Name = No_1075-gen_results/8p0m/2024-11-26-14-13-15/
REMARK  7 active torsions:
REMARK  status: ('A' for Active; 'I' for Inactive)
REMARK    1  A    between atoms: N_4  and  C_12
REMARK    2  A    between atoms: C_12  and  C_15
REMARK    3  A    between atoms: C_12  and  C_22
REMARK    4  A    between atoms: C_15  and  C_16
REMARK    5  A    between atoms: C_22  and  N_23
REMARK    6  A    between atoms: N_23  and  C_24
REMARK    7  A    between atoms: N_23  and  C_34
REMARK                            x       y       z     vdW  Elec       q    Type
REMARK                         _______ _______ _______ _____ _____    ______ ____
ROOT
ATOM      1  C   UNL A   1      -8.780   1.161  35.856  0.00  0.00    +0.107 C 
ENDROOT
BRANCH   1   5
ATOM      2  O   UNL A   1     -11.079  -0.215  36.091  0.00  0.00    -0.270 OA
ATOM      3  C   UNL A   1     -10.416  -0.295  37.031  0.00  0.00    +0.255 C 
ATOM      4  C   UNL A   1     -10.920  -0.754  38.231  0.00  0.00    +0.051 A 
ATOM      5  N   UNL A   1      -9.226   0.546  37.194  0.00  0.00    -0.226 N 
ATOM      6  C   UNL A   1     -10.362  -0.582  39.420  0.00  0.00    +0.002 A 
ATOM      7  C   UNL A   1     -10.787  -1.098  40.692  0.00  0.00    +0.054 A 
ATOM      8  C   UNL A   1     -11.569  -2.265  40.589  0.00  0.00    +0.011 A 
ATOM      9  C   UNL A   1     -12.146  -2.553  39.340  0.00  0.00    +0.001 A 
ATOM     10  C   UNL A   1     -11.765  -1.905  38.261  0.00  0.00    +0.004 A 
ATOM     11  C   UNL A   1      -8.351   0.650  38.194  0.00  0.00    +0.236 C 
ATOM     12  C   UNL A   1      -8.969   0.254  39.513  0.00  0.00    +0.113 C 
ATOM     13  O   UNL A   1      -7.235   1.115  38.236  0.00  0.00    -0.274 OA
ATOM     14 CL   UNL A   1     -10.120  -0.775  42.220  0.00  0.00    -0.083 Cl
ENDBRANCH   1   5
BRANCH   1  15
ATOM     15  C   UNL A   1      -8.351   0.757  34.832  0.00  0.00    +0.048 C 
BRANCH  15  16
ATOM     16  C   UNL A   1      -7.128   0.148  34.885  0.00  0.00    -0.021 A 
ATOM     17  C   UNL A   1      -6.136   0.452  35.082  0.00  0.00    -0.004 A 
ATOM     18  C   UNL A   1      -4.852  -0.307  35.043  0.00  0.00    -0.000 A 
ATOM     19  C   UNL A   1      -4.964  -1.654  34.750  0.00  0.00    -0.000 A 
ATOM     20  C   UNL A   1      -6.211  -2.169  34.500  0.00  0.00    -0.000 A 
ATOM     21  C   UNL A   1      -7.284  -1.382  34.526  0.00  0.00    -0.004 A 
ENDBRANCH  15  16
ENDBRANCH   1  15
BRANCH   1  22
ATOM     22  C   UNL A   1      -9.051   2.687  36.071  0.00  0.00    +0.111 C 
BRANCH  22  23
ATOM     23  N   UNL A   1      -9.976   3.127  35.574  0.00  0.00    -0.306 N 
BRANCH  23  24
ATOM     24  C   UNL A   1     -11.071   3.401  35.669  0.00  0.00    +0.048 A 
ATOM     25  C   UNL A   1     -12.037   2.869  34.895  0.00  0.00    +0.015 A 
ATOM     26  C   UNL A   1     -13.465   2.954  35.169  0.00  0.00    +0.001 A 
ATOM     27  C   UNL A   1     -13.781   2.930  36.250  0.00  0.00    +0.000 A 
ATOM     28  C   UNL A   1     -15.223   3.043  36.597  0.00  0.00    +0.000 A 
ATOM     29  C   UNL A   1     -15.769   3.235  37.871  0.00  0.00    +0.000 A 
ATOM     30  C   UNL A   1     -14.754   3.292  38.889  0.00  0.00    +0.000 A 
ATOM     31  C   UNL A   1     -13.431   3.250  38.666  0.00  0.00    +0.000 A 
ATOM     32  C   UNL A   1     -12.976   3.099  37.365  0.00  0.00    +0.001 A 
ATOM     33  C   UNL A   1     -11.563   3.320  37.081  0.00  0.00    +0.015 A 
ENDBRANCH  23  24
BRANCH  23  34
ATOM     34  C   UNL A   1      -9.357   3.942  34.313  0.00  0.00    +0.091 C 
ATOM     35  C   UNL A   1      -8.221   4.594  34.643  0.00  0.00    +0.023 C 
ENDBRANCH  23  34
ENDBRANCH  22  23
ENDBRANCH   1  22
TORSDOF 7
ENDMDL
ENDMDL
