REMARK  Name = No_1075-gen_results/8p0m/2024-11-26-14-13-15/
REMARK  7 active torsions:
REMARK  status: ('A' for Active; 'I' for Inactive)
REMARK    1  A    between atoms: N_4  and  C_12
REMARK    2  A    between atoms: C_12  and  C_15
REMARK    3  A    between atoms: C_12  and  C_22
REMARK    4  A    between atoms: C_15  and  C_16
REMARK    5  A    between atoms: C_22  and  N_23
REMARK    6  A    between atoms: N_23  and  C_24
REMARK    7  A    between atoms: N_23  and  C_34
REMARK                            x       y       z     vdW  Elec       q    Type
REMARK                         _______ _______ _______ _____ _____    ______ ____
ROOT
ATOM      1  C   UNL A   1     -28.587  -0.318  30.933  0.00  0.00    +0.107 C 
ENDROOT
BRANCH   1   5
ATOM      2  O   UNL A   1     -28.123  -1.335  28.487  0.00  0.00    -0.270 OA
ATOM      3  C   UNL A   1     -27.481  -0.404  28.709  0.00  0.00    +0.255 C 
ATOM      4  C   UNL A   1     -26.380  -0.087  27.939  0.00  0.00    +0.051 A 
ATOM      5  N   UNL A   1     -27.423   0.175  30.055  0.00  0.00    -0.226 N 
ATOM      6  C   UNL A   1     -25.407   0.742  28.286  0.00  0.00    +0.002 A 
ATOM      7  C   UNL A   1     -24.280   1.177  27.507  0.00  0.00    +0.054 A 
ATOM      8  C   UNL A   1     -24.497   1.097  26.118  0.00  0.00    +0.011 A 
ATOM      9  C   UNL A   1     -25.554   0.286  25.670  0.00  0.00    +0.001 A 
ATOM     10  C   UNL A   1     -26.453  -0.169  26.515  0.00  0.00    +0.004 A 
ATOM     11  C   UNL A   1     -26.733   1.206  30.542  0.00  0.00    +0.236 C 
ATOM     12  C   UNL A   1     -25.473   1.452  29.749  0.00  0.00    +0.113 C 
ATOM     13  O   UNL A   1     -26.877   1.861  31.549  0.00  0.00    -0.274 OA
ATOM     14 CL   UNL A   1     -22.984   2.153  28.009  0.00  0.00    -0.083 Cl
ENDBRANCH   1   5
BRANCH   1  15
ATOM     15  C   UNL A   1     -29.767  -0.284  30.885  0.00  0.00    +0.048 C 
BRANCH  15  16
ATOM     16  C   UNL A   1     -30.318   0.832  30.319  0.00  0.00    -0.021 A 
ATOM     17  C   UNL A   1     -30.794   1.064  29.406  0.00  0.00    -0.004 A 
ATOM     18  C   UNL A   1     -31.301   2.359  28.866  0.00  0.00    -0.000 A 
ATOM     19  C   UNL A   1     -31.181   3.446  29.712  0.00  0.00    -0.000 A 
ATOM     20  C   UNL A   1     -30.598   3.259  30.940  0.00  0.00    -0.000 A 
ATOM     21  C   UNL A   1     -30.147   2.059  31.298  0.00  0.00    -0.004 A 
ENDBRANCH  15  16
ENDBRANCH   1  15
BRANCH   1  22
ATOM     22  C   UNL A   1     -27.848  -1.034  32.113  0.00  0.00    +0.111 C 
BRANCH  22  23
ATOM     23  N   UNL A   1     -28.102  -0.695  33.169  0.00  0.00    -0.306 N 
BRANCH  23  24
ATOM     24  C   UNL A   1     -28.056   0.131  33.943  0.00  0.00    +0.048 A 
ATOM     25  C   UNL A   1     -26.925   0.793  34.253  0.00  0.00    +0.015 A 
ATOM     26  C   UNL A   1     -26.868   2.041  35.003  0.00  0.00    +0.001 A 
ATOM     27  C   UNL A   1     -27.711   2.772  34.844  0.00  0.00    +0.000 A 
ATOM     28  C   UNL A   1     -27.727   4.051  35.603  0.00  0.00    +0.000 A 
ATOM     29  C   UNL A   1     -28.781   4.968  35.683  0.00  0.00    +0.000 A 
ATOM     30  C   UNL A   1     -29.914   4.556  34.899  0.00  0.00    +0.000 A 
ATOM     31  C   UNL A   1     -30.010   3.399  34.225  0.00  0.00    +0.000 A 
ATOM     32  C   UNL A   1     -28.930   2.529  34.233  0.00  0.00    +0.001 A 
ATOM     33  C   UNL A   1     -29.115   1.169  33.738  0.00  0.00    +0.015 A 
ENDBRANCH  23  24
BRANCH  23  34
ATOM     34  C   UNL A   1     -29.247  -1.753  33.624  0.00  0.00    +0.091 C 
ATOM     35  C   UNL A   1     -29.379  -1.806  34.967  0.00  0.00    +0.023 C 
ENDBRANCH  23  34
ENDBRANCH  22  23
ENDBRANCH   1  22
TORSDOF 7
