MODEL 1076
MODEL 1
REMARK VINA RESULT:    -5.070      0.000      0.000
REMARK INTER + INTRA:          -5.832
REMARK INTER:                  -5.663
REMARK INTRA:                  -0.169
REMARK UNBOUND:                -0.169
REMARK  Name = No_1076-gen_results/8p0m/2024-11-26-14-13-15/
REMARK  2 active torsions:
REMARK  status: ('A' for Active; 'I' for Inactive)
REMARK    1  A    between atoms: C_3  and  C_7
REMARK    2  A    between atoms: C_7  and  C_9
REMARK                            x       y       z     vdW  Elec       q    Type
REMARK                         _______ _______ _______ _____ _____    ______ ____
ROOT
ATOM      1  C   UNL A   1     -25.851  -2.576  29.734  0.00  0.00    -0.004 A 
ATOM      2  C   UNL A   1     -26.348  -3.496  29.863  0.00  0.00    -0.000 A 
ATOM      3  C   UNL A   1     -24.566  -2.597  29.148  0.00  0.00    -0.021 A 
ATOM      4  C   UNL A   1     -23.958  -3.775  28.764  0.00  0.00    -0.004 A 
ATOM      5  C   UNL A   1     -24.683  -4.938  28.964  0.00  0.00    -0.000 A 
ATOM      6  C   UNL A   1     -25.949  -4.866  29.504  0.00  0.00    -0.000 A 
ENDROOT
BRANCH   3   7
ATOM      7  C   UNL A   1     -23.760  -1.360  28.886  0.00  0.00    +0.041 C 
ATOM      8  C   UNL A   1     -24.271  -0.512  27.893  0.00  0.00    +0.006 C 
BRANCH   7   9
ATOM      9  C   UNL A   1     -22.578  -1.076  29.535  0.00  0.00    +0.114 C 
ATOM     10  N   UNL A   1     -21.505  -0.825  28.887  0.00  0.00    -0.131 NA
ENDBRANCH   7   9
ENDBRANCH   3   7
TORSDOF 2
ENDMDL
ENDMDL
