REMARK  Name = No_1076-gen_results/8p0m/2024-11-26-14-13-15/
REMARK  2 active torsions:
REMARK  status: ('A' for Active; 'I' for Inactive)
REMARK    1  A    between atoms: C_3  and  C_7
REMARK    2  A    between atoms: C_7  and  C_9
REMARK                            x       y       z     vdW  Elec       q    Type
REMARK                         _______ _______ _______ _____ _____    ______ ____
ROOT
ATOM      1  C   UNL A   1     -28.016  -0.814  28.878  0.00  0.00    -0.004 A 
ATOM      2  C   UNL A   1     -28.469  -0.785  29.829  0.00  0.00    -0.000 A 
ATOM      3  C   UNL A   1     -27.136   0.236  28.535  0.00  0.00    -0.021 A 
ATOM      4  C   UNL A   1     -26.875   1.282  29.398  0.00  0.00    -0.004 A 
ATOM      5  C   UNL A   1     -27.507   1.238  30.630  0.00  0.00    -0.000 A 
ATOM      6  C   UNL A   1     -28.329   0.174  30.935  0.00  0.00    -0.000 A 
ENDROOT
BRANCH   3   7
ATOM      7  C   UNL A   1     -26.408   0.307  27.226  0.00  0.00    +0.041 C 
ATOM      8  C   UNL A   1     -25.011   0.390  27.323  0.00  0.00    +0.006 C 
BRANCH   7   9
ATOM      9  C   UNL A   1     -27.046   0.329  26.005  0.00  0.00    +0.114 C 
ATOM     10  N   UNL A   1     -28.321   0.355  25.919  0.00  0.00    -0.131 NA
ENDBRANCH   7   9
ENDBRANCH   3   7
TORSDOF 2
