MODEL 1077
MODEL 1
REMARK VINA RESULT:    -7.720      0.000      0.000
REMARK INTER + INTRA:          -9.023
REMARK INTER:                  -8.622
REMARK INTRA:                  -0.401
REMARK UNBOUND:                -0.401
REMARK  Name = No_1077-gen_results/8p0m/2024-11-26-14-13-15/
REMARK  2 active torsions:
REMARK  status: ('A' for Active; 'I' for Inactive)
REMARK    1  A    between atoms: C_1  and  C_8
REMARK    2  A    between atoms: C_5  and  C_10
REMARK                            x       y       z     vdW  Elec       q    Type
REMARK                         _______ _______ _______ _____ _____    ______ ____
ROOT
ATOM      1  C   UNL A   1     -23.732  -1.554  28.866  0.00  0.00    -0.001 C 
ATOM      2  C   UNL A   1     -23.774  -0.538  28.212  0.00  0.00    +0.013 C 
ATOM      3  C   UNL A   1     -22.797   0.443  28.199  0.00  0.00    +0.169 C 
ATOM      4  C   UNL A   1     -22.858   1.700  27.493  0.00  0.00    +0.077 C 
ATOM      5  C   UNL A   1     -24.010   1.989  26.724  0.00  0.00    +0.103 C 
ATOM      6  C   UNL A   1     -25.049   1.023  26.692  0.00  0.00    +0.014 C 
ATOM      7  C   UNL A   1     -24.911  -0.121  27.416  0.00  0.00    +0.029 C 
ATOM      8  O   UNL A   1     -21.681   0.250  28.871  0.00  0.00    -0.292 OA
ENDROOT
BRANCH   1   9
ATOM      9  C   UNL A   1     -24.780  -2.612  28.666  0.00  0.00    -0.000 A 
ATOM     10  C   UNL A   1     -25.910  -2.648  29.484  0.00  0.00    -0.000 A 
ATOM     11  C   UNL A   1     -26.376  -3.549  29.900  0.00  0.00    -0.000 A 
ATOM     12  C   UNL A   1     -25.999  -4.902  29.586  0.00  0.00    -0.000 A 
ATOM     13  C   UNL A   1     -24.834  -4.955  28.791  0.00  0.00    -0.000 A 
ATOM     14  C   UNL A   1     -23.987  -3.960  28.901  0.00  0.00    -0.000 A 
ENDBRANCH   1   9
BRANCH   5  15
ATOM     15  C   UNL A   1     -24.125   3.218  25.938  0.00  0.00    +0.398 C 
ATOM     16  F   UNL A   1     -25.214   3.295  25.315  0.00  0.00    -0.170 F 
ATOM     17  F   UNL A   1     -24.159   4.351  26.750  0.00  0.00    -0.170 F 
ATOM     18  F   UNL A   1     -23.120   3.324  25.090  0.00  0.00    -0.170 F 
ENDBRANCH   5  15
TORSDOF 2
ENDMDL
ENDMDL
