REMARK  Name = No_1077-gen_results/8p0m/2024-11-26-14-13-15/
REMARK  2 active torsions:
REMARK  status: ('A' for Active; 'I' for Inactive)
REMARK    1  A    between atoms: C_1  and  C_8
REMARK    2  A    between atoms: C_5  and  C_10
REMARK                            x       y       z     vdW  Elec       q    Type
REMARK                         _______ _______ _______ _____ _____    ______ ____
ROOT
ATOM      1  C   UNL A   1     -28.016  -0.814  28.878  0.00  0.00    -0.001 C 
ATOM      2  C   UNL A   1     -27.064  -0.119  28.608  0.00  0.00    +0.013 C 
ATOM      3  C   UNL A   1     -26.972   0.714  27.506  0.00  0.00    +0.169 C 
ATOM      4  C   UNL A   1     -25.820   1.491  27.116  0.00  0.00    +0.077 C 
ATOM      5  C   UNL A   1     -24.656   1.424  27.918  0.00  0.00    +0.103 C 
ATOM      6  C   UNL A   1     -24.685   0.590  29.066  0.00  0.00    +0.014 C 
ATOM      7  C   UNL A   1     -25.810  -0.127  29.334  0.00  0.00    +0.029 C 
ATOM      8  O   UNL A   1     -28.015   0.853  26.714  0.00  0.00    -0.292 OA
ENDROOT
BRANCH   1   9
ATOM      9  C   UNL A   1     -28.054  -1.547  30.189  0.00  0.00    -0.000 A 
ATOM     10  C   UNL A   1     -29.186  -2.276  30.556  0.00  0.00    -0.000 A 
ATOM     11  C   UNL A   1     -29.631  -2.315  31.557  0.00  0.00    -0.000 A 
ATOM     12  C   UNL A   1     -29.067  -1.724  32.742  0.00  0.00    -0.000 A 
ATOM     13  C   UNL A   1     -27.936  -0.932  32.451  0.00  0.00    -0.000 A 
ATOM     14  C   UNL A   1     -27.872  -0.395  31.256  0.00  0.00    -0.000 A 
ENDBRANCH   1   9
BRANCH   5  15
ATOM     15  C   UNL A   1     -23.466   2.222  27.619  0.00  0.00    +0.398 C 
ATOM     16  F   UNL A   1     -22.792   2.490  28.645  0.00  0.00    -0.170 F 
ATOM     17  F   UNL A   1     -22.555   1.518  26.832  0.00  0.00    -0.170 F 
ATOM     18  F   UNL A   1     -23.798   3.339  27.001  0.00  0.00    -0.170 F 
ENDBRANCH   5  15
TORSDOF 2
