REMARK  Name = No_1078-gen_results/8p0m/2024-11-26-14-13-15/
REMARK  1 active torsions:
REMARK  status: ('A' for Active; 'I' for Inactive)
REMARK    1  A    between atoms: C_2  and  C_5
REMARK                            x       y       z     vdW  Elec       q    Type
REMARK                         _______ _______ _______ _____ _____    ______ ____
ROOT
ATOM      1  C   UNL A   1     -28.016  -0.814  28.878  0.00  0.00    +0.004 A 
ATOM      2  C   UNL A   1     -28.469  -0.785  29.829  0.00  0.00    +0.071 A 
ATOM      3  C   UNL A   1     -27.087   0.290  28.638  0.00  0.00    -0.000 A 
ATOM      4  C   UNL A   1     -26.768   1.027  29.472  0.00  0.00    -0.000 A 
ATOM      5  C   UNL A   1     -27.308   1.033  30.780  0.00  0.00    -0.000 A 
ATOM      6  C   UNL A   1     -28.226  -0.021  31.047  0.00  0.00    +0.004 A 
ENDROOT
BRANCH   2   7
ATOM      7  C   UNL A   1     -29.459  -1.922  30.202  0.00  0.00    +0.419 C 
ATOM      8  F   UNL A   1     -29.793  -1.720  31.594  0.00  0.00    -0.166 F 
ATOM      9  F   UNL A   1     -28.843  -3.098  30.171  0.00  0.00    -0.166 F 
ATOM     10  F   UNL A   1     -30.511  -1.965  29.515  0.00  0.00    -0.166 F 
ENDBRANCH   2   7
TORSDOF 1
