MODEL 1078
MODEL 1
REMARK VINA RESULT:    -5.282      0.000      0.000
REMARK INTER + INTRA:          -5.786
REMARK INTER:                  -5.590
REMARK INTRA:                  -0.196
REMARK UNBOUND:                -0.196
REMARK  Name = No_1078-gen_results/8p0m/2024-11-26-14-13-15/
REMARK  1 active torsions:
REMARK  status: ('A' for Active; 'I' for Inactive)
REMARK    1  A    between atoms: C_2  and  C_5
REMARK                            x       y       z     vdW  Elec       q    Type
REMARK                         _______ _______ _______ _____ _____    ______ ____
ROOT
ATOM      1  C   UNL A   1     -23.870  -3.809  28.757  0.00  0.00    +0.004 A 
ATOM      2  C   UNL A   1     -24.359  -2.963  29.153  0.00  0.00    +0.071 A 
ATOM      3  C   UNL A   1     -24.612  -5.055  28.944  0.00  0.00    -0.000 A 
ATOM      4  C   UNL A   1     -25.698  -5.078  29.344  0.00  0.00    -0.000 A 
ATOM      5  C   UNL A   1     -26.402  -3.940  29.807  0.00  0.00    -0.000 A 
ATOM      6  C   UNL A   1     -25.705  -2.709  29.653  0.00  0.00    +0.004 A 
ENDROOT
BRANCH   2   7
ATOM      7  C   UNL A   1     -23.671  -1.580  28.992  0.00  0.00    +0.419 C 
ATOM      8  F   UNL A   1     -24.103  -0.786  30.121  0.00  0.00    -0.166 F 
ATOM      9  F   UNL A   1     -24.153  -0.945  27.930  0.00  0.00    -0.166 F 
ATOM     10  F   UNL A   1     -22.415  -1.606  28.949  0.00  0.00    -0.166 F 
ENDBRANCH   2   7
TORSDOF 1
ENDMDL
ENDMDL
