MODEL 1079
MODEL 1
REMARK VINA RESULT:    -5.203      0.000      0.000
REMARK INTER + INTRA:          -6.005
REMARK INTER:                  -5.811
REMARK INTRA:                  -0.194
REMARK UNBOUND:                -0.194
REMARK  Name = No_1079-gen_results/8p0m/2024-11-26-14-13-15/
REMARK  2 active torsions:
REMARK  status: ('A' for Active; 'I' for Inactive)
REMARK    1  A    between atoms: C_1  and  C_2
REMARK    2  A    between atoms: C_5  and  C_6
REMARK                            x       y       z     vdW  Elec       q    Type
REMARK                         _______ _______ _______ _____ _____    ______ ____
ROOT
ATOM      1  C   UNL A   1     -23.959  -1.885  28.953  0.00  0.00    +0.042 A 
ATOM      2  C   UNL A   1     -24.769  -1.240  28.164  0.00  0.00    +0.003 A 
ATOM      3  C   UNL A   1     -24.481   0.035  27.461  0.00  0.00    +0.004 A 
ATOM      4  C   UNL A   1     -23.210   0.624  27.718  0.00  0.00    +0.071 A 
ATOM      5  C   UNL A   1     -22.655  -1.120  29.194  0.00  0.00    +0.003 A 
ATOM      6  C   UNL A   1     -22.316   0.081  28.598  0.00  0.00    +0.004 A 
ENDROOT
BRANCH   4   7
ATOM      7  C   UNL A   1     -22.899   1.870  27.117  0.00  0.00    +0.419 C 
ATOM      8  F   UNL A   1     -23.211   2.806  27.481  0.00  0.00    -0.166 F 
ATOM      9  F   UNL A   1     -23.188   1.799  25.710  0.00  0.00    -0.166 F 
ATOM     10  F   UNL A   1     -21.473   1.908  26.957  0.00  0.00    -0.166 F 
ENDBRANCH   4   7
BRANCH   1  11
ATOM     11  C   UNL A   1     -24.165  -2.920  29.543  0.00  0.00    +0.234 C 
ATOM     12  O   UNL A   1     -23.809  -4.047  29.058  0.00  0.00    -0.283 OA
ENDBRANCH   1  11
TORSDOF 2
ENDMDL
ENDMDL
