MODEL 107
MODEL 1
REMARK VINA RESULT:    -6.658      0.000      0.000
REMARK INTER + INTRA:          -7.361
REMARK INTER:                  -7.047
REMARK INTRA:                  -0.313
REMARK UNBOUND:                -0.313
REMARK  Name = No_107-gen_results/8p0m/2024-11-26-14-13-15/
REMARK  1 active torsions:
REMARK  status: ('A' for Active; 'I' for Inactive)
REMARK    1  A    between atoms: C_3  and  C_7
REMARK                            x       y       z     vdW  Elec       q    Type
REMARK                         _______ _______ _______ _____ _____    ______ ____
ROOT
ATOM      1  C   UNL A   1     -26.486  -3.853  29.830  0.00  0.00    +0.000 A 
ATOM      2  C   UNL A   1     -25.923  -2.796  29.665  0.00  0.00    +0.000 A 
ATOM      3  C   UNL A   1     -24.668  -2.674  29.070  0.00  0.00    +0.000 A 
ATOM      4  C   UNL A   1     -23.957  -3.874  28.672  0.00  0.00    +0.000 A 
ATOM      5  C   UNL A   1     -24.634  -5.071  28.897  0.00  0.00    +0.000 A 
ATOM      6  C   UNL A   1     -25.731  -4.965  29.382  0.00  0.00    +0.000 A 
ENDROOT
BRANCH   3   7
ATOM      7  C   UNL A   1     -23.902  -1.389  28.850  0.00  0.00    +0.000 A 
ATOM      8  C   UNL A   1     -22.634  -1.242  29.135  0.00  0.00    +0.000 A 
ATOM      9  C   UNL A   1     -21.946  -0.027  28.901  0.00  0.00    +0.000 A 
ATOM     10  C   UNL A   1     -22.534   0.890  27.970  0.00  0.00    +0.000 A 
ATOM     11  C   UNL A   1     -24.247  -0.353  27.855  0.00  0.00    +0.000 A 
ATOM     12  C   UNL A   1     -23.667   0.699  27.525  0.00  0.00    +0.000 A 
ENDBRANCH   3   7
TORSDOF 1
ENDMDL
ENDMDL
