REMARK  Name = No_108-gen_results/8p0m/2024-11-26-14-13-15/
REMARK  9 active torsions:
REMARK  status: ('A' for Active; 'I' for Inactive)
REMARK    1  A    between atoms: C_1  and  C_2
REMARK    2  A    between atoms: C_5  and  O_11
REMARK    3  A    between atoms: N_8  and  C_10
REMARK    4  A    between atoms: C_10  and  C_19
REMARK    5  A    between atoms: O_11  and  C_12
REMARK    6  A    between atoms: C_12  and  C_13
REMARK    7  A    between atoms: C_13  and  C_14
REMARK    8  A    between atoms: C_14  and  C_15
REMARK    9  A    between atoms: C_15  and  C_16
REMARK                            x       y       z     vdW  Elec       q    Type
REMARK                         _______ _______ _______ _____ _____    ______ ____
ROOT
ATOM      1  C   UNL A   1     -28.016  -0.814  28.878  0.00  0.00    +0.055 A 
ATOM      2  C   UNL A   1     -28.182   0.428  28.113  0.00  0.00    +0.008 A 
ATOM      3  C   UNL A   1     -27.450   0.643  26.850  0.00  0.00    +0.037 A 
ATOM      4  C   UNL A   1     -26.181   0.036  26.715  0.00  0.00    +0.139 A 
ATOM      5  C   UNL A   1     -25.780  -0.933  27.694  0.00  0.00    +0.037 A 
ATOM      6  C   UNL A   1     -26.557  -1.213  28.741  0.00  0.00    +0.008 A 
ENDROOT
BRANCH   1   7
ATOM      7  C   UNL A   1     -28.469  -0.785  29.829  0.00  0.00    +0.265 C 
ATOM      8  N   UNL A   1     -29.610  -0.278  30.194  0.00  0.00    -0.197 NA
ATOM      9  O   UNL A   1     -28.039  -1.660  30.848  0.00  0.00    -0.268 OA
BRANCH   8  10
ATOM     10  C   UNL A   1     -30.467  -0.547  31.382  0.00  0.00    +0.142 C 
BRANCH  10  11
ATOM     11  C   UNL A   1     -30.171  -0.687  32.464  0.00  0.00    -0.001 A 
ATOM     12  C   UNL A   1     -31.058  -0.947  33.580  0.00  0.00    -0.003 A 
ATOM     13  C   UNL A   1     -30.625  -1.173  34.880  0.00  0.00    -0.000 A 
ATOM     14  C   UNL A   1     -29.236  -1.185  35.194  0.00  0.00    -0.000 A 
ATOM     15  C   UNL A   1     -28.290  -0.997  34.156  0.00  0.00    -0.000 A 
ATOM     16  C   UNL A   1     -28.747  -0.761  32.871  0.00  0.00    -0.003 A 
ENDBRANCH  10  11
ENDBRANCH   8  10
ENDBRANCH   1   7
BRANCH   4  17
ATOM     17  O   UNL A   1     -25.351   0.298  25.673  0.00  0.00    -0.475 OA
BRANCH  17  18
ATOM     18  C   UNL A   1     -24.686   1.516  25.683  0.00  0.00    +0.205 C 
BRANCH  18  19
ATOM     19  C   UNL A   1     -23.271   1.425  25.752  0.00  0.00    +0.048 C 
BRANCH  19  20
ATOM     20  C   UNL A   1     -22.680   1.849  27.085  0.00  0.00    +0.016 C 
BRANCH  20  21
ATOM     21  C   UNL A   1     -21.579   1.154  27.586  0.00  0.00    +0.114 C 
BRANCH  21  22
ATOM     22  C   UNL A   1     -21.781   0.077  28.487  0.00  0.00    +0.365 C 
ATOM     23  O   UNL A   1     -22.904  -0.064  29.004  0.00  0.00    -0.246 OA
ATOM     24  O   UNL A   1     -20.840  -0.723  28.703  0.00  0.00    -0.246 OA
ENDBRANCH  21  22
ENDBRANCH  20  21
ENDBRANCH  19  20
ENDBRANCH  18  19
ENDBRANCH  17  18
ENDBRANCH   4  17
TORSDOF 9
