MODEL 1080
MODEL 1
REMARK VINA RESULT:    -5.169      0.000      0.000
REMARK INTER + INTRA:          -5.615
REMARK INTER:                  -5.472
REMARK INTRA:                  -0.143
REMARK UNBOUND:                -0.143
REMARK  Name = No_1080-gen_results/8p0m/2024-11-26-14-13-15/
REMARK  1 active torsions:
REMARK  status: ('A' for Active; 'I' for Inactive)
REMARK    1  A    between atoms: C_3  and  C_4
REMARK                            x       y       z     vdW  Elec       q    Type
REMARK                         _______ _______ _______ _____ _____    ______ ____
ROOT
ATOM      1  C   UNL A   1     -24.549  -2.505  29.008  0.00  0.00    +0.043 A 
ATOM      2  C   UNL A   1     -25.868  -2.882  29.577  0.00  0.00    +0.008 A 
ATOM      3  C   UNL A   1     -26.274  -4.262  29.734  0.00  0.00    +0.001 A 
ATOM      4  C   UNL A   1     -25.367  -5.263  29.284  0.00  0.00    +0.000 A 
ATOM      5  C   UNL A   1     -24.222  -4.883  28.668  0.00  0.00    +0.001 A 
ATOM      6  C   UNL A   1     -23.920  -3.617  28.513  0.00  0.00    +0.008 A 
ENDROOT
BRANCH   1   9
ATOM      7 BR   UNL A   1     -21.948  -0.477  29.231  0.00  0.00    +0.011 Br
ATOM      8  C   UNL A   1     -23.234  -0.860  28.928  0.00  0.00    -0.018 C 
ATOM      9  C   UNL A   1     -24.152  -1.226  28.723  0.00  0.00    -0.053 C 
ENDBRANCH   1   9
TORSDOF 1
ENDMDL
ENDMDL
