REMARK  Name = No_1080-gen_results/8p0m/2024-11-26-14-13-15/
REMARK  1 active torsions:
REMARK  status: ('A' for Active; 'I' for Inactive)
REMARK    1  A    between atoms: C_3  and  C_4
REMARK                            x       y       z     vdW  Elec       q    Type
REMARK                         _______ _______ _______ _____ _____    ______ ____
ROOT
ATOM      1  C   UNL A   1     -27.731   2.215  30.725  0.00  0.00    +0.043 A 
ATOM      2  C   UNL A   1     -27.530   3.211  31.809  0.00  0.00    +0.008 A 
ATOM      3  C   UNL A   1     -27.120   4.573  31.539  0.00  0.00    +0.001 A 
ATOM      4  C   UNL A   1     -26.876   4.922  30.180  0.00  0.00    +0.000 A 
ATOM      5  C   UNL A   1     -26.960   3.961  29.229  0.00  0.00    +0.001 A 
ATOM      6  C   UNL A   1     -27.296   2.731  29.532  0.00  0.00    +0.008 A 
ENDROOT
BRANCH   1   9
ATOM      7 BR   UNL A   1     -28.115  -0.626  29.081  0.00  0.00    +0.011 Br
ATOM      8  C   UNL A   1     -28.069   0.210  30.172  0.00  0.00    -0.018 C 
ATOM      9  C   UNL A   1     -28.000   0.887  30.918  0.00  0.00    -0.053 C 
ENDBRANCH   1   9
TORSDOF 1
