REMARK  Name = No_1081-gen_results/8p0m/2024-11-26-14-13-15/
REMARK  7 active torsions:
REMARK  status: ('A' for Active; 'I' for Inactive)
REMARK    1  A    between atoms: C_2  and  C_12
REMARK    2  A    between atoms: C_10  and  C_15
REMARK    3  A    between atoms: C_12  and  O_13
REMARK    4  A    between atoms: O_13  and  C_18
REMARK    5  A    between atoms: C_19  and  C_32
REMARK    6  A    between atoms: C_22  and  C_28
REMARK    7  A    between atoms: C_32  and  C_33
REMARK                            x       y       z     vdW  Elec       q    Type
REMARK                         _______ _______ _______ _____ _____    ______ ____
ROOT
ATOM      1  C   UNL A   1     -32.001  -0.051  30.901  0.00  0.00    +0.181 C 
ATOM      2  C   UNL A   1     -32.782   0.716  30.525  0.00  0.00    +0.067 C 
ATOM      3  C   UNL A   1     -34.184   0.673  30.606  0.00  0.00    -0.016 A 
ATOM      4  C   UNL A   1     -35.071   1.642  30.108  0.00  0.00    +0.003 A 
ATOM      5  C   UNL A   1     -36.475   1.569  30.241  0.00  0.00    +0.080 A 
ATOM      6  C   UNL A   1     -36.929   0.374  30.878  0.00  0.00    +0.007 A 
ATOM      7  C   UNL A   1     -36.108  -0.592  31.345  0.00  0.00    +0.003 A 
ATOM      8  C   UNL A   1     -34.726  -0.455  31.209  0.00  0.00    +0.031 A 
ATOM      9  C   UNL A   1     -32.441  -1.299  31.648  0.00  0.00    +0.113 C 
ATOM     10  C   UNL A   1     -33.865  -1.441  31.731  0.00  0.00    +0.176 C 
ATOM     11  O   UNL A   1     -34.305  -2.494  32.360  0.00  0.00    -0.291 OA
ENDROOT
BRANCH   5  12
ATOM     12  C   UNL A   1     -37.320   2.588  29.760  0.00  0.00    +0.388 C 
ATOM     13  O   UNL A   1     -38.271   2.901  30.332  0.00  0.00    -0.241 OA
ATOM     14  O   UNL A   1     -36.928   3.184  28.698  0.00  0.00    -0.241 OA
ENDBRANCH   5  12
BRANCH   1  15
ATOM     15  O   UNL A   1     -30.710  -0.092  30.756  0.00  0.00    -0.448 OA
BRANCH  15  16
ATOM     16  C   UNL A   1     -30.071  -0.866  29.882  0.00  0.00    +0.341 C 
ATOM     17  O   UNL A   1     -30.660  -1.458  29.030  0.00  0.00    -0.245 OA
BRANCH  16  19
ATOM     18  C   UNL A   1     -28.016  -0.814  28.878  0.00  0.00    +0.006 A 
ATOM     19  C   UNL A   1     -28.469  -0.785  29.829  0.00  0.00    +0.076 A 
ATOM     20  C   UNL A   1     -26.504  -0.778  28.877  0.00  0.00    +0.001 A 
ATOM     21  C   UNL A   1     -25.654  -0.660  27.719  0.00  0.00    +0.002 A 
ATOM     22  C   UNL A   1     -27.918  -0.937  31.182  0.00  0.00    +0.006 A 
ATOM     23  C   UNL A   1     -26.542  -0.940  31.261  0.00  0.00    +0.000 A 
ATOM     24  C   UNL A   1     -25.783  -0.893  30.120  0.00  0.00    +0.007 A 
ATOM     25  C   UNL A   1     -24.310  -0.301  27.853  0.00  0.00    +0.030 A 
ATOM     26  C   UNL A   1     -23.667  -0.460  29.099  0.00  0.00    +0.145 A 
ATOM     27  C   UNL A   1     -24.370  -0.664  30.203  0.00  0.00    +0.084 A 
ATOM     28  F   UNL A   1     -22.357  -0.248  29.137  0.00  0.00    -0.204 F 
BRANCH  27  29
ATOM     29  C   UNL A   1     -23.672  -0.758  31.531  0.00  0.00    +0.286 C 
ATOM     30  N   UNL A   1     -23.979   0.012  32.553  0.00  0.00    -0.084 NA
ATOM     31  O   UNL A   1     -22.735  -1.551  31.686  0.00  0.00    -0.267 OA
ENDBRANCH  27  29
ENDBRANCH  16  19
ENDBRANCH  15  16
ENDBRANCH   1  15
BRANCH   2  32
ATOM     32  C   UNL A   1     -32.228   1.984  29.761  0.00  0.00    +0.034 C 
BRANCH  32  33
ATOM     33  C   UNL A   1     -31.086   2.251  29.421  0.00  0.00    -0.030 C 
ATOM     34  C   UNL A   1     -30.761   3.389  28.652  0.00  0.00    -0.030 C 
ATOM     35  C   UNL A   1     -31.745   4.212  28.250  0.00  0.00    +0.030 C 
ENDBRANCH  32  33
ENDBRANCH   2  32
TORSDOF 7
