MODEL 1081
MODEL 1
REMARK VINA RESULT:    -8.151      0.000      0.000
REMARK INTER + INTRA:         -13.103
REMARK INTER:                 -11.487
REMARK INTRA:                  -1.616
REMARK UNBOUND:                -1.616
REMARK  Name = No_1081-gen_results/8p0m/2024-11-26-14-13-15/
REMARK  7 active torsions:
REMARK  status: ('A' for Active; 'I' for Inactive)
REMARK    1  A    between atoms: C_2  and  C_12
REMARK    2  A    between atoms: C_10  and  C_15
REMARK    3  A    between atoms: C_12  and  O_13
REMARK    4  A    between atoms: O_13  and  C_18
REMARK    5  A    between atoms: C_19  and  C_32
REMARK    6  A    between atoms: C_22  and  C_28
REMARK    7  A    between atoms: C_32  and  C_33
REMARK                            x       y       z     vdW  Elec       q    Type
REMARK                         _______ _______ _______ _____ _____    ______ ____
ROOT
ATOM      1  C   UNL A   1     -11.618   1.426  35.097  0.00  0.00    +0.181 C 
ATOM      2  C   UNL A   1     -12.158   1.717  36.078  0.00  0.00    +0.067 C 
ATOM      3  C   UNL A   1     -13.388   2.374  36.257  0.00  0.00    -0.016 A 
ATOM      4  C   UNL A   1     -13.974   2.710  37.488  0.00  0.00    +0.003 A 
ATOM      5  C   UNL A   1     -15.230   3.343  37.618  0.00  0.00    +0.080 A 
ATOM      6  C   UNL A   1     -15.834   3.679  36.368  0.00  0.00    +0.007 A 
ATOM      7  C   UNL A   1     -15.288   3.397  35.165  0.00  0.00    +0.003 A 
ATOM      8  C   UNL A   1     -14.055   2.745  35.097  0.00  0.00    +0.031 A 
ATOM      9  C   UNL A   1     -12.262   1.700  33.748  0.00  0.00    +0.113 C 
ATOM     10  C   UNL A   1     -13.502   2.413  33.844  0.00  0.00    +0.176 C 
ATOM     11  O   UNL A   1     -14.103   2.680  32.719  0.00  0.00    -0.291 OA
ENDROOT
BRANCH   5  12
ATOM     12  C   UNL A   1     -15.794   3.622  38.878  0.00  0.00    +0.388 C 
ATOM     13  O   UNL A   1     -15.372   4.455  39.555  0.00  0.00    -0.241 OA
ATOM     14  O   UNL A   1     -16.836   2.947  39.185  0.00  0.00    -0.241 OA
ENDBRANCH   5  12
BRANCH   1  15
ATOM     15  O   UNL A   1     -10.442   0.911  34.894  0.00  0.00    -0.448 OA
BRANCH  15  16
ATOM     16  C   UNL A   1      -9.345   1.614  34.622  0.00  0.00    +0.341 C 
ATOM     17  O   UNL A   1      -9.385   2.798  34.483  0.00  0.00    -0.245 OA
BRANCH  16  19
ATOM     18  C   UNL A   1      -7.904  -0.161  34.561  0.00  0.00    +0.006 A 
ATOM     19  C   UNL A   1      -7.924   0.877  34.741  0.00  0.00    +0.076 A 
ATOM     20  C   UNL A   1      -6.553  -0.822  34.726  0.00  0.00    +0.001 A 
ATOM     21  C   UNL A   1      -6.226  -2.188  34.401  0.00  0.00    +0.002 A 
ATOM     22  C   UNL A   1      -6.939   1.789  35.336  0.00  0.00    +0.006 A 
ATOM     23  C   UNL A   1      -5.687   1.250  35.542  0.00  0.00    +0.000 A 
ATOM     24  C   UNL A   1      -5.451  -0.075  35.278  0.00  0.00    +0.007 A 
ATOM     25  C   UNL A   1      -4.895  -2.593  34.274  0.00  0.00    +0.030 A 
ATOM     26  C   UNL A   1      -3.871  -1.817  34.859  0.00  0.00    +0.145 A 
ATOM     27  C   UNL A   1      -4.109  -0.580  35.269  0.00  0.00    +0.084 A 
ATOM     28  F   UNL A   1      -2.643  -2.320  34.840  0.00  0.00    -0.204 F 
BRANCH  27  29
ATOM     29  C   UNL A   1      -2.989   0.256  35.822  0.00  0.00    +0.286 C 
ATOM     30  N   UNL A   1      -2.205   0.989  35.061  0.00  0.00    -0.084 NA
ATOM     31  O   UNL A   1      -2.741   0.239  37.034  0.00  0.00    -0.267 OA
ENDBRANCH  27  29
ENDBRANCH  16  19
ENDBRANCH  15  16
ENDBRANCH   1  15
BRANCH   2  32
ATOM     32  C   UNL A   1     -11.410   1.389  37.431  0.00  0.00    +0.034 C 
BRANCH  32  33
ATOM     33  C   UNL A   1     -11.351   0.341  38.054  0.00  0.00    -0.030 C 
ATOM     34  C   UNL A   1     -10.133  -0.232  38.478  0.00  0.00    -0.030 C 
ATOM     35  C   UNL A   1      -8.977   0.382  38.170  0.00  0.00    +0.030 C 
ENDBRANCH  32  33
ENDBRANCH   2  32
TORSDOF 7
ENDMDL
ENDMDL
