MODEL 1082
MODEL 1
REMARK VINA RESULT:    -5.437      0.000      0.000
REMARK INTER + INTRA:          -6.329
REMARK INTER:                  -6.073
REMARK INTRA:                  -0.256
REMARK UNBOUND:                -0.256
REMARK  Name = No_1082-gen_results/8p0m/2024-11-26-14-13-15/
REMARK  2 active torsions:
REMARK  status: ('A' for Active; 'I' for Inactive)
REMARK    1  A    between atoms: C_3  and  C_4
REMARK    2  A    between atoms: C_4  and  C_8
REMARK                            x       y       z     vdW  Elec       q    Type
REMARK                         _______ _______ _______ _____ _____    ______ ____
ROOT
ATOM      1  C   UNL A   1     -23.898  -3.867  28.560  0.00  0.00    -0.004 A 
ATOM      2  C   UNL A   1     -24.378  -4.781  28.769  0.00  0.00    -0.000 A 
ATOM      3  C   UNL A   1     -24.559  -2.676  28.933  0.00  0.00    -0.018 A 
ATOM      4  C   UNL A   1     -25.679  -5.076  29.396  0.00  0.00    -0.000 A 
ATOM      5  C   UNL A   1     -26.391  -3.943  29.789  0.00  0.00    -0.000 A 
ATOM      6  C   UNL A   1     -25.834  -2.717  29.613  0.00  0.00    -0.004 A 
ENDROOT
BRANCH   3   7
ATOM      7  C   UNL A   1     -23.975  -1.314  28.810  0.00  0.00    +0.052 C 
BRANCH   7   8
ATOM      8  C   UNL A   1     -22.598  -1.155  29.153  0.00  0.00    -0.026 C 
ATOM      9  C   UNL A   1     -21.912  -0.003  28.924  0.00  0.00    -0.030 C 
ATOM     10  C   UNL A   1     -22.404   0.896  27.958  0.00  0.00    +0.030 C 
ENDBRANCH   7   8
ENDBRANCH   3   7
TORSDOF 2
ENDMDL
ENDMDL
