MODEL 1083
MODEL 1
REMARK VINA RESULT:    -7.784      0.000      0.000
REMARK INTER + INTRA:          -9.799
REMARK INTER:                  -8.694
REMARK INTRA:                  -1.105
REMARK UNBOUND:                -1.105
REMARK  Name = No_1083-gen_results/8p0m/2024-11-26-14-13-15/
REMARK  2 active torsions:
REMARK  status: ('A' for Active; 'I' for Inactive)
REMARK    1  A    between atoms: C_3  and  C_4
REMARK    2  A    between atoms: C_6  and  C_13
REMARK                            x       y       z     vdW  Elec       q    Type
REMARK                         _______ _______ _______ _____ _____    ______ ____
ROOT
ATOM      1  C   UNL A   1     -24.474   1.587  26.522  0.00  0.00    +0.253 C 
ATOM      2  O   UNL A   1     -23.798   2.399  26.330  0.00  0.00    -0.270 OA
ATOM      3  N   UNL A   1     -24.116   0.399  27.160  0.00  0.00    -0.251 N 
ATOM      4  C   UNL A   1     -22.899   0.391  27.985  0.00  0.00    +0.063 C 
ATOM      5  C   UNL A   1     -25.001  -0.728  27.335  0.00  0.00    +0.133 C 
ATOM      6  C   UNL A   1     -23.019   0.039  29.113  0.00  0.00    -0.009 C 
ATOM      7  C   UNL A   1     -23.854   0.667  30.047  0.00  0.00    -0.028 C 
ATOM      8  C   UNL A   1     -24.621   1.732  29.689  0.00  0.00    -0.026 C 
ATOM      9  C   UNL A   1     -25.677   2.143  30.730  0.00  0.00    +0.052 C 
ATOM     10  C   UNL A   1     -26.650   1.460  30.482  0.00  0.00    -0.019 A 
ATOM     11  C   UNL A   1     -28.011   1.876  30.654  0.00  0.00    -0.004 A 
ATOM     12  C   UNL A   1     -29.160   0.985  30.230  0.00  0.00    -0.000 A 
ATOM     13  C   UNL A   1     -28.996   0.414  28.890  0.00  0.00    -0.000 A 
ATOM     14  C   UNL A   1     -27.648  -0.029  28.537  0.00  0.00    -0.002 A 
ATOM     15  C   UNL A   1     -26.601   0.537  29.150  0.00  0.00    +0.003 A 
ATOM     16  C   UNL A   1     -25.345  -0.000  28.592  0.00  0.00    +0.157 C 
ATOM     17  O   UNL A   1     -24.834  -0.798  29.534  0.00  0.00    -0.350 OA
ATOM     18  C   UNL A   1     -23.979  -1.789  29.462  0.00  0.00    +0.147 C 
ATOM     19  C   UNL A   1     -23.490   0.416  31.445  0.00  0.00    +0.030 C 
ATOM     20  C   UNL A   1     -22.904  -1.508  29.264  0.00  0.00    +0.059 C 
ENDROOT
BRANCH   1  24
ATOM     21  C   UNL A   1     -26.744   2.452  25.952  0.00  0.00    +0.004 A 
ATOM     22  C   UNL A   1     -27.801   2.386  25.367  0.00  0.00    +0.000 A 
ATOM     23  C   UNL A   1     -28.075   1.478  24.396  0.00  0.00    +0.000 A 
ATOM     24  C   UNL A   1     -25.693   1.462  25.722  0.00  0.00    +0.054 A 
ATOM     25  C   UNL A   1     -25.887   0.563  24.760  0.00  0.00    +0.004 A 
ATOM     26  C   UNL A   1     -27.127   0.471  24.050  0.00  0.00    +0.000 A 
BRANCH  23  27
ATOM     27  C   UNL A   1     -29.362   1.384  23.672  0.00  0.00    +0.003 A 
ATOM     28  C   UNL A   1     -29.978   2.424  23.001  0.00  0.00    +0.000 A 
ATOM     29  C   UNL A   1     -30.116   0.152  23.766  0.00  0.00    +0.042 A 
ATOM     30  C   UNL A   1     -31.374   0.033  23.119  0.00  0.00    +0.196 A 
ATOM     31  C   UNL A   1     -31.352   2.355  22.559  0.00  0.00    +0.003 A 
ATOM     32  C   UNL A   1     -31.998   1.118  22.595  0.00  0.00    +0.042 A 
ATOM     33  O   UNL A   1     -32.083  -1.131  23.195  0.00  0.00    -0.287 OA
ENDBRANCH  23  27
ENDBRANCH   1  24
TORSDOF 2
ENDMDL
ENDMDL
