REMARK  Name = No_1083-gen_results/8p0m/2024-11-26-14-13-15/
REMARK  2 active torsions:
REMARK  status: ('A' for Active; 'I' for Inactive)
REMARK    1  A    between atoms: C_3  and  C_4
REMARK    2  A    between atoms: C_6  and  C_13
REMARK                            x       y       z     vdW  Elec       q    Type
REMARK                         _______ _______ _______ _____ _____    ______ ____
ROOT
ATOM      1  C   UNL A   1     -30.150  -1.269  30.088  0.00  0.00    +0.253 C 
ATOM      2  O   UNL A   1     -31.061  -1.236  29.520  0.00  0.00    -0.270 OA
ATOM      3  N   UNL A   1     -30.039  -1.815  31.367  0.00  0.00    -0.251 N 
ATOM      4  C   UNL A   1     -31.073  -2.761  31.812  0.00  0.00    +0.063 C 
ATOM      5  C   UNL A   1     -28.837  -1.777  32.165  0.00  0.00    +0.133 C 
ATOM      6  C   UNL A   1     -30.701  -3.827  32.181  0.00  0.00    -0.009 C 
ATOM      7  C   UNL A   1     -29.980  -4.726  31.383  0.00  0.00    -0.028 C 
ATOM      8  C   UNL A   1     -29.630  -4.400  30.109  0.00  0.00    -0.026 C 
ATOM      9  C   UNL A   1     -28.620  -5.358  29.454  0.00  0.00    +0.052 C 
ATOM     10  C   UNL A   1     -27.528  -4.938  29.777  0.00  0.00    -0.019 A 
ATOM     11  C   UNL A   1     -26.349  -5.005  28.964  0.00  0.00    -0.004 A 
ATOM     12  C   UNL A   1     -25.051  -4.370  29.417  0.00  0.00    -0.000 A 
ATOM     13  C   UNL A   1     -25.211  -3.003  29.923  0.00  0.00    -0.000 A 
ATOM     14  C   UNL A   1     -26.394  -2.753  30.745  0.00  0.00    -0.002 A 
ATOM     15  C   UNL A   1     -27.471  -3.530  30.580  0.00  0.00    +0.003 A 
ATOM     16  C   UNL A   1     -28.566  -3.058  31.449  0.00  0.00    +0.157 C 
ATOM     17  O   UNL A   1     -28.677  -3.962  32.427  0.00  0.00    -0.350 OA
ATOM     18  C   UNL A   1     -29.190  -3.880  33.630  0.00  0.00    +0.147 C 
ATOM     19  C   UNL A   1     -30.058  -6.121  31.826  0.00  0.00    +0.030 C 
ATOM     20  C   UNL A   1     -30.316  -3.829  33.691  0.00  0.00    +0.059 C 
ENDROOT
BRANCH   1  24
ATOM     21  C   UNL A   1     -28.016  -0.814  28.878  0.00  0.00    +0.004 A 
ATOM     22  C   UNL A   1     -27.064  -0.119  28.608  0.00  0.00    +0.000 A 
ATOM     23  C   UNL A   1     -26.929   1.171  29.008  0.00  0.00    +0.000 A 
ATOM     24  C   UNL A   1     -29.071  -0.334  29.769  0.00  0.00    +0.054 A 
ATOM     25  C   UNL A   1     -29.013   0.933  30.172  0.00  0.00    +0.004 A 
ATOM     26  C   UNL A   1     -27.899   1.776  29.859  0.00  0.00    +0.000 A 
BRANCH  23  27
ATOM     27  C   UNL A   1     -25.770   2.034  28.688  0.00  0.00    +0.003 A 
ATOM     28  C   UNL A   1     -25.619   3.348  29.092  0.00  0.00    +0.000 A 
ATOM     29  C   UNL A   1     -24.764   1.528  27.780  0.00  0.00    +0.042 A 
ATOM     30  C   UNL A   1     -23.656   2.338  27.416  0.00  0.00    +0.196 A 
ATOM     31  C   UNL A   1     -24.619   4.223  28.523  0.00  0.00    +0.003 A 
ATOM     32  C   UNL A   1     -23.624   3.659  27.723  0.00  0.00    +0.042 A 
ATOM     33  O   UNL A   1     -22.699   1.860  26.569  0.00  0.00    -0.287 OA
ENDBRANCH  23  27
ENDBRANCH   1  24
TORSDOF 2
