REMARK  Name = No_1084-gen_results/8p0m/2024-11-26-14-13-15/
REMARK  4 active torsions:
REMARK  status: ('A' for Active; 'I' for Inactive)
REMARK    1  A    between atoms: C_7  and  C_8
REMARK    2  A    between atoms: C_8  and  C_9
REMARK    3  A    between atoms: C_13  and  O_17
REMARK    4  A    between atoms: O_17  and  C_18
REMARK                            x       y       z     vdW  Elec       q    Type
REMARK                         _______ _______ _______ _____ _____    ______ ____
ROOT
ATOM      1  C   UNL A   1     -29.485   0.877  27.087  0.00  0.00    -0.015 A 
ATOM      2  C   UNL A   1     -30.492   1.214  26.051  0.00  0.00    -0.004 A 
ATOM      3  C   UNL A   1     -31.773   0.708  25.900  0.00  0.00    +0.003 A 
ATOM      4  C   UNL A   1     -32.088  -0.392  26.731  0.00  0.00    +0.037 A 
ATOM      5  C   UNL A   1     -31.220  -0.860  27.715  0.00  0.00    +0.145 A 
ATOM      6  C   UNL A   1     -30.081  -0.312  27.922  0.00  0.00    +0.034 A 
ENDROOT
BRANCH   1   7
ATOM      7  C   UNL A   1     -28.540   1.202  27.245  0.00  0.00    +0.047 C 
ATOM      8  C   UNL A   1     -27.986   2.283  26.235  0.00  0.00    +0.009 C 
BRANCH   7  15
ATOM      9  F   UNL A   1     -28.073  -1.254  28.532  0.00  0.00    -0.204 F 
ATOM     10  C   UNL A   1     -27.359  -0.379  28.722  0.00  0.00    +0.137 A 
ATOM     11  C   UNL A   1     -26.332  -0.644  29.452  0.00  0.00    +0.030 A 
ATOM     12  C   UNL A   1     -25.256   0.320  29.782  0.00  0.00    +0.014 A 
ATOM     13  C   UNL A   1     -25.424   1.627  29.203  0.00  0.00    +0.058 A 
ATOM     14  C   UNL A   1     -26.526   1.825  28.403  0.00  0.00    +0.010 A 
ATOM     15  C   UNL A   1     -27.451   0.860  28.136  0.00  0.00    +0.010 A 
ATOM     16 CL   UNL A   1     -24.248   2.799  29.581  0.00  0.00    -0.082 Cl
ENDBRANCH   7  15
ENDBRANCH   1   7
BRANCH   5  17
ATOM     17  O   UNL A   1     -31.704  -1.873  28.500  0.00  0.00    -0.454 OA
BRANCH  17  18
ATOM     18  C   UNL A   1     -31.087  -2.172  29.655  0.00  0.00    +0.145 A 
ATOM     19  C   UNL A   1     -31.957  -2.579  30.740  0.00  0.00    +0.037 A 
ATOM     20  C   UNL A   1     -31.333  -2.821  31.919  0.00  0.00    +0.003 A 
ATOM     21  C   UNL A   1     -29.904  -2.819  32.086  0.00  0.00    +0.000 A 
ATOM     22  C   UNL A   1     -29.146  -2.458  30.942  0.00  0.00    +0.003 A 
ATOM     23  C   UNL A   1     -29.713  -2.144  29.837  0.00  0.00    +0.037 A 
ENDBRANCH  17  18
ENDBRANCH   5  17
TORSDOF 4
