MODEL 1084
MODEL 1
REMARK VINA RESULT:    -8.118      0.000      0.000
REMARK INTER + INTRA:         -11.371
REMARK INTER:                 -10.016
REMARK INTRA:                  -1.355
REMARK UNBOUND:                -1.355
REMARK  Name = No_1084-gen_results/8p0m/2024-11-26-14-13-15/
REMARK  4 active torsions:
REMARK  status: ('A' for Active; 'I' for Inactive)
REMARK    1  A    between atoms: C_7  and  C_8
REMARK    2  A    between atoms: C_8  and  C_9
REMARK    3  A    between atoms: C_13  and  O_17
REMARK    4  A    between atoms: O_17  and  C_18
REMARK                            x       y       z     vdW  Elec       q    Type
REMARK                         _______ _______ _______ _____ _____    ______ ____
ROOT
ATOM      1  C   UNL A   1     -22.953  -0.451  29.503  0.00  0.00    -0.015 A 
ATOM      2  C   UNL A   1     -21.514  -0.386  29.147  0.00  0.00    -0.004 A 
ATOM      3  C   UNL A   1     -20.890   0.452  28.237  0.00  0.00    +0.003 A 
ATOM      4  C   UNL A   1     -21.761   1.213  27.423  0.00  0.00    +0.037 A 
ATOM      5  C   UNL A   1     -23.143   1.213  27.601  0.00  0.00    +0.145 A 
ATOM      6  C   UNL A   1     -23.702   0.519  28.521  0.00  0.00    +0.034 A 
ENDROOT
BRANCH   1   7
ATOM      7  C   UNL A   1     -23.467  -1.040  30.146  0.00  0.00    +0.047 C 
ATOM      8  C   UNL A   1     -22.997  -1.016  31.654  0.00  0.00    +0.009 C 
BRANCH   7  15
ATOM      9  F   UNL A   1     -26.150  -0.802  30.951  0.00  0.00    -0.204 F 
ATOM     10  C   UNL A   1     -25.786  -1.793  30.508  0.00  0.00    +0.137 A 
ATOM     11  C   UNL A   1     -26.690  -2.692  30.330  0.00  0.00    +0.030 A 
ATOM     12  C   UNL A   1     -26.453  -4.023  29.724  0.00  0.00    +0.014 A 
ATOM     13  C   UNL A   1     -25.094  -4.262  29.314  0.00  0.00    +0.058 A 
ATOM     14  C   UNL A   1     -24.191  -3.241  29.501  0.00  0.00    +0.010 A 
ATOM     15  C   UNL A   1     -24.515  -2.034  30.045  0.00  0.00    +0.010 A 
ATOM     16 CL   UNL A   1     -24.742  -5.791  28.653  0.00  0.00    -0.082 Cl
ENDBRANCH   7  15
ENDBRANCH   1   7
BRANCH   5  17
ATOM     17  O   UNL A   1     -23.844   2.071  26.796  0.00  0.00    -0.454 OA
BRANCH  17  18
ATOM     18  C   UNL A   1     -24.843   1.599  26.031  0.00  0.00    +0.145 A 
ATOM     19  C   UNL A   1     -26.031   2.425  25.976  0.00  0.00    +0.037 A 
ATOM     20  C   UNL A   1     -27.056   1.914  25.251  0.00  0.00    +0.003 A 
ATOM     21  C   UNL A   1     -26.963   0.710  24.468  0.00  0.00    +0.000 A 
ATOM     22  C   UNL A   1     -25.733   0.008  24.554  0.00  0.00    +0.003 A 
ATOM     23  C   UNL A   1     -24.776   0.425  25.296  0.00  0.00    +0.037 A 
ENDBRANCH  17  18
ENDBRANCH   5  17
TORSDOF 4
ENDMDL
ENDMDL
