REMARK  Name = No_1085-gen_results/8p0m/2024-11-26-14-13-15/
REMARK  0 active torsions:
REMARK  status: ('A' for Active; 'I' for Inactive)
REMARK                            x       y       z     vdW  Elec       q    Type
REMARK                         _______ _______ _______ _____ _____    ______ ____
ROOT
ATOM      1  C   UNL A   1     -28.016  -0.814  28.878  0.00  0.00    -0.003 A 
ATOM      2  C   UNL A   1     -27.064  -0.119  28.608  0.00  0.00    -0.000 A 
ATOM      3  C   UNL A   1     -26.972   0.714  27.506  0.00  0.00    +0.001 A 
ATOM      4  C   UNL A   1     -28.105   0.774  26.642  0.00  0.00    +0.010 A 
ATOM      5  C   UNL A   1     -28.068   1.487  25.512  0.00  0.00    -0.012 A 
ATOM      6  C   UNL A   1     -29.269  -0.533  28.224  0.00  0.00    -0.004 A 
ATOM      7  C   UNL A   1     -29.223   0.136  27.033  0.00  0.00    +0.050 A 
ATOM      8  N   UNL A   1     -30.350   0.212  26.262  0.00  0.00    -0.254 N 
ATOM      9  C   UNL A   1     -26.919   2.178  25.125  0.00  0.00    -0.004 A 
ATOM     10  C   UNL A   1     -29.198   1.581  24.618  0.00  0.00    +0.112 C 
ATOM     11  C   UNL A   1     -30.355   0.843  25.038  0.00  0.00    +0.234 C 
ATOM     12  C   UNL A   1     -25.687   1.293  27.102  0.00  0.00    +0.000 A 
ATOM     13  C   UNL A   1     -25.685   2.167  25.946  0.00  0.00    -0.000 A 
ATOM     14  C   UNL A   1     -31.566  -0.518  26.603  0.00  0.00    +0.124 C 
ATOM     15  C   UNL A   1     -32.082  -0.060  27.789  0.00  0.00    -0.006 A 
ATOM     16  C   UNL A   1     -33.229   0.423  27.760  0.00  0.00    -0.003 A 
ATOM     17  C   UNL A   1     -31.366  -0.144  29.074  0.00  0.00    -0.020 A 
ATOM     18  C   UNL A   1     -30.334  -0.644  29.154  0.00  0.00    +0.054 C 
ATOM     19  O   UNL A   1     -31.229   0.630  24.195  0.00  0.00    -0.274 OA
ATOM     20  C   UNL A   1     -33.890   1.065  28.855  0.00  0.00    -0.000 A 
ATOM     21  C   UNL A   1     -33.255   0.938  30.109  0.00  0.00    -0.000 A 
ATOM     22  C   UNL A   1     -32.056   0.358  30.243  0.00  0.00    -0.004 A 
ENDROOT
TORSDOF 0
