REMARK  Name = No_1086-gen_results/8p0m/2024-11-26-14-13-15/
REMARK  6 active torsions:
REMARK  status: ('A' for Active; 'I' for Inactive)
REMARK    1  A    between atoms: C_2  and  O_7
REMARK    2  A    between atoms: O_7  and  C_8
REMARK    3  A    between atoms: N_11  and  C_29
REMARK    4  A    between atoms: C_15  and  C_16
REMARK    5  A    between atoms: C_24  and  C_25
REMARK    6  A    between atoms: C_29  and  C_30
REMARK                            x       y       z     vdW  Elec       q    Type
REMARK                         _______ _______ _______ _____ _____    ______ ____
ROOT
ATOM      1  C   UNL A   1     -28.016  -0.814  28.878  0.00  0.00    +0.037 A 
ATOM      2  C   UNL A   1     -28.469  -0.785  29.829  0.00  0.00    +0.139 A 
ATOM      3  C   UNL A   1     -27.087   0.290  28.638  0.00  0.00    +0.003 A 
ATOM      4  C   UNL A   1     -26.024   0.364  29.253  0.00  0.00    +0.007 A 
ATOM      5  C   UNL A   1     -27.537  -0.619  31.088  0.00  0.00    +0.037 A 
ATOM      6  C   UNL A   1     -26.384   0.183  30.801  0.00  0.00    +0.003 A 
ATOM      7  C   UNL A   1     -26.811   0.542  27.087  0.00  0.00    +0.000 A 
ATOM      8  C   UNL A   1     -25.380   0.662  26.762  0.00  0.00    +0.000 A 
ATOM      9  C   UNL A   1     -24.312   0.763  27.714  0.00  0.00    +0.007 A 
ATOM     10  C   UNL A   1     -24.707   0.746  29.073  0.00  0.00    +0.080 A 
ENDROOT
BRANCH   7  11
ATOM     11  C   UNL A   1     -27.669   0.648  26.215  0.00  0.00    +0.001 A 
ATOM     12  C   UNL A   1     -29.055   0.754  26.559  0.00  0.00    +0.011 A 
ATOM     13  C   UNL A   1     -30.077   0.930  25.594  0.00  0.00    +0.058 A 
ATOM     14  C   UNL A   1     -29.653   0.874  24.322  0.00  0.00    +0.011 A 
ATOM     15  C   UNL A   1     -27.537   0.828  24.783  0.00  0.00    +0.000 A 
ATOM     16  C   UNL A   1     -28.410   0.874  23.857  0.00  0.00    +0.001 A 
ATOM     17 CL   UNL A   1     -31.724   0.960  26.023  0.00  0.00    -0.082 Cl
ENDBRANCH   7  11
BRANCH  10  18
ATOM     18  C   UNL A   1     -23.623   0.849  30.079  0.00  0.00    +0.388 C 
ATOM     19  O   UNL A   1     -23.803   1.509  31.020  0.00  0.00    -0.241 OA
ATOM     20  O   UNL A   1     -22.602   0.027  29.984  0.00  0.00    -0.241 OA
ENDBRANCH  10  18
BRANCH   2  21
ATOM     21  O   UNL A   1     -29.510  -1.619  30.265  0.00  0.00    -0.470 OA
BRANCH  21  22
ATOM     22  C   UNL A   1     -30.724  -1.238  29.851  0.00  0.00    +0.241 C 
ATOM     23  C   UNL A   1     -31.569  -2.337  29.664  0.00  0.00    +0.266 C 
ATOM     24  O   UNL A   1     -31.263  -3.416  29.877  0.00  0.00    -0.271 OA
ATOM     25  N   UNL A   1     -32.815  -2.112  29.081  0.00  0.00    -0.273 N 
ATOM     26  C   UNL A   1     -33.284  -0.784  28.705  0.00  0.00    +0.094 C 
ATOM     27  C   UNL A   1     -31.036   0.048  29.535  0.00  0.00    +0.055 C 
ATOM     28  C   UNL A   1     -32.124   0.337  29.146  0.00  0.00    +0.026 C 
BRANCH  25  29
ATOM     29  C   UNL A   1     -33.793  -3.105  28.837  0.00  0.00    +0.120 C 
BRANCH  29  30
ATOM     30  C   UNL A   1     -34.806  -3.320  29.678  0.00  0.00    -0.002 A 
ATOM     31  C   UNL A   1     -35.176  -2.572  30.468  0.00  0.00    -0.003 A 
ATOM     32  C   UNL A   1     -36.342  -2.802  31.430  0.00  0.00    -0.000 A 
ATOM     33  C   UNL A   1     -36.960  -4.028  31.183  0.00  0.00    -0.000 A 
ATOM     34  C   UNL A   1     -36.547  -4.872  30.238  0.00  0.00    -0.000 A 
ATOM     35  C   UNL A   1     -35.427  -4.582  29.437  0.00  0.00    -0.003 A 
ENDBRANCH  29  30
ENDBRANCH  25  29
ENDBRANCH  21  22
ENDBRANCH   2  21
TORSDOF 6
