MODEL 1086
MODEL 1
REMARK VINA RESULT:    -7.660      0.000      0.000
REMARK INTER + INTRA:         -12.260
REMARK INTER:                 -10.347
REMARK INTRA:                  -1.913
REMARK UNBOUND:                -1.913
REMARK  Name = No_1086-gen_results/8p0m/2024-11-26-14-13-15/
REMARK  6 active torsions:
REMARK  status: ('A' for Active; 'I' for Inactive)
REMARK    1  A    between atoms: C_2  and  O_7
REMARK    2  A    between atoms: O_7  and  C_8
REMARK    3  A    between atoms: N_11  and  C_29
REMARK    4  A    between atoms: C_15  and  C_16
REMARK    5  A    between atoms: C_24  and  C_25
REMARK    6  A    between atoms: C_29  and  C_30
REMARK                            x       y       z     vdW  Elec       q    Type
REMARK                         _______ _______ _______ _____ _____    ______ ____
ROOT
ATOM      1  C   UNL A   1     -26.110 -12.724   6.238  0.00  0.00    +0.037 A 
ATOM      2  C   UNL A   1     -26.482 -11.929   5.656  0.00  0.00    +0.139 A 
ATOM      3  C   UNL A   1     -25.226 -13.626   5.501  0.00  0.00    +0.003 A 
ATOM      4  C   UNL A   1     -24.116 -13.252   5.123  0.00  0.00    +0.007 A 
ATOM      5  C   UNL A   1     -25.450 -11.071   4.830  0.00  0.00    +0.037 A 
ATOM      6  C   UNL A   1     -24.341 -11.856   4.374  0.00  0.00    +0.003 A 
ATOM      7  C   UNL A   1     -25.086 -15.058   6.190  0.00  0.00    +0.000 A 
ATOM      8  C   UNL A   1     -23.690 -15.507   6.324  0.00  0.00    +0.000 A 
ATOM      9  C   UNL A   1     -22.548 -14.873   5.731  0.00  0.00    +0.007 A 
ATOM     10  C   UNL A   1     -22.827 -13.722   4.955  0.00  0.00    +0.080 A 
ENDROOT
BRANCH   7  11
ATOM     11  C   UNL A   1     -26.016 -15.762   6.574  0.00  0.00    +0.001 A 
ATOM     12  C   UNL A   1     -25.974 -16.398   7.856  0.00  0.00    +0.011 A 
ATOM     13  C   UNL A   1     -27.042 -17.177   8.365  0.00  0.00    +0.058 A 
ATOM     14  C   UNL A   1     -28.051 -17.365   7.501  0.00  0.00    +0.011 A 
ATOM     15  C   UNL A   1     -27.320 -15.999   5.987  0.00  0.00    +0.000 A 
ATOM     16  C   UNL A   1     -28.270 -16.773   6.334  0.00  0.00    +0.001 A 
ATOM     17 CL   UNL A   1     -26.928 -17.998   9.852  0.00  0.00    -0.082 Cl
ENDBRANCH   7  11
BRANCH  10  18
ATOM     18  C   UNL A   1     -21.664 -13.047   4.331  0.00  0.00    +0.388 C 
ATOM     19  O   UNL A   1     -21.014 -12.342   4.990  0.00  0.00    -0.241 OA
ATOM     20  O   UNL A   1     -21.283 -13.436   3.135  0.00  0.00    -0.241 OA
ENDBRANCH  10  18
BRANCH   2  21
ATOM     21  O   UNL A   1     -27.466 -11.012   6.057  0.00  0.00    -0.470 OA
BRANCH  21  22
ATOM     22  C   UNL A   1     -27.644 -10.947   7.381  0.00  0.00    +0.241 C 
ATOM     23  C   UNL A   1     -28.758 -11.690   7.785  0.00  0.00    +0.266 C 
ATOM     24  O   UNL A   1     -29.405 -12.303   7.071  0.00  0.00    -0.271 OA
ATOM     25  N   UNL A   1     -29.165 -11.588   9.115  0.00  0.00    -0.273 N 
ATOM     26  C   UNL A   1     -28.455 -10.782  10.099  0.00  0.00    +0.094 C 
ATOM     27  C   UNL A   1     -26.901 -10.150   8.196  0.00  0.00    +0.055 C 
ATOM     28  C   UNL A   1     -27.112 -10.105   9.368  0.00  0.00    +0.026 C 
BRANCH  25  29
ATOM     29  C   UNL A   1     -30.256 -12.282   9.689  0.00  0.00    +0.120 C 
BRANCH  29  30
ATOM     30  C   UNL A   1     -30.081 -13.346  10.476  0.00  0.00    -0.002 A 
ATOM     31  C   UNL A   1     -30.107 -13.327  11.624  0.00  0.00    -0.003 A 
ATOM     32  C   UNL A   1     -29.918 -14.540  12.536  0.00  0.00    -0.000 A 
ATOM     33  C   UNL A   1     -29.776 -15.710  11.789  0.00  0.00    -0.000 A 
ATOM     34  C   UNL A   1     -29.786 -15.726  10.457  0.00  0.00    -0.000 A 
ATOM     35  C   UNL A   1     -29.918 -14.540   9.711  0.00  0.00    -0.003 A 
ENDBRANCH  29  30
ENDBRANCH  25  29
ENDBRANCH  21  22
ENDBRANCH   2  21
TORSDOF 6
ENDMDL
ENDMDL
