MODEL 1087
MODEL 1
REMARK VINA RESULT:    -4.256      0.000      0.000
REMARK INTER + INTRA:          -4.256
REMARK INTER:                  -4.256
REMARK INTRA:                   0.000
REMARK UNBOUND:                 0.000
REMARK  Name = No_1087-gen_results/8p0m/2024-11-26-14-13-15/
REMARK  0 active torsions:
REMARK  status: ('A' for Active; 'I' for Inactive)
REMARK                            x       y       z     vdW  Elec       q    Type
REMARK                         _______ _______ _______ _____ _____    ______ ____
ROOT
ATOM      1  C   UNL A   1     -26.188  -4.798  29.656  0.00  0.00    +0.000 A 
ATOM      2  C   UNL A   1     -26.127  -3.750  29.746  0.00  0.00    +0.000 A 
ATOM      3  C   UNL A   1     -25.037  -5.398  28.983  0.00  0.00    +0.000 A 
ATOM      4  C   UNL A   1     -23.978  -4.645  28.537  0.00  0.00    +0.000 A 
ATOM      5  C   UNL A   1     -25.155  -2.719  29.383  0.00  0.00    +0.000 A 
ATOM      6  C   UNL A   1     -24.036  -3.289  28.730  0.00  0.00    +0.000 A 
ENDROOT
TORSDOF 0
ENDMDL
ENDMDL
