REMARK  Name = No_1088-gen_results/8p0m/2024-11-26-14-13-15/
REMARK  1 active torsions:
REMARK  status: ('A' for Active; 'I' for Inactive)
REMARK    1  A    between atoms: C_3  and  C_4
REMARK                            x       y       z     vdW  Elec       q    Type
REMARK                         _______ _______ _______ _____ _____    ______ ____
ROOT
ATOM      1  C   UNL A   1     -28.016  -0.814  28.878  0.00  0.00    +0.012 A 
ATOM      2  C   UNL A   1     -27.064  -0.119  28.608  0.00  0.00    +0.004 A 
ATOM      3  C   UNL A   1     -25.765  -0.390  29.036  0.00  0.00    +0.039 A 
ATOM      4  C   UNL A   1     -27.897  -1.895  29.859  0.00  0.00    +0.061 A 
ATOM      5  C   UNL A   1     -26.653  -2.340  30.273  0.00  0.00    +0.053 A 
ATOM      6  C   UNL A   1     -25.533  -1.557  29.909  0.00  0.00    +0.197 A 
ATOM      7 CL   UNL A   1     -29.251  -2.845  30.283  0.00  0.00    -0.082 Cl
ATOM      8  O   UNL A   1     -24.312  -1.862  30.165  0.00  0.00    -0.286 OA
ENDROOT
BRANCH   3   9
ATOM      9  C   UNL A   1     -24.552   0.406  28.765  0.00  0.00    +0.005 A 
ATOM     10  C   UNL A   1     -24.696   1.448  27.799  0.00  0.00    +0.030 A 
ATOM     11  C   UNL A   1     -23.582   2.216  27.463  0.00  0.00    +0.140 A 
ATOM     12  C   UNL A   1     -22.321   1.824  27.981  0.00  0.00    +0.030 A 
ATOM     13  C   UNL A   1     -22.178   0.817  28.888  0.00  0.00    +0.002 A 
ATOM     14  C   UNL A   1     -23.318   0.042  29.260  0.00  0.00    +0.000 A 
ATOM     15  F   UNL A   1     -23.649   3.177  26.590  0.00  0.00    -0.204 F 
ENDBRANCH   3   9
TORSDOF 1
