MODEL 1088
MODEL 1
REMARK VINA RESULT:    -6.838      0.000      0.000
REMARK INTER + INTRA:          -7.476
REMARK INTER:                  -7.237
REMARK INTRA:                  -0.239
REMARK UNBOUND:                -0.239
REMARK  Name = No_1088-gen_results/8p0m/2024-11-26-14-13-15/
REMARK  1 active torsions:
REMARK  status: ('A' for Active; 'I' for Inactive)
REMARK    1  A    between atoms: C_3  and  C_4
REMARK                            x       y       z     vdW  Elec       q    Type
REMARK                         _______ _______ _______ _____ _____    ______ ____
ROOT
ATOM      1  C   UNL A   1     -23.936   0.432  27.201  0.00  0.00    +0.012 A 
ATOM      2  C   UNL A   1     -24.597  -0.525  27.532  0.00  0.00    +0.004 A 
ATOM      3  C   UNL A   1     -24.380  -1.245  28.706  0.00  0.00    +0.039 A 
ATOM      4  C   UNL A   1     -22.712   0.780  27.927  0.00  0.00    +0.061 A 
ATOM      5  C   UNL A   1     -22.443   0.224  29.166  0.00  0.00    +0.053 A 
ATOM      6  C   UNL A   1     -23.253  -0.859  29.578  0.00  0.00    +0.197 A 
ATOM      7 CL   UNL A   1     -21.747   2.099  27.432  0.00  0.00    -0.082 Cl
ATOM      8  O   UNL A   1     -23.169  -1.445  30.718  0.00  0.00    -0.286 OA
ENDROOT
BRANCH   3   9
ATOM      9  C   UNL A   1     -25.127  -2.426  29.180  0.00  0.00    +0.005 A 
ATOM     10  C   UNL A   1     -24.616  -3.692  28.760  0.00  0.00    +0.030 A 
ATOM     11  C   UNL A   1     -25.293  -4.852  29.137  0.00  0.00    +0.140 A 
ATOM     12  C   UNL A   1     -26.546  -4.711  29.788  0.00  0.00    +0.030 A 
ATOM     13  C   UNL A   1     -27.045  -3.502  30.172  0.00  0.00    +0.002 A 
ATOM     14  C   UNL A   1     -26.345  -2.310  29.815  0.00  0.00    +0.000 A 
ATOM     15  F   UNL A   1     -24.880  -6.033  28.785  0.00  0.00    -0.204 F 
ENDBRANCH   3   9
TORSDOF 1
ENDMDL
ENDMDL
