MODEL 1089
MODEL 1
REMARK VINA RESULT:    -5.329      0.000      0.000
REMARK INTER + INTRA:          -5.789
REMARK INTER:                  -5.641
REMARK INTRA:                  -0.148
REMARK UNBOUND:                -0.148
REMARK  Name = No_1089-gen_results/8p0m/2024-11-26-14-13-15/
REMARK  1 active torsions:
REMARK  status: ('A' for Active; 'I' for Inactive)
REMARK    1  A    between atoms: C_4  and  C_6
REMARK                            x       y       z     vdW  Elec       q    Type
REMARK                         _______ _______ _______ _____ _____    ______ ____
ROOT
ATOM      1  C   UNL A   1     -24.629  -5.264  28.924  0.00  0.00    -0.000 A 
ATOM      2  C   UNL A   1     -25.607  -5.176  29.306  0.00  0.00    -0.000 A 
ATOM      3  C   UNL A   1     -23.924  -3.957  28.637  0.00  0.00    -0.000 A 
ATOM      4  C   UNL A   1     -24.535  -2.744  29.018  0.00  0.00    -0.000 A 
ATOM      5  C   UNL A   1     -26.443  -4.065  29.814  0.00  0.00    -0.000 A 
ATOM      6  C   UNL A   1     -25.804  -2.822  29.588  0.00  0.00    -0.000 A 
ENDROOT
BRANCH   4   7
ATOM      7  C   UNL A   1     -23.930  -1.486  28.792  0.00  0.00    -0.005 C 
ATOM      8  C   UNL A   1     -22.744  -1.196  29.161  0.00  0.00    -0.026 C 
ATOM      9  C   UNL A   1     -22.060   0.053  28.778  0.00  0.00    +0.031 C 
ENDBRANCH   4   7
TORSDOF 1
ENDMDL
ENDMDL
