MODEL 108
MODEL 1
REMARK VINA RESULT:    -6.273      0.000      0.000
REMARK INTER + INTRA:         -10.339
REMARK INTER:                  -9.573
REMARK INTRA:                  -0.766
REMARK UNBOUND:                -0.766
REMARK  Name = No_108-gen_results/8p0m/2024-11-26-14-13-15/
REMARK  9 active torsions:
REMARK  status: ('A' for Active; 'I' for Inactive)
REMARK    1  A    between atoms: C_1  and  C_2
REMARK    2  A    between atoms: C_5  and  O_11
REMARK    3  A    between atoms: N_8  and  C_10
REMARK    4  A    between atoms: C_10  and  C_19
REMARK    5  A    between atoms: O_11  and  C_12
REMARK    6  A    between atoms: C_12  and  C_13
REMARK    7  A    between atoms: C_13  and  C_14
REMARK    8  A    between atoms: C_14  and  C_15
REMARK    9  A    between atoms: C_15  and  C_16
REMARK                            x       y       z     vdW  Elec       q    Type
REMARK                         _______ _______ _______ _____ _____    ______ ____
ROOT
ATOM      1  C   UNL A   1      -7.207  -0.063  35.003  0.00  0.00    +0.055 A 
ATOM      2  C   UNL A   1      -6.024   0.362  35.761  0.00  0.00    +0.008 A 
ATOM      3  C   UNL A   1      -4.688  -0.182  35.449  0.00  0.00    +0.037 A 
ATOM      4  C   UNL A   1      -4.618  -1.500  34.942  0.00  0.00    +0.139 A 
ATOM      5  C   UNL A   1      -5.837  -2.142  34.541  0.00  0.00    +0.037 A 
ATOM      6  C   UNL A   1      -7.015  -1.538  34.696  0.00  0.00    +0.008 A 
ENDROOT
BRANCH   1   7
ATOM      7  C   UNL A   1      -8.114   0.278  35.416  0.00  0.00    +0.265 C 
ATOM      8  N   UNL A   1      -9.107  -0.397  35.918  0.00  0.00    -0.197 NA
ATOM      9  O   UNL A   1      -8.246   1.618  35.835  0.00  0.00    -0.268 OA
BRANCH   8  10
ATOM     10  C   UNL A   1     -10.193   0.008  36.853  0.00  0.00    +0.142 C 
BRANCH  10  11
ATOM     11  C   UNL A   1     -10.705  -0.593  37.662  0.00  0.00    -0.001 A 
ATOM     12  C   UNL A   1     -11.035  -0.143  39.000  0.00  0.00    -0.003 A 
ATOM     13  C   UNL A   1     -11.723  -0.911  39.930  0.00  0.00    -0.000 A 
ATOM     14  C   UNL A   1     -12.177  -2.221  39.601  0.00  0.00    -0.000 A 
ATOM     15  C   UNL A   1     -11.950  -2.725  38.297  0.00  0.00    -0.000 A 
ATOM     16  C   UNL A   1     -11.251  -1.945  37.392  0.00  0.00    -0.003 A 
ENDBRANCH  10  11
ENDBRANCH   8  10
ENDBRANCH   1   7
BRANCH   4  17
ATOM     17  O   UNL A   1      -3.443  -2.160  34.778  0.00  0.00    -0.475 OA
BRANCH  17  18
ATOM     18  C   UNL A   1      -3.093  -2.517  33.483  0.00  0.00    +0.205 C 
BRANCH  18  19
ATOM     19  C   UNL A   1      -1.930  -1.876  32.980  0.00  0.00    +0.048 C 
BRANCH  19  20
ATOM     20  C   UNL A   1      -0.906  -2.821  32.375  0.00  0.00    +0.016 C 
BRANCH  20  21
ATOM     21  C   UNL A   1      -0.056  -2.345  31.377  0.00  0.00    +0.114 C 
BRANCH  21  22
ATOM     22  C   UNL A   1      -0.518  -2.278  30.037  0.00  0.00    +0.365 C 
ATOM     23  O   UNL A   1      -0.912  -1.182  29.598  0.00  0.00    -0.246 OA
ATOM     24  O   UNL A   1      -0.476  -3.308  29.324  0.00  0.00    -0.246 OA
ENDBRANCH  21  22
ENDBRANCH  20  21
ENDBRANCH  19  20
ENDBRANCH  18  19
ENDBRANCH  17  18
ENDBRANCH   4  17
TORSDOF 9
ENDMDL
ENDMDL
