REMARK  Name = No_1090-gen_results/8p0m/2024-11-26-14-13-15/
REMARK  2 active torsions:
REMARK  status: ('A' for Active; 'I' for Inactive)
REMARK    1  A    between atoms: C_3  and  C_13
REMARK    2  A    between atoms: C_6  and  N_7
REMARK                            x       y       z     vdW  Elec       q    Type
REMARK                         _______ _______ _______ _____ _____    ______ ____
ROOT
ATOM      1  C   UNL A   1     -28.016  -0.814  28.878  0.00  0.00    +0.015 A 
ATOM      2  C   UNL A   1     -27.064  -0.119  28.608  0.00  0.00    +0.001 A 
ATOM      3  C   UNL A   1     -25.765  -0.390  29.036  0.00  0.00    +0.002 A 
ATOM      4  C   UNL A   1     -25.530  -1.530  29.901  0.00  0.00    +0.001 A 
ATOM      5  C   UNL A   1     -26.689  -2.289  30.181  0.00  0.00    +0.015 A 
ATOM      6  C   UNL A   1     -27.873  -1.951  29.737  0.00  0.00    +0.048 A 
ENDROOT
BRANCH   6   7
ATOM      7  N   UNL A   1     -28.929  -2.758  30.128  0.00  0.00    -0.307 N 
ATOM      8  C   UNL A   1     -30.131  -2.316  30.354  0.00  0.00    +0.091 C 
ATOM      9  C   UNL A   1     -31.139  -3.335  30.607  0.00  0.00    +0.021 C 
ATOM     10  C   UNL A   1     -28.771  -4.157  30.271  0.00  0.00    +0.091 C 
ATOM     11  C   UNL A   1     -29.687  -5.100  30.553  0.00  0.00    +0.021 C 
ATOM     12  C   UNL A   1     -30.898  -4.608  30.785  0.00  0.00    +0.004 C 
ENDBRANCH   6   7
BRANCH   3  13
ATOM     13  C   UNL A   1     -24.421   0.234  28.717  0.00  0.00    +0.019 C 
ATOM     14  C   UNL A   1     -24.056   1.345  29.394  0.00  0.00    +0.106 C 
ATOM     15  N   UNL A   1     -22.875   1.938  28.995  0.00  0.00    -0.127 NA
ENDBRANCH   3  13
TORSDOF 2
