MODEL 1090
MODEL 1
REMARK VINA RESULT:    -6.155      0.000      0.000
REMARK INTER + INTRA:          -7.251
REMARK INTER:                  -6.875
REMARK INTRA:                  -0.376
REMARK UNBOUND:                -0.376
REMARK  Name = No_1090-gen_results/8p0m/2024-11-26-14-13-15/
REMARK  2 active torsions:
REMARK  status: ('A' for Active; 'I' for Inactive)
REMARK    1  A    between atoms: C_3  and  C_13
REMARK    2  A    between atoms: C_6  and  N_7
REMARK                            x       y       z     vdW  Elec       q    Type
REMARK                         _______ _______ _______ _____ _____    ______ ____
ROOT
ATOM      1  C   UNL A   1     -23.783  -3.170  28.831  0.00  0.00    +0.015 A 
ATOM      2  C   UNL A   1     -24.578  -4.017  29.166  0.00  0.00    +0.001 A 
ATOM      3  C   UNL A   1     -25.868  -3.732  29.611  0.00  0.00    +0.002 A 
ATOM      4  C   UNL A   1     -26.280  -2.347  29.742  0.00  0.00    +0.001 A 
ATOM      5  C   UNL A   1     -25.297  -1.414  29.341  0.00  0.00    +0.015 A 
ATOM      6  C   UNL A   1     -24.105  -1.779  28.941  0.00  0.00    +0.048 A 
ENDROOT
BRANCH   6   7
ATOM      7  N   UNL A   1     -23.224  -0.757  28.625  0.00  0.00    -0.307 N 
ATOM      8  C   UNL A   1     -21.977  -0.739  28.992  0.00  0.00    +0.091 C 
ATOM      9  C   UNL A   1     -21.173   0.339  28.436  0.00  0.00    +0.021 C 
ATOM     10  C   UNL A   1     -23.627   0.340  27.827  0.00  0.00    +0.091 C 
ATOM     11  C   UNL A   1     -22.902   1.367  27.350  0.00  0.00    +0.021 C 
ATOM     12  C   UNL A   1     -21.637   1.353  27.754  0.00  0.00    +0.004 C 
ENDBRANCH   6   7
BRANCH   3  13
ATOM     13  C   UNL A   1     -27.064  -4.603  29.941  0.00  0.00    +0.019 C 
ATOM     14  C   UNL A   1     -28.116  -4.033  30.568  0.00  0.00    +0.106 C 
ATOM     15  N   UNL A   1     -29.134  -4.886  30.943  0.00  0.00    -0.127 NA
ENDBRANCH   3  13
TORSDOF 2
ENDMDL
ENDMDL
