MODEL 1091
MODEL 1
REMARK VINA RESULT:    -8.316      0.000      0.000
REMARK INTER + INTRA:         -10.833
REMARK INTER:                 -10.261
REMARK INTRA:                  -0.572
REMARK UNBOUND:                -0.572
REMARK  Name = No_1091-gen_results/8p0m/2024-11-26-14-13-15/
REMARK  4 active torsions:
REMARK  status: ('A' for Active; 'I' for Inactive)
REMARK    1  A    between atoms: C_3  and  C_16
REMARK    2  A    between atoms: C_6  and  C_7
REMARK    3  A    between atoms: N_9  and  C_10
REMARK    4  A    between atoms: N_24  and  C_27
REMARK                            x       y       z     vdW  Elec       q    Type
REMARK                         _______ _______ _______ _____ _____    ______ ____
ROOT
ATOM      1  C   UNL A   1     -25.316   1.986  26.051  0.00  0.00    +0.089 A 
ATOM      2  C   UNL A   1     -24.229   2.520  25.520  0.00  0.00    +0.018 A 
ATOM      3  C   UNL A   1     -22.952   2.237  26.203  0.00  0.00    +0.002 A 
ATOM      4  C   UNL A   1     -22.977   1.455  27.365  0.00  0.00    +0.006 A 
ATOM      5  C   UNL A   1     -24.213   0.943  27.797  0.00  0.00    +0.070 A 
ATOM      6  C   UNL A   1     -25.376   1.171  27.071  0.00  0.00    +0.087 A 
ATOM      7  C   UNL A   1     -24.251   0.067  28.982  0.00  0.00    +0.255 C 
ATOM      8  N   UNL A   1     -24.838  -0.964  29.004  0.00  0.00    -0.236 N 
ATOM      9  C   UNL A   1     -26.032  -0.995  28.432  0.00  0.00    +0.213 C 
ATOM     10  N   UNL A   1     -26.186  -0.046  27.278  0.00  0.00    -0.214 NA
ATOM     11  O   UNL A   1     -23.410   0.378  29.921  0.00  0.00    -0.270 OA
ENDROOT
BRANCH   8  12
ATOM     12  C   UNL A   1     -24.813  -2.014  29.987  0.00  0.00    +0.056 A 
ATOM     13  C   UNL A   1     -23.887  -2.706  29.761  0.00  0.00    +0.015 A 
ATOM     14  C   UNL A   1     -24.001  -3.778  29.182  0.00  0.00    +0.001 A 
ATOM     15  C   UNL A   1     -25.194  -4.355  29.023  0.00  0.00    +0.000 A 
ATOM     16  C   UNL A   1     -26.261  -3.831  29.815  0.00  0.00    +0.001 A 
ATOM     17  C   UNL A   1     -26.053  -2.601  30.382  0.00  0.00    +0.015 A 
ENDBRANCH   8  12
BRANCH   1  20
ATOM     18  C   UNL A   1     -27.534   2.923  25.546  0.00  0.00    +0.269 C 
ATOM     19  O   UNL A   1     -27.518   3.605  26.476  0.00  0.00    -0.268 OA
ATOM     20  N   UNL A   1     -26.493   2.092  25.185  0.00  0.00    -0.174 NA
BRANCH  18  26
ATOM     21  C   UNL A   1     -28.890   1.957  23.567  0.00  0.00    +0.005 A 
ATOM     22  C   UNL A   1     -29.899   1.912  22.903  0.00  0.00    +0.000 A 
ATOM     23  C   UNL A   1     -30.935   2.818  23.107  0.00  0.00    -0.000 A 
ATOM     24  C   UNL A   1     -30.856   3.809  24.149  0.00  0.00    +0.000 A 
ATOM     25  C   UNL A   1     -29.664   3.775  24.884  0.00  0.00    +0.005 A 
ATOM     26  C   UNL A   1     -28.722   2.887  24.662  0.00  0.00    +0.055 A 
BRANCH  23  27
ATOM     27  C   UNL A   1     -32.199   2.872  22.254  0.00  0.00    -0.000 A 
ATOM     28  C   UNL A   1     -32.130   2.833  20.914  0.00  0.00    -0.004 A 
ATOM     29  C   UNL A   1     -33.355   2.930  20.166  0.00  0.00    -0.022 A 
ATOM     30  C   UNL A   1     -33.375   2.849  18.760  0.00  0.00    +0.031 C 
ATOM     31  C   UNL A   1     -33.490   3.112  22.859  0.00  0.00    -0.000 A 
ATOM     32  C   UNL A   1     -34.638   3.162  20.781  0.00  0.00    -0.004 A 
ATOM     33  C   UNL A   1     -34.692   3.242  22.117  0.00  0.00    -0.000 A 
ENDBRANCH  23  27
ENDBRANCH  18  26
ENDBRANCH   1  20
TORSDOF 4
ENDMDL
ENDMDL
