REMARK  Name = No_1091-gen_results/8p0m/2024-11-26-14-13-15/
REMARK  4 active torsions:
REMARK  status: ('A' for Active; 'I' for Inactive)
REMARK    1  A    between atoms: C_3  and  C_16
REMARK    2  A    between atoms: C_6  and  C_7
REMARK    3  A    between atoms: N_9  and  C_10
REMARK    4  A    between atoms: N_24  and  C_27
REMARK                            x       y       z     vdW  Elec       q    Type
REMARK                         _______ _______ _______ _____ _____    ______ ____
ROOT
ATOM      1  C   UNL A   1     -29.845  -4.966  31.013  0.00  0.00    +0.089 A 
ATOM      2  C   UNL A   1     -29.662  -5.569  32.175  0.00  0.00    +0.018 A 
ATOM      3  C   UNL A   1     -30.559  -6.699  32.482  0.00  0.00    +0.002 A 
ATOM      4  C   UNL A   1     -31.547  -7.038  31.548  0.00  0.00    +0.006 A 
ATOM      5  C   UNL A   1     -31.605  -6.311  30.346  0.00  0.00    +0.070 A 
ATOM      6  C   UNL A   1     -30.683  -5.309  30.070  0.00  0.00    +0.087 A 
ATOM      7  C   UNL A   1     -32.597  -6.693  29.325  0.00  0.00    +0.255 C 
ATOM      8  N   UNL A   1     -32.324  -6.830  28.179  0.00  0.00    -0.236 N 
ATOM      9  C   UNL A   1     -31.502  -5.942  27.641  0.00  0.00    +0.213 C 
ATOM     10  N   UNL A   1     -30.508  -5.360  28.605  0.00  0.00    -0.214 NA
ATOM     11  O   UNL A   1     -33.738  -7.100  29.794  0.00  0.00    -0.270 OA
ENDROOT
BRANCH   8  12
ATOM     12  C   UNL A   1     -33.108  -7.383  27.107  0.00  0.00    +0.056 A 
ATOM     13  C   UNL A   1     -33.034  -8.557  27.166  0.00  0.00    +0.015 A 
ATOM     14  C   UNL A   1     -32.290  -9.200  26.437  0.00  0.00    +0.001 A 
ATOM     15  C   UNL A   1     -31.736  -8.649  25.355  0.00  0.00    +0.000 A 
ATOM     16  C   UNL A   1     -32.287  -7.403  24.927  0.00  0.00    +0.001 A 
ATOM     17  C   UNL A   1     -33.068  -6.736  25.835  0.00  0.00    +0.015 A 
ENDBRANCH   8  12
BRANCH   1  20
ATOM     18  C   UNL A   1     -29.073  -2.784  30.178  0.00  0.00    +0.269 C 
ATOM     19  O   UNL A   1     -30.149  -2.383  30.072  0.00  0.00    -0.268 OA
ATOM     20  N   UNL A   1     -28.766  -4.037  30.669  0.00  0.00    -0.174 NA
BRANCH  18  26
ATOM     21  C   UNL A   1     -28.016  -0.814  28.878  0.00  0.00    +0.005 A 
ATOM     22  C   UNL A   1     -27.064  -0.119  28.608  0.00  0.00    +0.000 A 
ATOM     23  C   UNL A   1     -25.792  -0.430  29.076  0.00  0.00    -0.000 A 
ATOM     24  C   UNL A   1     -25.576  -1.565  29.936  0.00  0.00    +0.000 A 
ATOM     25  C   UNL A   1     -26.735  -2.300  30.217  0.00  0.00    +0.005 A 
ATOM     26  C   UNL A   1     -27.918  -1.954  29.763  0.00  0.00    +0.055 A 
BRANCH  23  27
ATOM     27  C   UNL A   1     -24.535   0.353  28.708  0.00  0.00    -0.000 A 
ATOM     28  C   UNL A   1     -24.519   1.176  27.647  0.00  0.00    -0.004 A 
ATOM     29  C   UNL A   1     -23.291   1.853  27.329  0.00  0.00    -0.022 A 
ATOM     30  C   UNL A   1     -23.203   2.770  26.263  0.00  0.00    +0.031 C 
ATOM     31  C   UNL A   1     -23.288   0.120  29.403  0.00  0.00    -0.000 A 
ATOM     32  C   UNL A   1     -22.055   1.618  28.034  0.00  0.00    -0.004 A 
ATOM     33  C   UNL A   1     -22.070   0.763  29.065  0.00  0.00    -0.000 A 
ENDBRANCH  23  27
ENDBRANCH  18  26
ENDBRANCH   1  20
TORSDOF 4
