MODEL 1092
MODEL 1
REMARK VINA RESULT:    -5.390      0.000      0.000
REMARK INTER + INTRA:          -6.104
REMARK INTER:                  -6.020
REMARK INTRA:                  -0.084
REMARK UNBOUND:                -0.084
REMARK  Name = No_1092-gen_results/8p0m/2024-11-26-14-13-15/
REMARK  2 active torsions:
REMARK  status: ('A' for Active; 'I' for Inactive)
REMARK    1  A    between atoms: C_4  and  C_7
REMARK    2  A    between atoms: C_7  and  N_8
REMARK                            x       y       z     vdW  Elec       q    Type
REMARK                         _______ _______ _______ _____ _____    ______ ____
ROOT
ATOM      1  C   UNL A   1     -29.844 -10.050  31.335  0.00  0.00    +0.000 A 
ATOM      2  C   UNL A   1     -29.764 -10.596  30.437  0.00  0.00    +0.000 A 
ATOM      3  C   UNL A   1     -29.185 -10.305  32.629  0.00  0.00    +0.005 A 
ATOM      4  C   UNL A   1     -28.185 -11.404  32.546  0.00  0.00    +0.058 A 
ATOM      5  C   UNL A   1     -27.979 -12.051  31.312  0.00  0.00    +0.005 A 
ATOM      6  C   UNL A   1     -28.722 -11.666  30.235  0.00  0.00    +0.000 A 
ENDROOT
BRANCH   4   7
ATOM      7  C   UNL A   1     -27.438 -11.771  33.726  0.00  0.00    +0.306 C 
ATOM      8  O   UNL A   1     -26.611 -12.831  33.500  0.00  0.00    -0.265 OA
BRANCH   7   9
ATOM      9  N   UNL A   1     -27.414 -11.289  34.629  0.00  0.00    +0.043 NA
ATOM     10  O   UNL A   1     -26.572 -10.295  34.994  0.00  0.00    -0.153 OA
ENDBRANCH   7   9
ENDBRANCH   4   7
TORSDOF 2
ENDMDL
ENDMDL
