REMARK  Name = No_1092-gen_results/8p0m/2024-11-26-14-13-15/
REMARK  2 active torsions:
REMARK  status: ('A' for Active; 'I' for Inactive)
REMARK    1  A    between atoms: C_4  and  C_7
REMARK    2  A    between atoms: C_7  and  N_8
REMARK                            x       y       z     vdW  Elec       q    Type
REMARK                         _______ _______ _______ _____ _____    ______ ____
ROOT
ATOM      1  C   UNL A   1     -28.016  -0.814  28.878  0.00  0.00    +0.000 A 
ATOM      2  C   UNL A   1     -28.469  -0.785  29.829  0.00  0.00    +0.000 A 
ATOM      3  C   UNL A   1     -26.603  -1.060  28.538  0.00  0.00    +0.005 A 
ATOM      4  C   UNL A   1     -25.797  -1.449  29.727  0.00  0.00    +0.058 A 
ATOM      5  C   UNL A   1     -26.428  -1.541  30.983  0.00  0.00    +0.005 A 
ATOM      6  C   UNL A   1     -27.756  -1.244  31.075  0.00  0.00    +0.000 A 
ENDROOT
BRANCH   4   7
ATOM      7  C   UNL A   1     -24.392  -1.740  29.564  0.00  0.00    +0.306 C 
ATOM      8  O   UNL A   1     -23.602  -0.730  30.028  0.00  0.00    -0.265 OA
BRANCH   7   9
ATOM      9  N   UNL A   1     -23.965  -2.609  29.231  0.00  0.00    +0.043 NA
ATOM     10  O   UNL A   1     -24.613  -3.717  28.803  0.00  0.00    -0.153 OA
ENDBRANCH   7   9
ENDBRANCH   4   7
TORSDOF 2
