MODEL 1093
MODEL 1
REMARK VINA RESULT:    -6.673      0.000      0.000
REMARK INTER + INTRA:          -7.429
REMARK INTER:                  -7.063
REMARK INTRA:                  -0.366
REMARK UNBOUND:                -0.366
REMARK  Name = No_1093-gen_results/8p0m/2024-11-26-14-13-15/
REMARK  1 active torsions:
REMARK  status: ('A' for Active; 'I' for Inactive)
REMARK    1  A    between atoms: C_3  and  C_9
REMARK                            x       y       z     vdW  Elec       q    Type
REMARK                         _______ _______ _______ _____ _____    ______ ____
ROOT
ATOM      1  C   UNL A   1     -26.647  -3.488  30.080  0.00  0.00    +0.032 A 
ATOM      2  C   UNL A   1     -25.994  -2.513  29.788  0.00  0.00    +0.142 A 
ATOM      3  C   UNL A   1     -24.860  -2.472  29.149  0.00  0.00    +0.047 A 
ATOM      4  C   UNL A   1     -24.277  -3.709  28.736  0.00  0.00    +0.033 A 
ATOM      5  C   UNL A   1     -26.177  -4.772  29.594  0.00  0.00    +0.032 A 
ATOM      6  C   UNL A   1     -25.013  -4.821  28.946  0.00  0.00    +0.140 A 
ATOM      7  F   UNL A   1     -26.466  -1.261  30.167  0.00  0.00    -0.204 F 
ATOM      8  F   UNL A   1     -24.562  -6.011  28.536  0.00  0.00    -0.204 F 
ENDROOT
BRANCH   3   9
ATOM      9  C   UNL A   1     -24.079  -1.185  28.917  0.00  0.00    +0.086 A 
ATOM     10  N   UNL A   1     -24.303  -0.457  27.909  0.00  0.00    -0.218 NA
ATOM     11  C   UNL A   1     -23.408   0.586  27.576  0.00  0.00    +0.222 A 
ATOM     12  F   UNL A   1     -23.698   1.401  26.555  0.00  0.00    -0.183 F 
ATOM     13  C   UNL A   1     -22.151   0.625  28.155  0.00  0.00    +0.050 A 
ATOM     14  C   UNL A   1     -21.940  -0.178  29.299  0.00  0.00    +0.005 A 
ATOM     15  C   UNL A   1     -22.878  -1.140  29.638  0.00  0.00    +0.019 A 
ENDBRANCH   3   9
TORSDOF 1
ENDMDL
ENDMDL
