REMARK  Name = No_1093-gen_results/8p0m/2024-11-26-14-13-15/
REMARK  1 active torsions:
REMARK  status: ('A' for Active; 'I' for Inactive)
REMARK    1  A    between atoms: C_3  and  C_9
REMARK                            x       y       z     vdW  Elec       q    Type
REMARK                         _______ _______ _______ _____ _____    ______ ____
ROOT
ATOM      1  C   UNL A   1     -28.016  -0.814  28.878  0.00  0.00    +0.032 A 
ATOM      2  C   UNL A   1     -27.064  -0.119  28.608  0.00  0.00    +0.142 A 
ATOM      3  C   UNL A   1     -26.876   1.133  28.913  0.00  0.00    +0.047 A 
ATOM      4  C   UNL A   1     -27.901   1.807  29.644  0.00  0.00    +0.033 A 
ATOM      5  C   UNL A   1     -29.046  -0.232  29.718  0.00  0.00    +0.032 A 
ATOM      6  C   UNL A   1     -28.940   1.052  30.060  0.00  0.00    +0.140 A 
ATOM      7  F   UNL A   1     -26.021  -0.677  27.877  0.00  0.00    -0.204 F 
ATOM      8  F   UNL A   1     -29.912   1.596  30.799  0.00  0.00    -0.204 F 
ENDROOT
BRANCH   3   9
ATOM      9  C   UNL A   1     -25.671   1.936  28.438  0.00  0.00    +0.086 A 
ATOM     10  N   UNL A   1     -25.797   3.124  28.029  0.00  0.00    -0.218 NA
ATOM     11  C   UNL A   1     -24.726   3.760  27.361  0.00  0.00    +0.222 A 
ATOM     12  F   UNL A   1     -24.843   5.045  27.004  0.00  0.00    -0.183 F 
ATOM     13  C   UNL A   1     -23.665   3.007  26.889  0.00  0.00    +0.050 A 
ATOM     14  C   UNL A   1     -23.533   1.691  27.388  0.00  0.00    +0.005 A 
ATOM     15  C   UNL A   1     -24.576   1.127  28.105  0.00  0.00    +0.019 A 
ENDBRANCH   3   9
TORSDOF 1
