MODEL 1094
MODEL 1
REMARK VINA RESULT:    -6.690      0.000      0.000
REMARK INTER + INTRA:          -7.832
REMARK INTER:                  -7.472
REMARK INTRA:                  -0.360
REMARK UNBOUND:                -0.360
REMARK  Name = No_1094-gen_results/8p0m/2024-11-26-14-13-15/
REMARK  2 active torsions:
REMARK  status: ('A' for Active; 'I' for Inactive)
REMARK    1  A    between atoms: C_5  and  C_8
REMARK    2  A    between atoms: C_7  and  C_10
REMARK                            x       y       z     vdW  Elec       q    Type
REMARK                         _______ _______ _______ _____ _____    ______ ____
ROOT
ATOM      1 BR   UNL A   1     -23.428  -1.228  31.438  0.00  0.00    -0.049 Br
ATOM      2  C   UNL A   1     -23.576  -0.405  30.010  0.00  0.00    +0.035 A 
ATOM      3  C   UNL A   1     -23.060   0.729  29.702  0.00  0.00    +0.006 A 
ATOM      4  C   UNL A   1     -23.212   1.396  28.458  0.00  0.00    -0.002 A 
ATOM      5  C   UNL A   1     -23.934   0.750  27.439  0.00  0.00    -0.003 A 
ATOM      6  C   UNL A   1     -24.454  -0.486  27.724  0.00  0.00    -0.002 A 
ATOM      7  C   UNL A   1     -24.272  -1.065  28.906  0.00  0.00    +0.006 A 
ENDROOT
BRANCH   7   8
ATOM      8  C   UNL A   1     -24.831  -2.429  29.149  0.00  0.00    +0.001 A 
ATOM      9  C   UNL A   1     -25.804  -2.810  29.534  0.00  0.00    +0.000 A 
ATOM     10  C   UNL A   1     -26.184  -4.161  29.729  0.00  0.00    +0.000 A 
ATOM     11  C   UNL A   1     -23.920  -3.493  28.629  0.00  0.00    +0.000 A 
ATOM     12  C   UNL A   1     -24.157  -4.776  28.686  0.00  0.00    +0.000 A 
ATOM     13  C   UNL A   1     -25.333  -5.157  29.246  0.00  0.00    +0.000 A 
ENDBRANCH   7   8
BRANCH   5  14
ATOM     14  C   UNL A   1     -24.073   1.426  26.137  0.00  0.00    +0.136 C 
ATOM     15  N   UNL A   1     -23.040   2.191  25.801  0.00  0.00    -0.126 NA
ENDBRANCH   5  14
TORSDOF 2
ENDMDL
ENDMDL
