REMARK  Name = No_1094-gen_results/8p0m/2024-11-26-14-13-15/
REMARK  2 active torsions:
REMARK  status: ('A' for Active; 'I' for Inactive)
REMARK    1  A    between atoms: C_5  and  C_8
REMARK    2  A    between atoms: C_7  and  C_10
REMARK                            x       y       z     vdW  Elec       q    Type
REMARK                         _______ _______ _______ _____ _____    ______ ____
ROOT
ATOM      1 BR   UNL A   1     -28.115  -0.626  29.081  0.00  0.00    -0.049 Br
ATOM      2  C   UNL A   1     -26.927   0.455  28.685  0.00  0.00    +0.035 A 
ATOM      3  C   UNL A   1     -25.846   0.704  29.331  0.00  0.00    +0.006 A 
ATOM      4  C   UNL A   1     -24.851   1.641  28.947  0.00  0.00    -0.002 A 
ATOM      5  C   UNL A   1     -25.010   2.321  27.727  0.00  0.00    -0.003 A 
ATOM      6  C   UNL A   1     -26.131   2.037  26.991  0.00  0.00    -0.002 A 
ATOM      7  C   UNL A   1     -27.026   1.143  27.398  0.00  0.00    +0.006 A 
ENDROOT
BRANCH   7   8
ATOM      8  C   UNL A   1     -28.211   0.846  26.537  0.00  0.00    +0.001 A 
ATOM      9  C   UNL A   1     -29.299   1.066  26.616  0.00  0.00    +0.000 A 
ATOM     10  C   UNL A   1     -30.322   0.693  25.709  0.00  0.00    +0.000 A 
ATOM     11  C   UNL A   1     -27.801   0.244  25.233  0.00  0.00    +0.000 A 
ATOM     12  C   UNL A   1     -28.621  -0.102  24.277  0.00  0.00    +0.000 A 
ATOM     13  C   UNL A   1     -29.941   0.127  24.490  0.00  0.00    +0.000 A 
ENDBRANCH   7   8
BRANCH   5  14
ATOM     14  C   UNL A   1     -23.967   3.275  27.312  0.00  0.00    +0.136 C 
ATOM     15  N   UNL A   1     -24.110   3.746  26.079  0.00  0.00    -0.126 NA
ENDBRANCH   5  14
TORSDOF 2
