REMARK  Name = No_1095-gen_results/8p0m/2024-11-26-14-13-15/
REMARK  0 active torsions:
REMARK  status: ('A' for Active; 'I' for Inactive)
REMARK                            x       y       z     vdW  Elec       q    Type
REMARK                         _______ _______ _______ _____ _____    ______ ____
ROOT
ATOM      1  C   UNL A   1     -28.016  -0.814  28.878  0.00  0.00    +0.011 A 
ATOM      2  C   UNL A   1     -27.064  -0.119  28.608  0.00  0.00    +0.058 A 
ATOM      3 CL   UNL A   1     -25.616  -0.516  28.877  0.00  0.00    -0.082 Cl
ATOM      4  C   UNL A   1     -29.290  -0.211  28.918  0.00  0.00    +0.001 A 
ATOM      5  C   UNL A   1     -29.480   1.001  28.294  0.00  0.00    +0.000 A 
ATOM      6  C   UNL A   1     -28.410   1.731  27.846  0.00  0.00    +0.001 A 
ATOM      7  C   UNL A   1     -27.123   1.179  27.994  0.00  0.00    +0.011 A 
ENDROOT
TORSDOF 0
