MODEL 1095
MODEL 1
REMARK VINA RESULT:    -4.524      0.000      0.000
REMARK INTER + INTRA:          -4.524
REMARK INTER:                  -4.524
REMARK INTRA:                   0.000
REMARK UNBOUND:                 0.000
REMARK  Name = No_1095-gen_results/8p0m/2024-11-26-14-13-15/
REMARK  0 active torsions:
REMARK  status: ('A' for Active; 'I' for Inactive)
REMARK                            x       y       z     vdW  Elec       q    Type
REMARK                         _______ _______ _______ _____ _____    ______ ____
ROOT
ATOM      1  C   UNL A   1      -9.329  -9.233  20.076  0.00  0.00    +0.011 A 
ATOM      2  C   UNL A   1      -8.270  -9.757  19.817  0.00  0.00    +0.058 A 
ATOM      3 CL   UNL A   1      -6.993  -9.539  20.622  0.00  0.00    -0.082 Cl
ATOM      4  C   UNL A   1     -10.327  -9.222  19.080  0.00  0.00    +0.001 A 
ATOM      5  C   UNL A   1     -10.237 -10.105  18.028  0.00  0.00    +0.000 A 
ATOM      6  C   UNL A   1      -9.088 -10.820  17.813  0.00  0.00    +0.001 A 
ATOM      7  C   UNL A   1      -8.030 -10.665  18.729  0.00  0.00    +0.011 A 
ENDROOT
TORSDOF 0
ENDMDL
ENDMDL
