REMARK  Name = No_1096-gen_results/8p0m/2024-11-26-14-13-15/
REMARK  5 active torsions:
REMARK  status: ('A' for Active; 'I' for Inactive)
REMARK    1  A    between atoms: C_2  and  C_5
REMARK    2  A    between atoms: C_5  and  N_12
REMARK    3  A    between atoms: N_12  and  C_13
REMARK    4  A    between atoms: C_22  and  C_25
REMARK    5  A    between atoms: C_26  and  C_27
REMARK                            x       y       z     vdW  Elec       q    Type
REMARK                         _______ _______ _______ _____ _____    ______ ____
ROOT
ATOM      1  C   UNL A   1     -31.880   0.005  28.869  0.00  0.00    +0.068 A 
ATOM      2  C   UNL A   1     -32.708  -0.479  29.579  0.00  0.00    +0.012 A 
ATOM      3  C   UNL A   1     -34.178  -0.432  29.296  0.00  0.00    -0.024 A 
ATOM      4  C   UNL A   1     -32.200  -0.035  27.500  0.00  0.00    +0.016 A 
ATOM      5  C   UNL A   1     -33.544  -0.033  27.088  0.00  0.00    -0.003 A 
ATOM      6  C   UNL A   1     -34.486  -0.293  28.004  0.00  0.00    -0.026 A 
ATOM      7  C   UNL A   1     -35.908  -0.322  27.557  0.00  0.00    +0.027 C 
ATOM      8  C   UNL A   1     -36.875   0.053  28.367  0.00  0.00    +0.017 C 
ATOM      9  C   UNL A   1     -36.499   0.647  29.585  0.00  0.00    +0.059 C 
ATOM     10  C   UNL A   1     -35.239   0.176  30.209  0.00  0.00    +0.038 C 
ATOM     11  C   UNL A   1     -37.601   0.557  30.729  0.00  0.00    +0.013 C 
ENDROOT
BRANCH   9  12
ATOM     12  C   UNL A   1     -36.168   2.138  29.319  0.00  0.00    -0.088 C 
ATOM     13  C   UNL A   1     -36.512   3.117  29.497  0.00  0.00    -0.064 C 
BRANCH  13  14
ATOM     14  C   UNL A   1     -35.758   4.042  30.172  0.00  0.00    +0.045 C 
ATOM     15  C   UNL A   1     -34.376   4.161  29.890  0.00  0.00    -0.017 C 
ATOM     16  C   UNL A   1     -33.812   2.969  29.345  0.00  0.00    +0.031 C 
ENDBRANCH  13  14
ENDBRANCH   9  12
BRANCH   1  17
ATOM     17  N   UNL A   1     -30.552  -0.013  29.195  0.00  0.00    -0.202 NA
BRANCH  17  18
ATOM     18  C   UNL A   1     -29.992  -0.813  29.958  0.00  0.00    +0.276 C 
ATOM     19  F   UNL A   1     -30.517  -1.331  30.934  0.00  0.00    -0.208 F 
BRANCH  18  21
ATOM     20  C   UNL A   1     -28.016  -0.814  28.878  0.00  0.00    +0.000 A 
ATOM     21  C   UNL A   1     -28.469  -0.785  29.829  0.00  0.00    +0.031 A 
ATOM     22  C   UNL A   1     -26.504  -0.778  28.877  0.00  0.00    -0.000 A 
ATOM     23  C   UNL A   1     -25.654  -0.660  27.719  0.00  0.00    -0.000 A 
ATOM     24  C   UNL A   1     -24.208  -0.635  27.968  0.00  0.00    -0.000 A 
ATOM     25  C   UNL A   1     -23.706  -0.791  29.238  0.00  0.00    -0.000 A 
ATOM     26  C   UNL A   1     -24.507  -0.906  30.319  0.00  0.00    -0.000 A 
ATOM     27  C   UNL A   1     -25.843  -0.938  30.174  0.00  0.00    -0.000 A 
ATOM     28  C   UNL A   1     -27.843  -0.967  31.207  0.00  0.00    +0.000 A 
ATOM     29  C   UNL A   1     -26.638  -1.015  31.341  0.00  0.00    -0.000 A 
ENDBRANCH  18  21
ENDBRANCH  17  18
ENDBRANCH   1  17
TORSDOF 5
