MODEL 1096
MODEL 1
REMARK VINA RESULT:    -8.210      0.000      0.000
REMARK INTER + INTRA:         -14.185
REMARK INTER:                 -10.610
REMARK INTRA:                  -3.576
REMARK UNBOUND:                -3.576
REMARK  Name = No_1096-gen_results/8p0m/2024-11-26-14-13-15/
REMARK  5 active torsions:
REMARK  status: ('A' for Active; 'I' for Inactive)
REMARK    1  A    between atoms: C_2  and  C_5
REMARK    2  A    between atoms: C_5  and  N_12
REMARK    3  A    between atoms: N_12  and  C_13
REMARK    4  A    between atoms: C_22  and  C_25
REMARK    5  A    between atoms: C_26  and  C_27
REMARK                            x       y       z     vdW  Elec       q    Type
REMARK                         _______ _______ _______ _____ _____    ______ ____
ROOT
ATOM      1  C   UNL A   1     -23.199   1.501  28.652  0.00  0.00    +0.068 A 
ATOM      2  C   UNL A   1     -23.465   1.859  29.759  0.00  0.00    +0.012 A 
ATOM      3  C   UNL A   1     -23.531   0.938  30.938  0.00  0.00    -0.024 A 
ATOM      4  C   UNL A   1     -22.284   0.434  28.596  0.00  0.00    +0.016 A 
ATOM      5  C   UNL A   1     -22.210  -0.490  29.653  0.00  0.00    -0.003 A 
ATOM      6  C   UNL A   1     -22.795  -0.170  30.814  0.00  0.00    -0.026 A 
ATOM      7  C   UNL A   1     -22.687  -1.138  31.943  0.00  0.00    +0.027 C 
ATOM      8  C   UNL A   1     -23.657  -1.252  32.826  0.00  0.00    +0.017 C 
ATOM      9  C   UNL A   1     -24.855  -0.567  32.556  0.00  0.00    +0.059 C 
ATOM     10  C   UNL A   1     -24.752   0.721  31.828  0.00  0.00    +0.038 C 
ATOM     11  C   UNL A   1     -25.741  -0.261  33.841  0.00  0.00    +0.013 C 
ENDROOT
BRANCH   9  12
ATOM     12  C   UNL A   1     -25.687  -1.414  31.559  0.00  0.00    -0.088 C 
ATOM     13  C   UNL A   1     -26.332  -1.338  30.730  0.00  0.00    -0.064 C 
BRANCH  13  14
ATOM     14  C   UNL A   1     -26.037  -1.919  29.523  0.00  0.00    +0.045 C 
ATOM     15  C   UNL A   1     -25.886  -1.108  28.373  0.00  0.00    -0.017 C 
ATOM     16  C   UNL A   1     -26.578   0.136  28.472  0.00  0.00    +0.031 C 
ENDBRANCH  13  14
ENDBRANCH   9  12
BRANCH   1  17
ATOM     17  N   UNL A   1     -23.205   2.367  27.594  0.00  0.00    -0.202 NA
BRANCH  17  18
ATOM     18  C   UNL A   1     -23.154   2.064  26.394  0.00  0.00    +0.276 C 
ATOM     19  F   UNL A   1     -22.186   2.247  25.668  0.00  0.00    -0.208 F 
BRANCH  18  21
ATOM     20  C   UNL A   1     -25.305   2.531  25.921  0.00  0.00    +0.000 A 
ATOM     21  C   UNL A   1     -24.536   1.824  25.786  0.00  0.00    +0.031 A 
ATOM     22  C   UNL A   1     -26.627   2.186  25.271  0.00  0.00    -0.000 A 
ATOM     23  C   UNL A   1     -27.783   3.042  25.182  0.00  0.00    -0.000 A 
ATOM     24  C   UNL A   1     -28.954   2.490  24.491  0.00  0.00    -0.000 A 
ATOM     25  C   UNL A   1     -28.956   1.196  24.025  0.00  0.00    -0.000 A 
ATOM     26  C   UNL A   1     -27.871   0.397  24.116  0.00  0.00    -0.000 A 
ATOM     27  C   UNL A   1     -26.759   0.830  24.735  0.00  0.00    -0.000 A 
ATOM     28  C   UNL A   1     -24.613   0.396  25.258  0.00  0.00    +0.000 A 
ATOM     29  C   UNL A   1     -25.637  -0.030  24.764  0.00  0.00    -0.000 A 
ENDBRANCH  18  21
ENDBRANCH  17  18
ENDBRANCH   1  17
TORSDOF 5
ENDMDL
ENDMDL
