MODEL 1097
MODEL 1
REMARK VINA RESULT:    -5.320      0.000      0.000
REMARK INTER + INTRA:          -5.775
REMARK INTER:                  -5.631
REMARK INTRA:                  -0.144
REMARK UNBOUND:                -0.144
REMARK  Name = No_1097-gen_results/8p0m/2024-11-26-14-13-15/
REMARK  1 active torsions:
REMARK  status: ('A' for Active; 'I' for Inactive)
REMARK    1  A    between atoms: C_4  and  C_7
REMARK                            x       y       z     vdW  Elec       q    Type
REMARK                         _______ _______ _______ _____ _____    ______ ____
ROOT
ATOM      1  C   UNL A   1     -24.683  -5.220  28.954  0.00  0.00    -0.000 A 
ATOM      2  C   UNL A   1     -25.659  -5.085  29.327  0.00  0.00    -0.000 A 
ATOM      3  C   UNL A   1     -23.917  -3.949  28.661  0.00  0.00    -0.000 A 
ATOM      4  C   UNL A   1     -24.475  -2.706  29.027  0.00  0.00    -0.000 A 
ATOM      5  C   UNL A   1     -26.448  -3.932  29.818  0.00  0.00    -0.000 A 
ATOM      6  C   UNL A   1     -25.773  -2.745  29.571  0.00  0.00    -0.000 A 
ENDROOT
BRANCH   4   7
ATOM      7  C   UNL A   1     -23.809  -1.478  28.759  0.00  0.00    -0.005 C 
ATOM      8  C   UNL A   1     -22.626  -1.218  29.133  0.00  0.00    -0.026 C 
ATOM      9  C   UNL A   1     -21.901   0.000  28.732  0.00  0.00    +0.031 C 
ENDBRANCH   4   7
TORSDOF 1
ENDMDL
ENDMDL
