REMARK  Name = No_1098-gen_results/8p0m/2024-11-26-14-13-15/
REMARK  3 active torsions:
REMARK  status: ('A' for Active; 'I' for Inactive)
REMARK    1  A    between atoms: C_2  and  O_7
REMARK    2  A    between atoms: C_4  and  C_9
REMARK    3  A    between atoms: O_7  and  C_8
REMARK                            x       y       z     vdW  Elec       q    Type
REMARK                         _______ _______ _______ _____ _____    ______ ____
ROOT
ATOM      1  C   UNL A   1     -28.016  -0.814  28.878  0.00  0.00    +0.037 A 
ATOM      2  C   UNL A   1     -28.469  -0.785  29.829  0.00  0.00    +0.145 A 
ATOM      3  C   UNL A   1     -26.504  -0.778  28.877  0.00  0.00    +0.007 A 
ATOM      4  C   UNL A   1     -25.810  -0.853  30.103  0.00  0.00    +0.072 A 
ATOM      5  C   UNL A   1     -27.991  -0.892  31.226  0.00  0.00    +0.037 A 
ATOM      6  C   UNL A   1     -26.604  -0.868  31.265  0.00  0.00    +0.007 A 
ENDROOT
BRANCH   4   7
ATOM      7  C   UNL A   1     -24.366  -0.801  30.152  0.00  0.00    +0.419 C 
ATOM      8  F   UNL A   1     -23.796  -1.334  29.235  0.00  0.00    -0.166 F 
ATOM      9  F   UNL A   1     -23.914  -1.486  31.331  0.00  0.00    -0.166 F 
ATOM     10  F   UNL A   1     -23.954   0.476  30.317  0.00  0.00    -0.166 F 
ENDBRANCH   4   7
BRANCH   2  11
ATOM     11  O   UNL A   1     -29.939  -0.819  29.836  0.00  0.00    -0.454 OA
BRANCH  11  12
ATOM     12  C   UNL A   1     -30.698  -1.654  30.350  0.00  0.00    +0.146 A 
ATOM     13  C   UNL A   1     -31.756  -1.951  29.595  0.00  0.00    +0.044 A 
ATOM     14  C   UNL A   1     -32.538  -3.126  29.869  0.00  0.00    +0.038 A 
ATOM     15  C   UNL A   1     -32.236  -3.853  31.065  0.00  0.00    +0.007 A 
ATOM     16  C   UNL A   1     -31.145  -3.506  31.830  0.00  0.00    +0.004 A 
ATOM     17  C   UNL A   1     -30.310  -2.498  31.431  0.00  0.00    +0.037 A 
ATOM     18 BR   UNL A   1     -34.120  -3.482  28.968  0.00  0.00    -0.049 Br
ENDBRANCH  11  12
ENDBRANCH   2  11
TORSDOF 3
