MODEL 1098
MODEL 1
REMARK VINA RESULT:    -7.248      0.000      0.000
REMARK INTER + INTRA:          -8.967
REMARK INTER:                  -8.520
REMARK INTRA:                  -0.447
REMARK UNBOUND:                -0.447
REMARK  Name = No_1098-gen_results/8p0m/2024-11-26-14-13-15/
REMARK  3 active torsions:
REMARK  status: ('A' for Active; 'I' for Inactive)
REMARK    1  A    between atoms: C_2  and  O_7
REMARK    2  A    between atoms: C_4  and  C_9
REMARK    3  A    between atoms: O_7  and  C_8
REMARK                            x       y       z     vdW  Elec       q    Type
REMARK                         _______ _______ _______ _____ _____    ______ ____
ROOT
ATOM      1  C   UNL A   1     -24.890  -0.285  27.766  0.00  0.00    +0.037 A 
ATOM      2  C   UNL A   1     -24.237  -0.255  28.592  0.00  0.00    +0.145 A 
ATOM      3  C   UNL A   1     -24.520   0.619  26.611  0.00  0.00    +0.007 A 
ATOM      4  C   UNL A   1     -23.292   1.313  26.643  0.00  0.00    +0.072 A 
ATOM      5  C   UNL A   1     -22.908   0.339  28.862  0.00  0.00    +0.037 A 
ATOM      6  C   UNL A   1     -22.531   1.173  27.818  0.00  0.00    +0.007 A 
ENDROOT
BRANCH   4   7
ATOM      7  C   UNL A   1     -22.907   2.204  25.572  0.00  0.00    +0.419 C 
ATOM      8  F   UNL A   1     -23.445   3.281  25.573  0.00  0.00    -0.166 F 
ATOM      9  F   UNL A   1     -23.260   1.604  24.316  0.00  0.00    -0.166 F 
ATOM     10  F   UNL A   1     -21.561   2.323  25.530  0.00  0.00    -0.166 F 
ENDBRANCH   4   7
BRANCH   2  11
ATOM     11  O   UNL A   1     -24.592  -1.131  29.719  0.00  0.00    -0.454 OA
BRANCH  11  12
ATOM     12  C   UNL A   1     -24.807  -2.352  29.720  0.00  0.00    +0.146 A 
ATOM     13  C   UNL A   1     -26.045  -2.676  30.096  0.00  0.00    +0.044 A 
ATOM     14  C   UNL A   1     -26.565  -3.990  29.828  0.00  0.00    +0.038 A 
ATOM     15  C   UNL A   1     -25.656  -4.963  29.303  0.00  0.00    +0.007 A 
ATOM     16  C   UNL A   1     -24.379  -4.595  28.942  0.00  0.00    +0.004 A 
ATOM     17  C   UNL A   1     -23.981  -3.289  29.033  0.00  0.00    +0.037 A 
ATOM     18 BR   UNL A   1     -28.205  -4.547  30.492  0.00  0.00    -0.049 Br
ENDBRANCH  11  12
ENDBRANCH   2  11
TORSDOF 3
ENDMDL
ENDMDL
