MODEL 1099
MODEL 1
REMARK VINA RESULT:    -5.107      0.000      0.000
REMARK INTER + INTRA:          -5.423
REMARK INTER:                  -5.406
REMARK INTRA:                  -0.017
REMARK UNBOUND:                -0.017
REMARK  Name = No_1099-gen_results/8p0m/2024-11-26-14-13-15/
REMARK  1 active torsions:
REMARK  status: ('A' for Active; 'I' for Inactive)
REMARK    1  A    between atoms: C_1  and  C_7
REMARK                            x       y       z     vdW  Elec       q    Type
REMARK                         _______ _______ _______ _____ _____    ______ ____
ROOT
ATOM      1  C   UNL A   1      -9.455  -9.964  18.253  0.00  0.00    +0.042 A 
ATOM      2  C   UNL A   1      -8.422 -10.484  18.606  0.00  0.00    +0.003 A 
ATOM      3  C   UNL A   1      -7.777 -10.177  19.788  0.00  0.00    +0.000 A 
ATOM      4  C   UNL A   1      -8.456  -9.399  20.644  0.00  0.00    +0.000 A 
ATOM      5  C   UNL A   1     -10.316  -9.392  19.214  0.00  0.00    +0.003 A 
ATOM      6  C   UNL A   1      -9.734  -9.039  20.361  0.00  0.00    +0.000 A 
ENDROOT
BRANCH   1   7
ATOM      7  C   UNL A   1     -10.049 -10.383  16.900  0.00  0.00    +0.234 C 
ATOM      8  O   UNL A   1     -11.272 -10.509  16.810  0.00  0.00    -0.283 OA
ENDBRANCH   1   7
TORSDOF 1
ENDMDL
ENDMDL
