MODEL 109
MODEL 1
REMARK VINA RESULT:    -4.324      0.000      0.000
REMARK INTER + INTRA:          -4.324
REMARK INTER:                  -4.324
REMARK INTRA:                   0.000
REMARK UNBOUND:                 0.000
REMARK  Name = No_109-gen_results/8p0m/2024-11-26-14-13-15/
REMARK  0 active torsions:
REMARK  status: ('A' for Active; 'I' for Inactive)
REMARK                            x       y       z     vdW  Elec       q    Type
REMARK                         _______ _______ _______ _____ _____    ______ ____
ROOT
ATOM      1  C   UNL A   1     -25.176  -2.540  29.716  0.00  0.00    +0.011 A 
ATOM      2  C   UNL A   1     -24.360  -2.962  29.199  0.00  0.00    +0.058 A 
ATOM      3  C   UNL A   1     -26.331  -3.420  29.954  0.00  0.00    +0.001 A 
ATOM      4  C   UNL A   1     -26.269  -4.804  29.621  0.00  0.00    +0.000 A 
ATOM      5  C   UNL A   1     -24.025  -4.357  28.802  0.00  0.00    +0.011 A 
ATOM      6  C   UNL A   1     -25.077  -5.201  28.999  0.00  0.00    +0.001 A 
ATOM      7 CL   UNL A   1     -23.065  -1.755  28.917  0.00  0.00    -0.082 Cl
ENDROOT
TORSDOF 0
ENDMDL
ENDMDL
