MODEL 10
MODEL 1
REMARK VINA RESULT:    -5.323      0.000      0.000
REMARK INTER + INTRA:          -5.672
REMARK INTER:                  -5.634
REMARK INTRA:                  -0.038
REMARK UNBOUND:                -0.038
REMARK  Name = No_10-gen_results/8p0m/2024-11-26-14-13-15/
REMARK  1 active torsions:
REMARK  status: ('A' for Active; 'I' for Inactive)
REMARK    1  A    between atoms: C_1  and  C_2
REMARK                            x       y       z     vdW  Elec       q    Type
REMARK                         _______ _______ _______ _____ _____    ______ ____
ROOT
ATOM      1  C   UNL A   1      -9.870 -10.462  18.256  0.00  0.00    +0.080 A 
ATOM      2  C   UNL A   1      -8.413 -10.462  18.438  0.00  0.00    +0.007 A 
ATOM      3  C   UNL A   1      -7.815 -10.217  19.764  0.00  0.00    +0.000 A 
ATOM      4  C   UNL A   1      -8.517  -9.374  20.655  0.00  0.00    +0.000 A 
ATOM      5  C   UNL A   1      -9.862  -9.000  20.324  0.00  0.00    +0.000 A 
ATOM      6  C   UNL A   1     -10.419  -9.385  19.176  0.00  0.00    +0.007 A 
ENDROOT
BRANCH   1   7
ATOM      7  C   UNL A   1     -10.167 -10.496  17.246  0.00  0.00    +0.388 C 
ATOM      8  O   UNL A   1     -11.532 -10.539  16.915  0.00  0.00    -0.241 OA
ATOM      9  O   UNL A   1      -9.539 -10.961  16.119  0.00  0.00    -0.241 OA
ENDBRANCH   1   7
TORSDOF 1
ENDMDL
ENDMDL
