REMARK  Name = No_11-gen_results/8p0m/2024-11-26-14-13-15/
REMARK  1 active torsions:
REMARK  status: ('A' for Active; 'I' for Inactive)
REMARK    1  A    between atoms: C_5  and  C_17
REMARK                            x       y       z     vdW  Elec       q    Type
REMARK                         _______ _______ _______ _____ _____    ______ ____
ROOT
ATOM      1  C   UNL A   1     -28.016  -0.814  28.878  0.00  0.00    +0.003 A 
ATOM      2  C   UNL A   1     -27.064  -0.119  28.608  0.00  0.00    +0.038 A 
ATOM      3  C   UNL A   1     -26.972   0.714  27.506  0.00  0.00    +0.017 A 
ATOM      4  C   UNL A   1     -28.105   0.774  26.642  0.00  0.00    +0.003 A 
ATOM      5  C   UNL A   1     -29.204   0.118  27.048  0.00  0.00    +0.053 A 
ATOM      6  C   UNL A   1     -29.213  -0.609  28.128  0.00  0.00    +0.005 A 
ATOM      7  C   UNL A   1     -25.610   1.303  27.263  0.00  0.00    +0.206 C 
ATOM      8  C   UNL A   1     -24.579   0.945  27.878  0.00  0.00    +0.017 A 
ATOM      9  C   UNL A   1     -23.255   1.574  27.699  0.00  0.00    -0.001 A 
ATOM     10  C   UNL A   1     -22.166   1.231  28.555  0.00  0.00    -0.000 A 
ATOM     11  C   UNL A   1     -22.273   0.201  29.433  0.00  0.00    +0.000 A 
ATOM     12  C   UNL A   1     -23.452  -0.509  29.581  0.00  0.00    +0.003 A 
ATOM     13  C   UNL A   1     -24.531  -0.145  28.844  0.00  0.00    +0.038 A 
ATOM     14  C   UNL A   1     -25.766  -0.562  29.253  0.00  0.00    +0.195 C 
ATOM     15  F   UNL A   1     -25.602   2.203  26.264  0.00  0.00    -0.228 F 
ATOM     16  O   UNL A   1     -25.893  -1.424  30.213  0.00  0.00    -0.287 OA
ENDROOT
BRANCH   5  17
ATOM     17  C   UNL A   1     -30.419   0.316  26.234  0.00  0.00    +0.249 C 
ATOM     18  O   UNL A   1     -30.536  -0.274  25.127  0.00  0.00    -0.270 OA
ATOM     19  N   UNL A   1     -31.227   1.327  26.514  0.00  0.00    -0.273 N 
ATOM     20  C   UNL A   1     -32.420   1.623  25.701  0.00  0.00    +0.115 C 
ATOM     21  C   UNL A   1     -30.715   2.629  26.937  0.00  0.00    +0.115 C 
ENDBRANCH   5  17
TORSDOF 1
