MODEL 1100
MODEL 1
REMARK VINA RESULT:    -5.859      0.000      0.000
REMARK INTER + INTRA:          -6.284
REMARK INTER:                  -6.202
REMARK INTRA:                  -0.082
REMARK UNBOUND:                -0.082
REMARK  Name = No_1100-gen_results/8p0m/2024-11-26-14-13-15/
REMARK  1 active torsions:
REMARK  status: ('A' for Active; 'I' for Inactive)
REMARK    1  A    between atoms: C_5  and  N_16
REMARK                            x       y       z     vdW  Elec       q    Type
REMARK                         _______ _______ _______ _____ _____    ______ ____
ROOT
ATOM      1  C   UNL A   1     -26.142   0.511  33.477  0.00  0.00    +0.004 A 
ATOM      2  C   UNL A   1     -25.307   0.055  32.731  0.00  0.00    +0.035 A 
ATOM      3  C   UNL A   1     -24.266  -0.776  33.112  0.00  0.00    -0.013 A 
ATOM      4  C   UNL A   1     -24.199  -1.142  34.489  0.00  0.00    +0.011 A 
ATOM      5  C   UNL A   1     -25.224  -0.753  35.263  0.00  0.00    +0.048 A 
ATOM      6  C   UNL A   1     -26.188  -0.006  34.807  0.00  0.00    +0.015 A 
ATOM      7  C   UNL A   1     -23.171  -1.204  32.170  0.00  0.00    +0.053 C 
ATOM      8  C   UNL A   1     -23.049  -0.405  31.096  0.00  0.00    -0.015 A 
ATOM      9  C   UNL A   1     -22.080  -0.758  30.042  0.00  0.00    -0.004 A 
ATOM     10  C   UNL A   1     -22.118  -0.062  28.789  0.00  0.00    -0.000 A 
ATOM     11  C   UNL A   1     -22.901   1.031  28.609  0.00  0.00    +0.000 A 
ATOM     12  C   UNL A   1     -23.736   1.494  29.650  0.00  0.00    +0.003 A 
ATOM     13  C   UNL A   1     -23.837   0.754  30.819  0.00  0.00    +0.035 A 
ATOM     14  C   UNL A   1     -25.030   0.865  31.485  0.00  0.00    +0.195 C 
ATOM     15  O   UNL A   1     -25.865   1.807  31.216  0.00  0.00    -0.287 OA
ENDROOT
BRANCH   5  16
ATOM     16  N   UNL A   1     -25.278  -1.272  36.555  0.00  0.00    -0.304 N 
ATOM     17  C   UNL A   1     -24.590  -0.724  37.574  0.00  0.00    +0.112 C 
ATOM     18  C   UNL A   1     -26.145  -2.332  36.914  0.00  0.00    +0.112 C 
ENDBRANCH   5  16
TORSDOF 1
ENDMDL
ENDMDL
