REMARK  Name = No_1101-gen_results/8p0m/2024-11-26-14-13-15/
REMARK  4 active torsions:
REMARK  status: ('A' for Active; 'I' for Inactive)
REMARK    1  A    between atoms: N_9  and  C_18
REMARK    2  A    between atoms: C_10  and  C_15
REMARK    3  A    between atoms: C_18  and  P_25
REMARK    4  A    between atoms: C_20  and  C_21
REMARK                            x       y       z     vdW  Elec       q    Type
REMARK                         _______ _______ _______ _____ _____    ______ ____
ROOT
ATOM      1  C   UNL A   1     -28.016  -0.814  28.878  0.00  0.00    +0.249 C 
ATOM      2  C   UNL A   1     -27.064  -0.119  28.608  0.00  0.00    +0.050 A 
ATOM      3  C   UNL A   1     -25.792  -0.430  29.076  0.00  0.00    +0.004 A 
ATOM      4  C   UNL A   1     -24.546   0.349  28.823  0.00  0.00    +0.008 A 
ATOM      5  C   UNL A   1     -24.659   1.420  27.888  0.00  0.00    +0.035 A 
ATOM      6  C   UNL A   1     -25.947   1.681  27.379  0.00  0.00    -0.001 A 
ATOM      7  C   UNL A   1     -27.044   0.974  27.687  0.00  0.00    -0.015 A 
ATOM      8  O   UNL A   1     -28.002  -1.858  29.687  0.00  0.00    -0.270 OA
ATOM      9  N   UNL A   1     -29.297  -0.420  28.564  0.00  0.00    -0.261 N 
ATOM     10  C   UNL A   1     -29.564   0.663  27.818  0.00  0.00    +0.184 C 
ATOM     11  C   UNL A   1     -28.404   1.404  27.335  0.00  0.00    +0.058 C 
ATOM     12  C   UNL A   1     -23.450   2.140  27.568  0.00  0.00    +0.170 A 
ATOM     13  N   UNL A   1     -22.252   1.745  28.043  0.00  0.00    -0.226 NA
ATOM     14  N   UNL A   1     -23.518   3.123  26.658  0.00  0.00    -0.107 NA
ATOM     15  C   UNL A   1     -22.031   0.804  28.940  0.00  0.00    +0.104 A 
ATOM     16  C   UNL A   1     -23.185  -0.049  29.318  0.00  0.00    +0.091 A 
ENDROOT
BRANCH  16  17
ATOM     17  C   UNL A   1     -22.984  -1.167  30.169  0.00  0.00    +0.420 C 
ATOM     18  F   UNL A   1     -22.369  -0.957  31.095  0.00  0.00    -0.166 F 
ATOM     19  F   UNL A   1     -24.208  -1.682  30.498  0.00  0.00    -0.166 F 
ATOM     20  F   UNL A   1     -22.321  -2.084  29.382  0.00  0.00    -0.166 F 
ENDBRANCH  16  17
BRANCH  10  21
ATOM     21  C   UNL A   1     -30.852   1.048  27.373  0.00  0.00    +0.383 C 
ATOM     22  O   UNL A   1     -31.715   1.266  28.116  0.00  0.00    -0.244 OA
ATOM     23  O   UNL A   1     -30.918   1.403  26.107  0.00  0.00    -0.244 OA
ENDBRANCH  10  21
BRANCH   9  24
ATOM     24  C   UNL A   1     -30.509  -1.172  28.973  0.00  0.00    +0.153 C 
BRANCH  24  25
ATOM     25  P   UNL A   1     -30.426  -1.718  30.525  0.00  0.00    +0.137 P 
ATOM     26  O   UNL A   1     -30.110  -2.907  30.584  0.00  0.00    -0.458 OA
ATOM     27  O   UNL A   1     -29.496  -0.829  31.429  0.00  0.00    -0.356 OA
ATOM     28  O   UNL A   1     -31.913  -1.378  31.067  0.00  0.00    -0.356 OA
ENDBRANCH  24  25
ENDBRANCH   9  24
TORSDOF 4
