MODEL 1102
MODEL 1
REMARK VINA RESULT:    -7.033      0.000      0.000
REMARK INTER + INTRA:          -8.824
REMARK INTER:                  -8.266
REMARK INTRA:                  -0.557
REMARK UNBOUND:                -0.557
REMARK  Name = No_1102-gen_results/8p0m/2024-11-26-14-13-15/
REMARK  3 active torsions:
REMARK  status: ('A' for Active; 'I' for Inactive)
REMARK    1  A    between atoms: C_1  and  C_2
REMARK    2  A    between atoms: C_1  and  C_8
REMARK    3  A    between atoms: C_8  and  C_9
REMARK                            x       y       z     vdW  Elec       q    Type
REMARK                         _______ _______ _______ _____ _____    ______ ____
ROOT
ATOM      1  C   UNL A   1     -24.705  -1.435  29.347  0.00  0.00    +0.031 C 
ENDROOT
BRANCH   1   2
ATOM      2  C   UNL A   1     -24.855  -2.635  29.356  0.00  0.00    -0.022 A 
ATOM      3  C   UNL A   1     -23.986  -3.519  28.748  0.00  0.00    -0.004 A 
ATOM      4  C   UNL A   1     -24.162  -4.957  28.664  0.00  0.00    -0.000 A 
ATOM      5  C   UNL A   1     -25.085  -5.428  28.988  0.00  0.00    -0.000 A 
ATOM      6  C   UNL A   1     -26.204  -4.710  29.677  0.00  0.00    -0.000 A 
ATOM      7  C   UNL A   1     -26.076  -3.305  29.799  0.00  0.00    -0.004 A 
ENDBRANCH   1   2
BRANCH   1   8
ATOM      8  C   UNL A   1     -23.358  -0.905  29.050  0.00  0.00    +0.031 C 
BRANCH   8   9
ATOM      9  C   UNL A   1     -23.197  -0.002  28.222  0.00  0.00    -0.022 A 
ATOM     10  C   UNL A   1     -21.942   0.769  28.193  0.00  0.00    -0.004 A 
ATOM     11  C   UNL A   1     -21.730   1.771  27.269  0.00  0.00    -0.000 A 
ATOM     12  C   UNL A   1     -22.739   2.076  26.354  0.00  0.00    -0.000 A 
ATOM     13  C   UNL A   1     -23.942   1.366  26.339  0.00  0.00    -0.000 A 
ATOM     14  C   UNL A   1     -24.194   0.312  27.280  0.00  0.00    -0.004 A 
ENDBRANCH   8   9
ENDBRANCH   1   8
TORSDOF 3
ENDMDL
ENDMDL
