REMARK  Name = No_1104-gen_results/8p0m/2024-11-26-14-13-15/
REMARK  0 active torsions:
REMARK  status: ('A' for Active; 'I' for Inactive)
REMARK                            x       y       z     vdW  Elec       q    Type
REMARK                         _______ _______ _______ _____ _____    ______ ____
ROOT
ATOM      1  C   UNL A   1     -28.016  -0.814  28.878  0.00  0.00    +0.058 A 
ATOM      2  C   UNL A   1     -28.469  -0.785  29.829  0.00  0.00    +0.011 A 
ATOM      3 CL   UNL A   1     -26.360  -1.193  28.773  0.00  0.00    -0.082 Cl
ATOM      4  C   UNL A   1     -29.850  -0.379  29.953  0.00  0.00    +0.001 A 
ATOM      5  C   UNL A   1     -30.469   0.024  28.758  0.00  0.00    +0.000 A 
ATOM      6  C   UNL A   1     -29.724   0.056  27.639  0.00  0.00    +0.001 A 
ATOM      7  C   UNL A   1     -28.428  -0.303  27.651  0.00  0.00    +0.011 A 
ENDROOT
TORSDOF 0
