MODEL 1104
MODEL 1
REMARK VINA RESULT:    -4.539      0.000      0.000
REMARK INTER + INTRA:          -4.539
REMARK INTER:                  -4.539
REMARK INTRA:                   0.000
REMARK UNBOUND:                 0.000
REMARK  Name = No_1104-gen_results/8p0m/2024-11-26-14-13-15/
REMARK  0 active torsions:
REMARK  status: ('A' for Active; 'I' for Inactive)
REMARK                            x       y       z     vdW  Elec       q    Type
REMARK                         _______ _______ _______ _____ _____    ______ ____
ROOT
ATOM      1  C   UNL A   1      -8.215  -9.891  19.718  0.00  0.00    +0.058 A 
ATOM      2  C   UNL A   1      -8.071 -10.541  18.901  0.00  0.00    +0.011 A 
ATOM      3 CL   UNL A   1      -7.057  -9.877  20.965  0.00  0.00    -0.082 Cl
ATOM      4  C   UNL A   1      -9.083 -10.637  17.875  0.00  0.00    +0.001 A 
ATOM      5  C   UNL A   1     -10.245  -9.879  18.101  0.00  0.00    +0.000 A 
ATOM      6  C   UNL A   1     -10.339  -9.196  19.255  0.00  0.00    +0.001 A 
ATOM      7  C   UNL A   1      -9.348  -9.216  20.164  0.00  0.00    +0.011 A 
ENDROOT
TORSDOF 0
ENDMDL
ENDMDL
