REMARK  Name = No_1105-gen_results/8p0m/2024-11-26-14-13-15/
REMARK  11 active torsions:
REMARK  status: ('A' for Active; 'I' for Inactive)
REMARK    1  A    between atoms: C_3  and  C_7
REMARK    2  A    between atoms: C_6  and  C_29
REMARK    3  A    between atoms: C_7  and  P_8
REMARK    4  A    between atoms: P_8  and  O_9
REMARK    5  A    between atoms: P_8  and  O_11
REMARK    6  A    between atoms: O_9  and  C_13
REMARK    7  A    between atoms: O_11  and  C_12
REMARK    8  A    between atoms: C_12  and  C_14
REMARK    9  A    between atoms: C_17  and  O_22
REMARK   10  A    between atoms: C_18  and  C_34
REMARK   11  A    between atoms: O_22  and  C_23
REMARK                            x       y       z     vdW  Elec       q    Type
REMARK                         _______ _______ _______ _____ _____    ______ ____
ROOT
ATOM      1  P   UNL A   1     -25.123   1.441  27.232  0.00  0.00    +0.397 P 
ATOM      2  O   UNL A   1     -24.961   1.853  25.729  0.00  0.00    -0.243 OA
ENDROOT
BRANCH   1   3
ATOM      3  C   UNL A   1     -26.317   0.399  27.365  0.00  0.00    +0.155 C 
BRANCH   3   6
ATOM      4  C   UNL A   1     -28.016  -0.814  28.878  0.00  0.00    -0.004 A 
ATOM      5  C   UNL A   1     -28.469  -0.785  29.829  0.00  0.00    -0.000 A 
ATOM      6  C   UNL A   1     -27.087   0.290  28.638  0.00  0.00    -0.009 A 
ATOM      7  C   UNL A   1     -26.832   1.249  29.587  0.00  0.00    +0.001 A 
ATOM      8  C   UNL A   1     -28.391   0.080  31.006  0.00  0.00    +0.004 A 
ATOM      9  C   UNL A   1     -27.494   1.152  30.784  0.00  0.00    +0.053 A 
BRANCH   9  10
ATOM     10  C   UNL A   1     -27.330   2.119  31.923  0.00  0.00    +0.249 C 
ATOM     11  N   UNL A   1     -26.186   2.640  32.155  0.00  0.00    -0.273 N 
ATOM     12  C   UNL A   1     -26.001   3.649  33.120  0.00  0.00    +0.115 C 
ATOM     13  O   UNL A   1     -28.357   2.511  32.502  0.00  0.00    -0.270 OA
ATOM     14  C   UNL A   1     -24.921   2.223  31.537  0.00  0.00    +0.115 C 
ENDBRANCH   9  10
ENDBRANCH   3   6
ENDBRANCH   1   3
BRANCH   1  15
ATOM     15  O   UNL A   1     -25.462   2.609  28.049  0.00  0.00    -0.419 OA
BRANCH  15  16
ATOM     16  C   UNL A   1     -25.537   3.857  27.342  0.00  0.00    +0.181 A 
ATOM     17  C   UNL A   1     -26.316   4.953  28.060  0.00  0.00    +0.175 A 
ATOM     18  C   UNL A   1     -26.315   6.125  27.474  0.00  0.00    +0.015 A 
ATOM     19  C   UNL A   1     -25.099   6.592  26.823  0.00  0.00    -0.001 A 
ATOM     20  C   UNL A   1     -24.327   5.601  26.207  0.00  0.00    +0.003 A 
ATOM     21  C   UNL A   1     -24.159   4.512  27.164  0.00  0.00    +0.041 A 
BRANCH  18  22
ATOM     22  C   UNL A   1     -27.480   6.974  27.334  0.00  0.00    +0.030 C 
ATOM     23  C   UNL A   1     -27.427   8.367  27.233  0.00  0.00    +0.005 C 
ENDBRANCH  18  22
BRANCH  17  24
ATOM     24  O   UNL A   1     -25.936   5.060  29.435  0.00  0.00    -0.451 OA
BRANCH  24  25
ATOM     25  C   UNL A   1     -26.610   5.820  30.322  0.00  0.00    +0.145 A 
ATOM     26  C   UNL A   1     -27.702   5.782  30.465  0.00  0.00    +0.037 A 
ATOM     27  C   UNL A   1     -28.367   6.576  31.452  0.00  0.00    +0.003 A 
ATOM     28  C   UNL A   1     -25.704   6.659  31.071  0.00  0.00    +0.037 A 
ATOM     29  C   UNL A   1     -26.167   7.478  32.048  0.00  0.00    +0.003 A 
ATOM     30  C   UNL A   1     -27.583   7.406  32.279  0.00  0.00    +0.000 A 
ENDBRANCH  24  25
ENDBRANCH  17  24
ENDBRANCH  15  16
ENDBRANCH   1  15
BRANCH   1  31
ATOM     31  O   UNL A   1     -23.829   0.828  27.725  0.00  0.00    -0.273 OA
BRANCH  31  32
ATOM     32  C   UNL A   1     -22.986   1.164  28.189  0.00  0.00    +0.266 C 
BRANCH  32  33
ATOM     33  C   UNL A   1     -22.094   0.269  29.030  0.00  0.00    +0.395 C 
ATOM     34  O   UNL A   1     -20.935   0.015  28.687  0.00  0.00    -0.243 OA
ATOM     35  O   UNL A   1     -22.581  -0.034  30.203  0.00  0.00    -0.243 OA
ENDBRANCH  32  33
ENDBRANCH  31  32
ENDBRANCH   1  31
TORSDOF 11
