MODEL 1105
MODEL 1
REMARK VINA RESULT:    -7.246      0.000      0.000
REMARK INTER + INTRA:         -13.971
REMARK INTER:                 -11.906
REMARK INTRA:                  -2.065
REMARK UNBOUND:                -2.065
REMARK  Name = No_1105-gen_results/8p0m/2024-11-26-14-13-15/
REMARK  11 active torsions:
REMARK  status: ('A' for Active; 'I' for Inactive)
REMARK    1  A    between atoms: C_3  and  C_7
REMARK    2  A    between atoms: C_6  and  C_29
REMARK    3  A    between atoms: C_7  and  P_8
REMARK    4  A    between atoms: P_8  and  O_9
REMARK    5  A    between atoms: P_8  and  O_11
REMARK    6  A    between atoms: O_9  and  C_13
REMARK    7  A    between atoms: O_11  and  C_12
REMARK    8  A    between atoms: C_12  and  C_14
REMARK    9  A    between atoms: C_17  and  O_22
REMARK   10  A    between atoms: C_18  and  C_34
REMARK   11  A    between atoms: O_22  and  C_23
REMARK                            x       y       z     vdW  Elec       q    Type
REMARK                         _______ _______ _______ _____ _____    ______ ____
ROOT
ATOM      1  P   UNL A   1     -27.300   0.785  26.481  0.00  0.00    +0.397 P 
ATOM      2  O   UNL A   1     -28.483   0.033  27.181  0.00  0.00    -0.243 OA
ENDROOT
BRANCH   1   3
ATOM      3  C   UNL A   1     -27.604   0.908  24.924  0.00  0.00    +0.155 C 
BRANCH   3   6
ATOM      4  C   UNL A   1     -28.750  -1.143  23.861  0.00  0.00    -0.004 A 
ATOM      5  C   UNL A   1     -29.672  -1.497  23.496  0.00  0.00    -0.000 A 
ATOM      6  C   UNL A   1     -28.800   0.241  24.333  0.00  0.00    -0.009 A 
ATOM      7  C   UNL A   1     -29.957   0.979  24.308  0.00  0.00    +0.001 A 
ATOM      8  C   UNL A   1     -31.025  -0.960  23.354  0.00  0.00    +0.004 A 
ATOM      9  C   UNL A   1     -31.084   0.380  23.808  0.00  0.00    +0.053 A 
BRANCH   9  10
ATOM     10  C   UNL A   1     -32.427   1.049  23.709  0.00  0.00    +0.249 C 
ATOM     11  N   UNL A   1     -32.733   1.708  22.658  0.00  0.00    -0.273 N 
ATOM     12  C   UNL A   1     -34.020   2.242  22.453  0.00  0.00    +0.115 C 
ATOM     13  O   UNL A   1     -33.265   0.796  24.591  0.00  0.00    -0.270 OA
ATOM     14  C   UNL A   1     -31.802   2.071  21.582  0.00  0.00    +0.115 C 
ENDBRANCH   9  10
ENDBRANCH   3   6
ENDBRANCH   1   3
BRANCH   1  15
ATOM     15  O   UNL A   1     -26.053   0.030  26.630  0.00  0.00    -0.419 OA
BRANCH  15  16
ATOM     16  C   UNL A   1     -25.034   0.670  27.413  0.00  0.00    +0.181 A 
ATOM     17  C   UNL A   1     -24.510  -0.157  28.582  0.00  0.00    +0.175 A 
ATOM     18  C   UNL A   1     -23.515   0.372  29.249  0.00  0.00    +0.015 A 
ATOM     19  C   UNL A   1     -22.479   1.095  28.525  0.00  0.00    -0.001 A 
ATOM     20  C   UNL A   1     -22.916   1.815  27.408  0.00  0.00    +0.003 A 
ATOM     21  C   UNL A   1     -23.751   0.926  26.607  0.00  0.00    +0.041 A 
BRANCH  18  22
ATOM     22  C   UNL A   1     -23.407   0.380  30.694  0.00  0.00    +0.030 C 
ATOM     23  C   UNL A   1     -23.031  -0.729  31.457  0.00  0.00    +0.005 C 
ENDBRANCH  18  22
BRANCH  17  24
ATOM     24  O   UNL A   1     -24.216  -1.501  28.190  0.00  0.00    -0.451 OA
BRANCH  24  25
ATOM     25  C   UNL A   1     -24.833  -2.571  28.732  0.00  0.00    +0.145 A 
ATOM     26  C   UNL A   1     -25.790  -2.524  29.276  0.00  0.00    +0.037 A 
ATOM     27  C   UNL A   1     -26.428  -3.695  29.794  0.00  0.00    +0.003 A 
ATOM     28  C   UNL A   1     -24.084  -3.779  28.474  0.00  0.00    +0.037 A 
ATOM     29  C   UNL A   1     -24.545  -4.983  28.897  0.00  0.00    +0.003 A 
ATOM     30  C   UNL A   1     -25.815  -4.944  29.567  0.00  0.00    +0.000 A 
ENDBRANCH  24  25
ENDBRANCH  17  24
ENDBRANCH  15  16
ENDBRANCH   1  15
BRANCH   1  31
ATOM     31  O   UNL A   1     -27.145   2.159  27.099  0.00  0.00    -0.273 OA
BRANCH  31  32
ATOM     32  C   UNL A   1     -27.416   3.111  26.853  0.00  0.00    +0.266 C 
BRANCH  32  33
ATOM     33  C   UNL A   1     -26.436   4.270  26.841  0.00  0.00    +0.395 C 
ATOM     34  O   UNL A   1     -26.593   5.249  27.577  0.00  0.00    -0.243 OA
ATOM     35  O   UNL A   1     -25.348   4.054  26.152  0.00  0.00    -0.243 OA
ENDBRANCH  32  33
ENDBRANCH  31  32
ENDBRANCH   1  31
TORSDOF 11
ENDMDL
ENDMDL
