REMARK  Name = No_1106-gen_results/8p0m/2024-11-26-14-13-15/
REMARK  7 active torsions:
REMARK  status: ('A' for Active; 'I' for Inactive)
REMARK    1  A    between atoms: C_2  and  C_7
REMARK    2  A    between atoms: C_3  and  C_17
REMARK    3  A    between atoms: N_9  and  C_11
REMARK    4  A    between atoms: C_15  and  C_32
REMARK    5  A    between atoms: C_17  and  C_18
REMARK    6  A    between atoms: C_22  and  C_23
REMARK    7  A    between atoms: C_25  and  C_26
REMARK                            x       y       z     vdW  Elec       q    Type
REMARK                         _______ _______ _______ _____ _____    ______ ____
ROOT
ATOM      1  C   UNL A   1     -28.016  -0.814  28.878  0.00  0.00    +0.001 A 
ATOM      2  C   UNL A   1     -28.469  -0.785  29.829  0.00  0.00    +0.054 A 
ATOM      3  C   UNL A   1     -26.546  -0.876  28.850  0.00  0.00    -0.018 A 
ATOM      4  C   UNL A   1     -25.804  -1.032  30.057  0.00  0.00    -0.004 A 
ATOM      5  C   UNL A   1     -27.944  -0.987  31.207  0.00  0.00    +0.004 A 
ATOM      6  C   UNL A   1     -26.582  -1.039  31.223  0.00  0.00    -0.000 A 
ENDROOT
BRANCH   2   7
ATOM      7  C   UNL A   1     -30.061  -0.737  29.902  0.00  0.00    +0.253 C 
ATOM      8  O   UNL A   1     -30.725  -1.554  30.270  0.00  0.00    -0.270 OA
ATOM      9  N   UNL A   1     -30.524   0.566  29.697  0.00  0.00    -0.253 N 
ATOM     10  C   UNL A   1     -31.930   0.764  29.624  0.00  0.00    +0.120 C 
BRANCH   9  11
ATOM     11  C   UNL A   1     -29.684   1.691  29.339  0.00  0.00    +0.054 A 
ATOM     12  C   UNL A   1     -29.535   2.211  28.274  0.00  0.00    +0.015 A 
ATOM     13  C   UNL A   1     -28.588   3.263  28.015  0.00  0.00    +0.001 A 
ATOM     14  C   UNL A   1     -27.733   3.344  28.617  0.00  0.00    +0.005 A 
ATOM     15  C   UNL A   1     -27.523   2.792  29.973  0.00  0.00    +0.056 A 
ATOM     16  C   UNL A   1     -28.556   1.779  30.332  0.00  0.00    +0.019 A 
BRANCH  15  17
ATOM     17  C   UNL A   1     -26.416   3.049  30.901  0.00  0.00    +0.265 C 
ATOM     18  O   UNL A   1     -25.298   3.067  30.414  0.00  0.00    -0.268 OA
ATOM     19  N   UNL A   1     -26.614   3.575  32.101  0.00  0.00    -0.200 NA
ATOM     20  C   UNL A   1     -25.457   3.858  33.018  0.00  0.00    +0.139 C 
ENDBRANCH  15  17
ENDBRANCH   9  11
ENDBRANCH   2   7
BRANCH   3  21
ATOM     21  C   UNL A   1     -25.710  -0.751  27.613  0.00  0.00    +0.053 C 
BRANCH  21  22
ATOM     22  C   UNL A   1     -25.318   0.636  27.290  0.00  0.00    -0.018 A 
ATOM     23  C   UNL A   1     -24.195   1.139  27.859  0.00  0.00    -0.004 A 
ATOM     24  C   UNL A   1     -23.635   2.374  27.392  0.00  0.00    -0.000 A 
ATOM     25  C   UNL A   1     -24.233   3.051  26.341  0.00  0.00    -0.000 A 
ATOM     26  C   UNL A   1     -25.949   1.309  26.208  0.00  0.00    -0.004 A 
ATOM     27  C   UNL A   1     -25.428   2.555  25.823  0.00  0.00    -0.000 A 
BRANCH  26  28
ATOM     28  C   UNL A   1     -27.111   0.806  25.683  0.00  0.00    -0.000 C 
ATOM     29  C   UNL A   1     -27.611   1.253  24.454  0.00  0.00    -0.000 C 
BRANCH  29  30
ATOM     30  C   UNL A   1     -28.788   0.723  23.922  0.00  0.00    -0.000 A 
ATOM     31  C   UNL A   1     -29.847   1.420  23.617  0.00  0.00    -0.000 A 
ATOM     32  C   UNL A   1     -31.100   0.985  23.239  0.00  0.00    +0.000 A 
ATOM     33  C   UNL A   1     -31.305  -0.406  23.414  0.00  0.00    +0.000 A 
ATOM     34  C   UNL A   1     -30.250  -1.259  23.879  0.00  0.00    +0.000 A 
ATOM     35  C   UNL A   1     -29.014  -0.681  24.226  0.00  0.00    -0.000 A 
ENDBRANCH  29  30
ENDBRANCH  26  28
ENDBRANCH  21  22
ENDBRANCH   3  21
TORSDOF 7
