MODEL 1106
MODEL 1
REMARK VINA RESULT:    -7.775      0.000      0.000
REMARK INTER + INTRA:         -14.361
REMARK INTER:                 -10.956
REMARK INTRA:                  -3.405
REMARK UNBOUND:                -3.405
REMARK  Name = No_1106-gen_results/8p0m/2024-11-26-14-13-15/
REMARK  7 active torsions:
REMARK  status: ('A' for Active; 'I' for Inactive)
REMARK    1  A    between atoms: C_2  and  C_7
REMARK    2  A    between atoms: C_3  and  C_17
REMARK    3  A    between atoms: N_9  and  C_11
REMARK    4  A    between atoms: C_15  and  C_32
REMARK    5  A    between atoms: C_17  and  C_18
REMARK    6  A    between atoms: C_22  and  C_23
REMARK    7  A    between atoms: C_25  and  C_26
REMARK                            x       y       z     vdW  Elec       q    Type
REMARK                         _______ _______ _______ _____ _____    ______ ____
ROOT
ATOM      1  C   UNL A   1     -27.182   1.801  25.233  0.00  0.00    +0.001 A 
ATOM      2  C   UNL A   1     -28.196   2.086  25.191  0.00  0.00    +0.054 A 
ATOM      3  C   UNL A   1     -26.843   0.485  24.668  0.00  0.00    -0.018 A 
ATOM      4  C   UNL A   1     -27.826  -0.282  23.977  0.00  0.00    -0.004 A 
ATOM      5  C   UNL A   1     -29.380   1.513  24.494  0.00  0.00    +0.004 A 
ATOM      6  C   UNL A   1     -29.107   0.287  23.965  0.00  0.00    -0.000 A 
ENDROOT
BRANCH   2   7
ATOM      7  C   UNL A   1     -28.600   3.513  25.776  0.00  0.00    +0.253 C 
ATOM      8  O   UNL A   1     -28.905   4.403  25.178  0.00  0.00    -0.270 OA
ATOM      9  N   UNL A   1     -28.789   3.442  27.159  0.00  0.00    -0.253 N 
ATOM     10  C   UNL A   1     -29.050   4.655  27.853  0.00  0.00    +0.120 C 
BRANCH   9  11
ATOM     11  C   UNL A   1     -28.526   2.268  27.966  0.00  0.00    +0.054 A 
ATOM     12  C   UNL A   1     -29.289   1.434  28.353  0.00  0.00    +0.015 A 
ATOM     13  C   UNL A   1     -28.929   0.362  29.242  0.00  0.00    +0.001 A 
ATOM     14  C   UNL A   1     -28.116   0.485  29.893  0.00  0.00    +0.005 A 
ATOM     15  C   UNL A   1     -26.998   1.446  29.776  0.00  0.00    +0.056 A 
ATOM     16  C   UNL A   1     -27.279   2.513  28.773  0.00  0.00    +0.019 A 
BRANCH  15  17
ATOM     17  C   UNL A   1     -25.764   1.510  30.566  0.00  0.00    +0.265 C 
ATOM     18  O   UNL A   1     -25.528   2.575  31.112  0.00  0.00    -0.268 OA
ATOM     19  N   UNL A   1     -25.128   0.418  30.963  0.00  0.00    -0.200 NA
ATOM     20  C   UNL A   1     -23.882   0.514  31.800  0.00  0.00    +0.139 C 
ENDBRANCH  15  17
ENDBRANCH   9  11
ENDBRANCH   2   7
BRANCH   3  21
ATOM     21  C   UNL A   1     -25.503  -0.174  24.783  0.00  0.00    +0.053 C 
BRANCH  21  22
ATOM     22  C   UNL A   1     -24.519   0.598  25.571  0.00  0.00    -0.018 A 
ATOM     23  C   UNL A   1     -23.987   1.716  25.021  0.00  0.00    -0.004 A 
ATOM     24  C   UNL A   1     -23.230   2.631  25.826  0.00  0.00    -0.000 A 
ATOM     25  C   UNL A   1     -23.055   2.382  27.178  0.00  0.00    -0.000 A 
ATOM     26  C   UNL A   1     -24.358   0.320  26.956  0.00  0.00    -0.004 A 
ATOM     27  C   UNL A   1     -23.546   1.189  27.704  0.00  0.00    -0.000 A 
BRANCH  26  28
ATOM     28  C   UNL A   1     -24.864  -0.842  27.477  0.00  0.00    -0.000 C 
ATOM     29  C   UNL A   1     -24.198  -1.537  28.495  0.00  0.00    -0.000 C 
BRANCH  29  30
ATOM     30  C   UNL A   1     -24.730  -2.712  29.028  0.00  0.00    -0.000 A 
ATOM     31  C   UNL A   1     -24.375  -3.917  28.676  0.00  0.00    -0.000 A 
ATOM     32  C   UNL A   1     -24.937  -5.129  29.019  0.00  0.00    +0.000 A 
ATOM     33  C   UNL A   1     -26.191  -5.019  29.670  0.00  0.00    +0.000 A 
ATOM     34  C   UNL A   1     -26.753  -3.738  29.987  0.00  0.00    +0.000 A 
ATOM     35  C   UNL A   1     -26.068  -2.578  29.581  0.00  0.00    -0.000 A 
ENDBRANCH  29  30
ENDBRANCH  26  28
ENDBRANCH  21  22
ENDBRANCH   3  21
TORSDOF 7
ENDMDL
ENDMDL
