REMARK  Name = No_1107-gen_results/8p0m/2024-11-26-14-13-15/
REMARK  1 active torsions:
REMARK  status: ('A' for Active; 'I' for Inactive)
REMARK    1  A    between atoms: C_3  and  C_4
REMARK                            x       y       z     vdW  Elec       q    Type
REMARK                         _______ _______ _______ _____ _____    ______ ____
ROOT
ATOM      1  C   UNL A   1     -28.016  -0.814  28.878  0.00  0.00    +0.005 C 
ATOM      2  C   UNL A   1     -28.469  -0.785  29.829  0.00  0.00    +0.008 C 
ATOM      3  C   UNL A   1     -28.182   0.428  28.113  0.00  0.00    +0.030 C 
ATOM      4  C   UNL A   1     -29.426   0.110  30.418  0.00  0.00    +0.065 C 
ATOM      5  C   UNL A   1     -29.623   1.220  29.735  0.00  0.00    +0.151 C 
ATOM      6  C   UNL A   1     -28.961   1.453  28.551  0.00  0.00    +0.069 C 
ATOM      7  O   UNL A   1     -30.455   2.221  30.233  0.00  0.00    -0.296 OA
ENDROOT
BRANCH   3   8
ATOM      8  C   UNL A   1     -27.450   0.643  26.850  0.00  0.00    -0.022 A 
ATOM      9  C   UNL A   1     -27.860   1.457  25.908  0.00  0.00    -0.004 A 
ATOM     10  C   UNL A   1     -27.173   1.574  24.703  0.00  0.00    -0.000 A 
ATOM     11  C   UNL A   1     -26.089   0.747  24.413  0.00  0.00    -0.000 A 
ATOM     12  C   UNL A   1     -25.636  -0.119  25.397  0.00  0.00    -0.000 A 
ATOM     13  C   UNL A   1     -26.281  -0.206  26.582  0.00  0.00    -0.004 A 
ENDBRANCH   3   8
TORSDOF 1
