MODEL 1107
MODEL 1
REMARK VINA RESULT:    -6.613      0.000      0.000
REMARK INTER + INTRA:          -7.352
REMARK INTER:                  -7.000
REMARK INTRA:                  -0.353
REMARK UNBOUND:                -0.353
REMARK  Name = No_1107-gen_results/8p0m/2024-11-26-14-13-15/
REMARK  1 active torsions:
REMARK  status: ('A' for Active; 'I' for Inactive)
REMARK    1  A    between atoms: C_3  and  C_4
REMARK                            x       y       z     vdW  Elec       q    Type
REMARK                         _______ _______ _______ _____ _____    ______ ____
ROOT
ATOM      1  C   UNL A   1     -23.883  -3.880  28.551  0.00  0.00    +0.005 C 
ATOM      2  C   UNL A   1     -24.389  -4.734  28.905  0.00  0.00    +0.008 C 
ATOM      3  C   UNL A   1     -24.563  -2.620  28.877  0.00  0.00    +0.030 C 
ATOM      4  C   UNL A   1     -25.722  -4.931  29.403  0.00  0.00    +0.065 C 
ATOM      5  C   UNL A   1     -26.372  -3.816  29.672  0.00  0.00    +0.151 C 
ATOM      6  C   UNL A   1     -25.791  -2.586  29.460  0.00  0.00    +0.069 C 
ATOM      7  O   UNL A   1     -27.640  -3.855  30.248  0.00  0.00    -0.296 OA
ENDROOT
BRANCH   3   8
ATOM      8  C   UNL A   1     -23.904  -1.321  28.640  0.00  0.00    -0.022 A 
ATOM      9  C   UNL A   1     -24.393  -0.399  27.847  0.00  0.00    -0.004 A 
ATOM     10  C   UNL A   1     -23.700   0.783  27.598  0.00  0.00    -0.000 A 
ATOM     11  C   UNL A   1     -22.413   0.977  28.096  0.00  0.00    -0.000 A 
ATOM     12  C   UNL A   1     -21.878   0.016  28.941  0.00  0.00    -0.000 A 
ATOM     13  C   UNL A   1     -22.566  -1.116  29.212  0.00  0.00    -0.004 A 
ENDBRANCH   3   8
TORSDOF 1
ENDMDL
ENDMDL
