REMARK  Name = No_1108-gen_results/8p0m/2024-11-26-14-13-15/
REMARK  3 active torsions:
REMARK  status: ('A' for Active; 'I' for Inactive)
REMARK    1  A    between atoms: C_5  and  O_8
REMARK    2  A    between atoms: O_8  and  C_9
REMARK    3  A    between atoms: C_9  and  C_10
REMARK                            x       y       z     vdW  Elec       q    Type
REMARK                         _______ _______ _______ _____ _____    ______ ____
ROOT
ATOM      1  C   UNL A   1     -28.016  -0.814  28.878  0.00  0.00    +0.052 C 
ATOM      2  C   UNL A   1     -27.064  -0.119  28.608  0.00  0.00    +0.043 C 
ATOM      3  C   UNL A   1     -25.792  -0.430  29.076  0.00  0.00    -0.040 C 
ATOM      4  C   UNL A   1     -25.270  -0.049  30.012  0.00  0.00    -0.034 C 
ATOM      5  C   UNL A   1     -28.519  -0.630  30.092  0.00  0.00    +0.170 C 
ATOM      6  C   UNL A   1     -27.646  -0.565  31.356  0.00  0.00    +0.048 C 
ATOM      7  C   UNL A   1     -26.255  -0.209  31.400  0.00  0.00    +0.029 C 
ATOM      8  C   UNL A   1     -26.854   0.346  27.070  0.00  0.00    -0.026 C 
ATOM      9  C   UNL A   1     -25.611   0.446  26.668  0.00  0.00    -0.026 C 
ATOM     10  C   UNL A   1     -24.803   0.054  27.906  0.00  0.00    +0.048 C 
ENDROOT
BRANCH   5  11
ATOM     11  O   UNL A   1     -29.758  -1.027  30.476  0.00  0.00    -0.446 OA
BRANCH  11  12
ATOM     12  C   UNL A   1     -30.599  -1.392  29.714  0.00  0.00    +0.397 C 
ATOM     13  O   UNL A   1     -30.756  -2.742  29.633  0.00  0.00    -0.240 OA
BRANCH  12  14
ATOM     14  C   UNL A   1     -31.439  -0.585  28.919  0.00  0.00    +0.341 C 
ATOM     15  O   UNL A   1     -31.089   0.483  28.874  0.00  0.00    -0.261 OA
ATOM     16  N   UNL A   1     -32.450  -1.081  28.238  0.00  0.00    -0.194 NA
ATOM     17  C   UNL A   1     -33.283  -0.297  27.380  0.00  0.00    +0.139 C 
ENDBRANCH  12  14
ENDBRANCH  11  12
ENDBRANCH   5  11
TORSDOF 3
