MODEL 1108
MODEL 1
REMARK VINA RESULT:    -6.626      0.000      0.000
REMARK INTER + INTRA:          -8.120
REMARK INTER:                  -7.788
REMARK INTRA:                  -0.333
REMARK UNBOUND:                -0.333
REMARK  Name = No_1108-gen_results/8p0m/2024-11-26-14-13-15/
REMARK  3 active torsions:
REMARK  status: ('A' for Active; 'I' for Inactive)
REMARK    1  A    between atoms: C_5  and  O_8
REMARK    2  A    between atoms: O_8  and  C_9
REMARK    3  A    between atoms: C_9  and  C_10
REMARK                            x       y       z     vdW  Elec       q    Type
REMARK                         _______ _______ _______ _____ _____    ______ ____
ROOT
ATOM      1  C   UNL A   1     -23.544  -2.105  29.061  0.00  0.00    +0.052 C 
ATOM      2  C   UNL A   1     -24.203  -3.018  29.502  0.00  0.00    +0.043 C 
ATOM      3  C   UNL A   1     -25.586  -2.917  29.613  0.00  0.00    -0.040 C 
ATOM      4  C   UNL A   1     -26.201  -2.596  30.514  0.00  0.00    -0.034 C 
ATOM      5  C   UNL A   1     -23.310  -1.117  29.916  0.00  0.00    +0.170 C 
ATOM      6  C   UNL A   1     -24.411  -0.489  30.786  0.00  0.00    +0.048 C 
ATOM      7  C   UNL A   1     -25.641  -1.122  31.175  0.00  0.00    +0.029 C 
ATOM      8  C   UNL A   1     -23.924  -4.515  28.948  0.00  0.00    -0.026 C 
ATOM      9  C   UNL A   1     -24.974  -5.294  28.854  0.00  0.00    -0.026 C 
ATOM     10  C   UNL A   1     -26.121  -4.408  29.342  0.00  0.00    +0.048 C 
ENDROOT
BRANCH   5  11
ATOM     11  O   UNL A   1     -22.334  -0.187  29.764  0.00  0.00    -0.446 OA
BRANCH  11  12
ATOM     12  C   UNL A   1     -22.037   0.291  28.714  0.00  0.00    +0.397 C 
ATOM     13  O   UNL A   1     -20.819  -0.083  28.234  0.00  0.00    -0.240 OA
BRANCH  12  14
ATOM     14  C   UNL A   1     -22.809   1.172  27.928  0.00  0.00    +0.341 C 
ATOM     15  O   UNL A   1     -22.672   2.246  28.230  0.00  0.00    -0.261 OA
ATOM     16  N   UNL A   1     -23.519   0.757  26.900  0.00  0.00    -0.194 NA
ATOM     17  C   UNL A   1     -24.265   1.634  26.052  0.00  0.00    +0.139 C 
ENDBRANCH  12  14
ENDBRANCH  11  12
ENDBRANCH   5  11
TORSDOF 3
ENDMDL
ENDMDL
