REMARK  Name = No_1109-gen_results/8p0m/2024-11-26-14-13-15/
REMARK  2 active torsions:
REMARK  status: ('A' for Active; 'I' for Inactive)
REMARK    1  A    between atoms: C_3  and  C_4
REMARK    2  A    between atoms: C_4  and  C_8
REMARK                            x       y       z     vdW  Elec       q    Type
REMARK                         _______ _______ _______ _____ _____    ______ ____
ROOT
ATOM      1  C   UNL A   1     -28.016  -0.814  28.878  0.00  0.00    -0.000 A 
ATOM      2  C   UNL A   1     -27.064  -0.119  28.608  0.00  0.00    -0.004 A 
ATOM      3  C   UNL A   1     -25.792  -0.430  29.076  0.00  0.00    -0.018 A 
ATOM      4  C   UNL A   1     -27.895  -1.861  29.895  0.00  0.00    -0.000 A 
ATOM      5  C   UNL A   1     -26.671  -2.298  30.337  0.00  0.00    -0.000 A 
ATOM      6  C   UNL A   1     -25.551  -1.563  29.941  0.00  0.00    -0.004 A 
ENDROOT
BRANCH   3   7
ATOM      7  C   UNL A   1     -24.632   0.310  28.729  0.00  0.00    +0.052 C 
BRANCH   7   8
ATOM      8  C   UNL A   1     -23.358   0.100  29.234  0.00  0.00    -0.026 C 
ATOM      9  C   UNL A   1     -22.291   0.916  28.871  0.00  0.00    -0.030 C 
ATOM     10  C   UNL A   1     -22.477   1.852  27.752  0.00  0.00    +0.030 C 
ENDBRANCH   7   8
ENDBRANCH   3   7
TORSDOF 2
