MODEL 1109
MODEL 1
REMARK VINA RESULT:    -5.447      0.000      0.000
REMARK INTER + INTRA:          -6.342
REMARK INTER:                  -6.084
REMARK INTRA:                  -0.257
REMARK UNBOUND:                -0.257
REMARK  Name = No_1109-gen_results/8p0m/2024-11-26-14-13-15/
REMARK  2 active torsions:
REMARK  status: ('A' for Active; 'I' for Inactive)
REMARK    1  A    between atoms: C_3  and  C_4
REMARK    2  A    between atoms: C_4  and  C_8
REMARK                            x       y       z     vdW  Elec       q    Type
REMARK                         _______ _______ _______ _____ _____    ______ ____
ROOT
ATOM      1  C   UNL A   1     -24.980  -5.243  29.091  0.00  0.00    -0.000 A 
ATOM      2  C   UNL A   1     -24.159  -4.400  28.813  0.00  0.00    -0.004 A 
ATOM      3  C   UNL A   1     -24.355  -3.067  29.156  0.00  0.00    -0.018 A 
ATOM      4  C   UNL A   1     -26.302  -4.848  29.581  0.00  0.00    -0.000 A 
ATOM      5  C   UNL A   1     -26.551  -3.576  30.035  0.00  0.00    -0.000 A 
ATOM      6  C   UNL A   1     -25.561  -2.616  29.814  0.00  0.00    -0.004 A 
ENDROOT
BRANCH   3   7
ATOM      7  C   UNL A   1     -23.393  -2.051  28.918  0.00  0.00    +0.052 C 
BRANCH   7   8
ATOM      8  C   UNL A   1     -23.672  -0.721  28.643  0.00  0.00    -0.026 C 
ATOM      9  C   UNL A   1     -22.655   0.216  28.490  0.00  0.00    -0.030 C 
ATOM     10  C   UNL A   1     -21.287  -0.170  28.870  0.00  0.00    +0.030 C 
ENDBRANCH   7   8
ENDBRANCH   3   7
TORSDOF 2
ENDMDL
ENDMDL
