MODEL 110
MODEL 1
REMARK VINA RESULT:    -5.380      0.000      0.000
REMARK INTER + INTRA:          -5.729
REMARK INTER:                  -5.694
REMARK INTRA:                  -0.034
REMARK UNBOUND:                -0.034
REMARK  Name = No_110-gen_results/8p0m/2024-11-26-14-13-15/
REMARK  1 active torsions:
REMARK  status: ('A' for Active; 'I' for Inactive)
REMARK    1  A    between atoms: C_1  and  C_7
REMARK                            x       y       z     vdW  Elec       q    Type
REMARK                         _______ _______ _______ _____ _____    ______ ____
ROOT
ATOM      1  C   UNL A   1      -9.559 -10.074  18.313  0.00  0.00    +0.080 A 
ATOM      2  C   UNL A   1      -8.464 -10.502  18.595  0.00  0.00    +0.007 A 
ATOM      3  C   UNL A   1      -7.795 -10.185  19.761  0.00  0.00    +0.000 A 
ATOM      4  C   UNL A   1      -8.452  -9.337  20.696  0.00  0.00    +0.000 A 
ATOM      5  C   UNL A   1      -9.738  -9.023  20.415  0.00  0.00    +0.000 A 
ATOM      6  C   UNL A   1     -10.312  -9.406  19.291  0.00  0.00    +0.007 A 
ENDROOT
BRANCH   1   7
ATOM      7  C   UNL A   1     -10.221 -10.483  17.021  0.00  0.00    +0.388 C 
ATOM      8  O   UNL A   1      -9.535 -11.036  16.171  0.00  0.00    -0.241 OA
ATOM      9  O   UNL A   1     -11.505 -10.513  16.881  0.00  0.00    -0.241 OA
ENDBRANCH   1   7
TORSDOF 1
ENDMDL
ENDMDL
