MODEL 1110
MODEL 1
REMARK VINA RESULT:    -6.710      0.000      0.000
REMARK INTER + INTRA:          -6.710
REMARK INTER:                  -6.710
REMARK INTRA:                   0.000
REMARK UNBOUND:                 0.000
REMARK  Name = No_1110-gen_results/8p0m/2024-11-26-14-13-15/
REMARK  0 active torsions:
REMARK  status: ('A' for Active; 'I' for Inactive)
REMARK                            x       y       z     vdW  Elec       q    Type
REMARK                         _______ _______ _______ _____ _____    ______ ____
ROOT
ATOM      1  C   UNL A   1     -26.343  -4.471  29.658  0.00  0.00    -0.000 A 
ATOM      2  C   UNL A   1     -26.028  -3.352  29.989  0.00  0.00    -0.004 A 
ATOM      3  C   UNL A   1     -24.799  -2.813  29.622  0.00  0.00    -0.000 A 
ATOM      4  C   UNL A   1     -24.293  -1.456  29.976  0.00  0.00    -0.000 A 
ATOM      5  C   UNL A   1     -23.010  -0.922  29.603  0.00  0.00    -0.000 A 
ATOM      6  C   UNL A   1     -25.356  -5.357  29.019  0.00  0.00    -0.000 A 
ATOM      7  C   UNL A   1     -24.157  -4.903  28.555  0.00  0.00    -0.000 A 
ATOM      8  C   UNL A   1     -23.822  -3.570  28.848  0.00  0.00    -0.000 A 
ATOM      9  C   UNL A   1     -22.695   0.348  29.993  0.00  0.00    -0.000 A 
ATOM     10  C   UNL A   1     -23.532   1.301  30.477  0.00  0.00    -0.000 A 
ATOM     11  C   UNL A   1     -25.193  -0.464  30.545  0.00  0.00    -0.000 A 
ATOM     12  C   UNL A   1     -26.519  -0.855  30.813  0.00  0.00    -0.004 A 
ATOM     13  C   UNL A   1     -24.836   0.875  30.769  0.00  0.00    -0.000 A 
ATOM     14  C   UNL A   1     -26.959  -2.340  30.609  0.00  0.00    -0.022 A 
ATOM     15  C   UNL A   1     -28.275  -2.747  30.944  0.00  0.00    +0.031 C 
ENDROOT
TORSDOF 0
ENDMDL
ENDMDL
