MODEL 1111
MODEL 1
REMARK VINA RESULT:    -4.568      0.000      0.000
REMARK INTER + INTRA:          -4.568
REMARK INTER:                  -4.568
REMARK INTRA:                   0.000
REMARK UNBOUND:                 0.000
REMARK  Name = No_1111-gen_results/8p0m/2024-11-26-14-13-15/
REMARK  0 active torsions:
REMARK  status: ('A' for Active; 'I' for Inactive)
REMARK                            x       y       z     vdW  Elec       q    Type
REMARK                         _______ _______ _______ _____ _____    ______ ____
ROOT
ATOM      1  C   UNL A   1     -10.178  -9.789  18.299  0.00  0.00    +0.030 A 
ATOM      2  C   UNL A   1      -9.219 -10.451  17.976  0.00  0.00    +0.140 A 
ATOM      3  C   UNL A   1      -8.091 -10.566  18.722  0.00  0.00    +0.030 A 
ATOM      4  C   UNL A   1      -8.027  -9.877  19.947  0.00  0.00    +0.002 A 
ATOM      5  C   UNL A   1     -10.219  -9.135  19.582  0.00  0.00    +0.002 A 
ATOM      6  C   UNL A   1      -9.100  -9.196  20.357  0.00  0.00    +0.000 A 
ATOM      7  F   UNL A   1      -9.207 -11.143  16.808  0.00  0.00    -0.204 F 
ENDROOT
TORSDOF 0
ENDMDL
ENDMDL
