MODEL 1112
MODEL 1
REMARK VINA RESULT:    -7.156      0.000      0.000
REMARK INTER + INTRA:          -9.963
REMARK INTER:                  -8.829
REMARK INTRA:                  -1.134
REMARK UNBOUND:                -1.134
REMARK  Name = No_1112-gen_results/8p0m/2024-11-26-14-13-15/
REMARK  4 active torsions:
REMARK  status: ('A' for Active; 'I' for Inactive)
REMARK    1  A    between atoms: C_3  and  C_8
REMARK    2  A    between atoms: C_9  and  C_10
REMARK    3  A    between atoms: C_9  and  C_19
REMARK    4  A    between atoms: C_11  and  C_12
REMARK                            x       y       z     vdW  Elec       q    Type
REMARK                         _______ _______ _______ _____ _____    ______ ____
ROOT
ATOM      1  C   UNL A   1     -23.478  -1.147  28.927  0.00  0.00    -0.025 C 
ATOM      2  C   UNL A   1     -23.884  -0.025  28.099  0.00  0.00    -0.010 C 
ATOM      3  C   UNL A   1     -22.253  -1.195  29.600  0.00  0.00    +0.031 C 
ENDROOT
BRANCH   1   6
ATOM      4  C   UNL A   1     -26.403  -3.051  30.096  0.00  0.00    +0.002 A 
ATOM      5  C   UNL A   1     -25.657  -2.148  29.793  0.00  0.00    -0.000 A 
ATOM      6  C   UNL A   1     -24.443  -2.301  29.145  0.00  0.00    -0.002 A 
ATOM      7  C   UNL A   1     -24.063  -3.627  28.783  0.00  0.00    +0.029 A 
ATOM      8  C   UNL A   1     -24.978  -4.589  28.987  0.00  0.00    +0.140 A 
ATOM      9  C   UNL A   1     -26.118  -4.345  29.566  0.00  0.00    +0.030 A 
ATOM     10  F   UNL A   1     -24.631  -5.812  28.604  0.00  0.00    -0.204 F 
ENDBRANCH   1   6
BRANCH   2  11
ATOM     11  C   UNL A   1     -24.914   0.081  27.370  0.00  0.00    -0.003 C 
ATOM     12  C   UNL A   1     -25.096   0.072  26.257  0.00  0.00    -0.000 C 
BRANCH  12  13
ATOM     13  C   UNL A   1     -26.486   0.253  25.710  0.00  0.00    -0.000 A 
ATOM     14  C   UNL A   1     -26.836   0.156  24.378  0.00  0.00    -0.000 A 
ATOM     15  C   UNL A   1     -27.535   0.446  26.742  0.00  0.00    -0.000 A 
ATOM     16  C   UNL A   1     -28.903   0.631  26.276  0.00  0.00    -0.000 A 
ATOM     17  C   UNL A   1     -29.203   0.445  24.967  0.00  0.00    +0.000 A 
ATOM     18  C   UNL A   1     -28.188   0.296  24.014  0.00  0.00    -0.000 A 
ENDBRANCH  12  13
ENDBRANCH   2  11
BRANCH   2  19
ATOM     19  C   UNL A   1     -22.717   0.955  28.178  0.00  0.00    +0.121 C 
ATOM     20 CL   UNL A   1     -21.999   1.793  26.997  0.00  0.00    -0.108 Cl
ENDBRANCH   2  19
TORSDOF 4
ENDMDL
ENDMDL
