REMARK  Name = No_1112-gen_results/8p0m/2024-11-26-14-13-15/
REMARK  4 active torsions:
REMARK  status: ('A' for Active; 'I' for Inactive)
REMARK    1  A    between atoms: C_3  and  C_8
REMARK    2  A    between atoms: C_9  and  C_10
REMARK    3  A    between atoms: C_9  and  C_19
REMARK    4  A    between atoms: C_11  and  C_12
REMARK                            x       y       z     vdW  Elec       q    Type
REMARK                         _______ _______ _______ _____ _____    ______ ____
ROOT
ATOM      1  C   UNL A   1     -25.693   1.447  27.135  0.00  0.00    -0.025 C 
ATOM      2  C   UNL A   1     -25.023   2.261  28.134  0.00  0.00    -0.010 C 
ATOM      3  C   UNL A   1     -25.182   1.243  25.849  0.00  0.00    +0.031 C 
ENDROOT
BRANCH   1   6
ATOM      4  C   UNL A   1     -28.016  -0.814  28.878  0.00  0.00    +0.002 A 
ATOM      5  C   UNL A   1     -27.064  -0.119  28.608  0.00  0.00    -0.000 A 
ATOM      6  C   UNL A   1     -26.972   0.714  27.506  0.00  0.00    -0.002 A 
ATOM      7  C   UNL A   1     -28.105   0.774  26.642  0.00  0.00    +0.029 A 
ATOM      8  C   UNL A   1     -29.204   0.118  27.048  0.00  0.00    +0.140 A 
ATOM      9  C   UNL A   1     -29.213  -0.609  28.128  0.00  0.00    +0.030 A 
ATOM     10  F   UNL A   1     -30.267   0.218  26.259  0.00  0.00    -0.204 F 
ENDBRANCH   1   6
BRANCH   2  11
ATOM     11  C   UNL A   1     -25.438   2.595  29.283  0.00  0.00    -0.003 C 
ATOM     12  C   UNL A   1     -26.394   2.424  29.856  0.00  0.00    -0.000 C 
BRANCH  12  13
ATOM     13  C   UNL A   1     -26.569   3.000  31.235  0.00  0.00    -0.000 A 
ATOM     14  C   UNL A   1     -27.663   2.791  32.051  0.00  0.00    -0.000 A 
ATOM     15  C   UNL A   1     -25.397   3.756  31.742  0.00  0.00    -0.000 A 
ATOM     16  C   UNL A   1     -25.506   4.342  33.071  0.00  0.00    -0.000 A 
ATOM     17  C   UNL A   1     -26.566   4.039  33.860  0.00  0.00    +0.000 A 
ATOM     18  C   UNL A   1     -27.669   3.350  33.343  0.00  0.00    -0.000 A 
ENDBRANCH  12  13
ENDBRANCH   2  11
BRANCH   2  19
ATOM     19  C   UNL A   1     -23.759   2.761  27.440  0.00  0.00    +0.121 C 
ATOM     20 CL   UNL A   1     -23.238   2.489  25.934  0.00  0.00    -0.108 Cl
ENDBRANCH   2  19
TORSDOF 4
