MODEL 1113
MODEL 1
REMARK VINA RESULT:    -6.008      0.000      0.000
REMARK INTER + INTRA:          -7.202
REMARK INTER:                  -6.711
REMARK INTRA:                  -0.491
REMARK UNBOUND:                -0.491
REMARK  Name = No_1113-gen_results/8p0m/2024-11-26-14-13-15/
REMARK  2 active torsions:
REMARK  status: ('A' for Active; 'I' for Inactive)
REMARK    1  A    between atoms: C_4  and  C_7
REMARK    2  A    between atoms: C_7  and  C_8
REMARK                            x       y       z     vdW  Elec       q    Type
REMARK                         _______ _______ _______ _____ _____    ______ ____
ROOT
ATOM      1  C   UNL A   1     -26.209  -4.517  29.694  0.00  0.00    +0.029 A 
ATOM      2  C   UNL A   1     -25.479  -5.115  29.225  0.00  0.00    +0.002 A 
ATOM      3  C   UNL A   1     -25.859  -3.105  29.918  0.00  0.00    +0.137 A 
ATOM      4  C   UNL A   1     -24.648  -2.566  29.393  0.00  0.00    +0.010 A 
ATOM      5  C   UNL A   1     -23.822  -3.455  28.751  0.00  0.00    -0.002 A 
ATOM      6  C   UNL A   1     -24.182  -4.747  28.596  0.00  0.00    -0.000 A 
ATOM      7  F   UNL A   1     -26.660  -2.240  30.578  0.00  0.00    -0.204 F 
ENDROOT
BRANCH   4   8
ATOM      8  C   UNL A   1     -24.297  -1.183  29.586  0.00  0.00    +0.055 C 
BRANCH   8   9
ATOM      9  C   UNL A   1     -24.312  -0.387  28.423  0.00  0.00    -0.015 A 
ATOM     10  C   UNL A   1     -23.338   0.626  28.221  0.00  0.00    +0.017 A 
ATOM     11  C   UNL A   1     -23.224   1.318  27.023  0.00  0.00    +0.099 A 
ATOM     12  C   UNL A   1     -25.354  -0.473  27.416  0.00  0.00    +0.017 A 
ATOM     13  C   UNL A   1     -25.201   0.131  26.157  0.00  0.00    +0.099 A 
ATOM     14  N   UNL A   1     -24.161   1.055  26.031  0.00  0.00    -0.242 NA
ENDBRANCH   8   9
ENDBRANCH   4   8
TORSDOF 2
ENDMDL
ENDMDL
