MODEL 1114
MODEL 1
REMARK VINA RESULT:    -6.996      0.000      0.000
REMARK INTER + INTRA:          -9.304
REMARK INTER:                  -8.633
REMARK INTRA:                  -0.671
REMARK UNBOUND:                -0.671
REMARK  Name = No_1114-gen_results/8p0m/2024-11-26-14-13-15/
REMARK  4 active torsions:
REMARK  status: ('A' for Active; 'I' for Inactive)
REMARK    1  A    between atoms: C_2  and  C_7
REMARK    2  A    between atoms: C_5  and  C_14
REMARK    3  A    between atoms: C_7  and  C_8
REMARK    4  A    between atoms: C_8  and  C_17
REMARK                            x       y       z     vdW  Elec       q    Type
REMARK                         _______ _______ _______ _____ _____    ______ ____
ROOT
ATOM      1  C   UNL A   1     -23.053  -0.784  29.459  0.00  0.00    +0.054 C 
ENDROOT
BRANCH   1   3
ATOM      2  C   UNL A   1     -24.208  -0.084  27.477  0.00  0.00    +0.003 A 
ATOM      3  C   UNL A   1     -23.272   0.121  28.215  0.00  0.00    -0.018 A 
ATOM      4  C   UNL A   1     -22.365   1.050  28.116  0.00  0.00    -0.004 A 
ATOM      5  C   UNL A   1     -22.441   1.948  27.009  0.00  0.00    -0.000 A 
ATOM      6  C   UNL A   1     -24.418   0.858  26.394  0.00  0.00    +0.080 A 
ATOM      7  C   UNL A   1     -23.524   1.829  26.210  0.00  0.00    +0.007 A 
BRANCH   6   8
ATOM      8  C   UNL A   1     -25.624   0.660  25.498  0.00  0.00    +0.388 C 
ATOM      9  O   UNL A   1     -25.470   0.034  24.488  0.00  0.00    -0.241 OA
ATOM     10  O   UNL A   1     -26.643   1.443  25.650  0.00  0.00    -0.241 OA
ENDBRANCH   6   8
ENDBRANCH   1   3
BRANCH   1  11
ATOM     11  C   UNL A   1     -24.278  -1.488  29.910  0.00  0.00    -0.006 C 
ATOM     12  C   UNL A   1     -24.582  -2.702  29.542  0.00  0.00    -0.038 C 
ATOM     13  C   UNL A   1     -25.810  -3.265  30.012  0.00  0.00    +0.048 C 
ATOM     14  C   UNL A   1     -26.155  -4.568  29.607  0.00  0.00    -0.026 C 
ATOM     15  C   UNL A   1     -25.132  -5.300  28.985  0.00  0.00    -0.026 C 
ATOM     16  C   UNL A   1     -23.860  -3.830  28.861  0.00  0.00    +0.048 C 
BRANCH  11  17
ATOM     17  C   UNL A   1     -24.832  -0.959  31.063  0.00  0.00    +0.089 C 
ATOM     18  N   UNL A   1     -24.887  -0.037  31.914  0.00  0.00    -0.267 NA
ATOM     19  C   UNL A   1     -25.665   0.025  32.966  0.00  0.00    +0.152 C 
ENDBRANCH  11  17
ENDBRANCH   1  11
TORSDOF 4
ENDMDL
ENDMDL
