REMARK  Name = No_1114-gen_results/8p0m/2024-11-26-14-13-15/
REMARK  4 active torsions:
REMARK  status: ('A' for Active; 'I' for Inactive)
REMARK    1  A    between atoms: C_2  and  C_7
REMARK    2  A    between atoms: C_5  and  C_14
REMARK    3  A    between atoms: C_7  and  C_8
REMARK    4  A    between atoms: C_8  and  C_17
REMARK                            x       y       z     vdW  Elec       q    Type
REMARK                         _______ _______ _______ _____ _____    ______ ____
ROOT
ATOM      1  C   UNL A   1     -25.873  -0.713  27.805  0.00  0.00    +0.054 C 
ENDROOT
BRANCH   1   3
ATOM      2  C   UNL A   1     -28.016  -0.814  28.878  0.00  0.00    +0.003 A 
ATOM      3  C   UNL A   1     -27.064  -0.119  28.608  0.00  0.00    -0.018 A 
ATOM      4  C   UNL A   1     -26.876   1.133  28.913  0.00  0.00    -0.004 A 
ATOM      5  C   UNL A   1     -27.901   1.807  29.644  0.00  0.00    -0.000 A 
ATOM      6  C   UNL A   1     -29.046  -0.232  29.718  0.00  0.00    +0.080 A 
ATOM      7  C   UNL A   1     -28.940   1.052  30.060  0.00  0.00    +0.007 A 
BRANCH   6   8
ATOM      8  C   UNL A   1     -30.215  -1.106  30.125  0.00  0.00    +0.388 C 
ATOM      9  O   UNL A   1     -31.074  -1.300  29.313  0.00  0.00    -0.241 OA
ATOM     10  O   UNL A   1     -30.430  -1.303  31.386  0.00  0.00    -0.241 OA
ENDBRANCH   6   8
ENDBRANCH   1   3
BRANCH   1  11
ATOM     11  C   UNL A   1     -24.760  -1.199  28.657  0.00  0.00    -0.006 C 
ATOM     12  C   UNL A   1     -24.277  -0.518  29.659  0.00  0.00    -0.038 C 
ATOM     13  C   UNL A   1     -23.177  -1.072  30.387  0.00  0.00    +0.048 C 
ATOM     14  C   UNL A   1     -22.638  -0.338  31.460  0.00  0.00    -0.026 C 
ATOM     15  C   UNL A   1     -23.401   0.760  31.887  0.00  0.00    -0.026 C 
ATOM     16  C   UNL A   1     -24.704   0.692  30.441  0.00  0.00    +0.048 C 
BRANCH  11  17
ATOM     17  C   UNL A   1     -24.573  -2.569  28.601  0.00  0.00    +0.089 C 
ATOM     18  N   UNL A   1     -24.862  -3.720  29.014  0.00  0.00    -0.267 NA
ATOM     19  C   UNL A   1     -24.353  -4.857  28.610  0.00  0.00    +0.152 C 
ENDBRANCH  11  17
ENDBRANCH   1  11
TORSDOF 4
