MODEL 1115
MODEL 1
REMARK VINA RESULT:    -8.219      0.000      0.000
REMARK INTER + INTRA:         -11.917
REMARK INTER:                 -10.622
REMARK INTRA:                  -1.295
REMARK UNBOUND:                -1.295
REMARK  Name = No_1115-gen_results/8p0m/2024-11-26-14-13-15/
REMARK  5 active torsions:
REMARK  status: ('A' for Active; 'I' for Inactive)
REMARK    1  A    between atoms: C_2  and  C_15
REMARK    2  A    between atoms: C_3  and  C_4
REMARK    3  A    between atoms: C_4  and  C_8
REMARK    4  A    between atoms: C_15  and  N_16
REMARK    5  A    between atoms: C_20  and  C_23
REMARK                            x       y       z     vdW  Elec       q    Type
REMARK                         _______ _______ _______ _____ _____    ______ ____
ROOT
ATOM      1  C   UNL A   1     -25.201  -0.167  27.048  0.00  0.00    -0.003 A 
ATOM      2  C   UNL A   1     -24.714   0.405  26.308  0.00  0.00    +0.025 A 
ATOM      3  C   UNL A   1     -24.607  -0.147  28.394  0.00  0.00    -0.007 A 
ATOM      4  C   UNL A   1     -23.634   1.416  26.400  0.00  0.00    +0.001 A 
ATOM      5  C   UNL A   1     -23.024   1.501  27.646  0.00  0.00    +0.011 A 
ATOM      6  C   UNL A   1     -23.489   0.751  28.706  0.00  0.00    +0.054 A 
ATOM      7 CL   UNL A   1     -22.755   0.858  30.174  0.00  0.00    -0.083 Cl
ENDROOT
BRANCH   2   8
ATOM      8  C   UNL A   1     -25.335   0.430  24.844  0.00  0.00    +0.245 C 
ATOM      9  F   UNL A   1     -24.574  -0.086  24.056  0.00  0.00    -0.214 F 
BRANCH   8  10
ATOM     10  N   UNL A   1     -26.538   0.641  24.665  0.00  0.00    -0.243 NA
ATOM     11  C   UNL A   1     -27.129   1.666  25.048  0.00  0.00    +0.075 C 
ATOM     12  C   UNL A   1     -28.039   2.154  25.148  0.00  0.00    +0.018 C 
ATOM     13  C   UNL A   1     -29.227   1.376  24.694  0.00  0.00    +0.009 C 
ATOM     14  C   UNL A   1     -28.920   0.085  24.137  0.00  0.00    +0.083 C 
ATOM     15  C   UNL A   1     -27.554  -0.317  24.201  0.00  0.00    +0.080 C 
BRANCH  14  16
ATOM     16  C   UNL A   1     -29.900  -0.839  23.668  0.00  0.00    +0.320 C 
ATOM     17  F   UNL A   1     -29.405  -1.962  23.451  0.00  0.00    -0.198 F 
ATOM     18  F   UNL A   1     -30.926  -0.507  23.163  0.00  0.00    -0.198 F 
ENDBRANCH  14  16
ENDBRANCH   8  10
ENDBRANCH   2   8
BRANCH   3  19
ATOM     19  C   UNL A   1     -24.994  -0.957  29.539  0.00  0.00    +0.054 C 
BRANCH  19  20
ATOM     20  C   UNL A   1     -24.989  -2.414  29.328  0.00  0.00    -0.015 A 
ATOM     21  C   UNL A   1     -24.079  -3.004  28.886  0.00  0.00    -0.004 A 
ATOM     22  C   UNL A   1     -24.161  -4.485  28.754  0.00  0.00    +0.003 A 
ATOM     23  C   UNL A   1     -25.315  -5.179  29.159  0.00  0.00    +0.042 A 
ATOM     24  C   UNL A   1     -26.337  -4.442  29.735  0.00  0.00    +0.195 A 
ATOM     25  C   UNL A   1     -26.201  -3.023  29.882  0.00  0.00    +0.038 A 
ATOM     26  O   UNL A   1     -27.373  -5.094  30.195  0.00  0.00    -0.287 OA
ENDBRANCH  19  20
ENDBRANCH   3  19
TORSDOF 5
ENDMDL
ENDMDL
