REMARK  Name = No_1115-gen_results/8p0m/2024-11-26-14-13-15/
REMARK  5 active torsions:
REMARK  status: ('A' for Active; 'I' for Inactive)
REMARK    1  A    between atoms: C_2  and  C_15
REMARK    2  A    between atoms: C_3  and  C_4
REMARK    3  A    between atoms: C_4  and  C_8
REMARK    4  A    between atoms: C_15  and  N_16
REMARK    5  A    between atoms: C_20  and  C_23
REMARK                            x       y       z     vdW  Elec       q    Type
REMARK                         _______ _______ _______ _____ _____    ______ ____
ROOT
ATOM      1  C   UNL A   1     -28.016  -0.814  28.878  0.00  0.00    -0.003 A 
ATOM      2  C   UNL A   1     -28.469  -0.785  29.829  0.00  0.00    +0.025 A 
ATOM      3  C   UNL A   1     -26.546  -0.876  28.850  0.00  0.00    -0.007 A 
ATOM      4  C   UNL A   1     -27.918  -1.003  31.188  0.00  0.00    +0.001 A 
ATOM      5  C   UNL A   1     -26.531  -1.079  31.246  0.00  0.00    +0.011 A 
ATOM      6  C   UNL A   1     -25.780  -1.046  30.090  0.00  0.00    +0.054 A 
ATOM      7 CL   UNL A   1     -24.139  -1.133  30.173  0.00  0.00    -0.083 Cl
ENDROOT
BRANCH   2   8
ATOM      8  C   UNL A   1     -30.057  -0.740  29.907  0.00  0.00    +0.245 C 
ATOM      9  F   UNL A   1     -30.467   0.332  29.521  0.00  0.00    -0.214 F 
BRANCH   8  10
ATOM     10  N   UNL A   1     -30.719  -1.776  30.022  0.00  0.00    -0.243 NA
ATOM     11  C   UNL A   1     -31.770  -1.861  30.680  0.00  0.00    +0.075 C 
ATOM     12  C   UNL A   1     -32.514  -2.484  31.047  0.00  0.00    +0.018 C 
ATOM     13  C   UNL A   1     -32.338  -3.931  30.734  0.00  0.00    +0.009 C 
ATOM     14  C   UNL A   1     -31.187  -4.232  29.924  0.00  0.00    +0.083 C 
ATOM     15  C   UNL A   1     -30.320  -3.139  29.634  0.00  0.00    +0.080 C 
BRANCH  14  16
ATOM     16  C   UNL A   1     -30.807  -5.550  29.530  0.00  0.00    +0.320 C 
ATOM     17  F   UNL A   1     -29.946  -6.026  30.294  0.00  0.00    -0.198 F 
ATOM     18  F   UNL A   1     -30.959  -5.974  28.428  0.00  0.00    -0.198 F 
ENDBRANCH  14  16
ENDBRANCH   8  10
ENDBRANCH   2   8
BRANCH   3  19
ATOM     19  C   UNL A   1     -25.683  -0.777  27.683  0.00  0.00    +0.054 C 
BRANCH  19  20
ATOM     20  C   UNL A   1     -25.232   0.579  27.329  0.00  0.00    -0.015 A 
ATOM     21  C   UNL A   1     -25.903   1.534  27.425  0.00  0.00    -0.004 A 
ATOM     22  C   UNL A   1     -25.335   2.867  27.080  0.00  0.00    +0.003 A 
ATOM     23  C   UNL A   1     -24.003   2.989  26.647  0.00  0.00    +0.042 A 
ATOM     24  C   UNL A   1     -23.233   1.838  26.612  0.00  0.00    +0.195 A 
ATOM     25  C   UNL A   1     -23.806   0.581  26.992  0.00  0.00    +0.038 A 
ATOM     26  O   UNL A   1     -21.969   1.961  26.297  0.00  0.00    -0.287 OA
ENDBRANCH  19  20
ENDBRANCH   3  19
TORSDOF 5
