MODEL 1116
MODEL 1
REMARK VINA RESULT:    -6.526      0.000      0.000
REMARK INTER + INTRA:          -7.226
REMARK INTER:                  -6.907
REMARK INTRA:                  -0.319
REMARK UNBOUND:                -0.319
REMARK  Name = No_1116-gen_results/8p0m/2024-11-26-14-13-15/
REMARK  1 active torsions:
REMARK  status: ('A' for Active; 'I' for Inactive)
REMARK    1  A    between atoms: C_3  and  C_7
REMARK                            x       y       z     vdW  Elec       q    Type
REMARK                         _______ _______ _______ _____ _____    ______ ____
ROOT
ATOM      1  C   UNL A   1     -24.771  -4.898  28.957  0.00  0.00    +0.000 A 
ATOM      2  C   UNL A   1     -24.157  -3.892  28.686  0.00  0.00    +0.000 A 
ATOM      3  C   UNL A   1     -24.604  -2.608  28.999  0.00  0.00    +0.000 A 
ATOM      4  C   UNL A   1     -25.898  -2.446  29.632  0.00  0.00    +0.000 A 
ATOM      5  C   UNL A   1     -26.561  -3.663  29.909  0.00  0.00    +0.000 A 
ATOM      6  C   UNL A   1     -26.063  -4.825  29.570  0.00  0.00    +0.000 A 
ENDROOT
BRANCH   3   7
ATOM      7  C   UNL A   1     -23.900  -1.332  28.709  0.00  0.00    +0.000 A 
ATOM      8  C   UNL A   1     -24.385  -0.453  27.870  0.00  0.00    +0.000 A 
ATOM      9  C   UNL A   1     -23.656   0.741  27.551  0.00  0.00    +0.000 A 
ATOM     10  C   UNL A   1     -22.384   0.966  27.970  0.00  0.00    +0.000 A 
ATOM     11  C   UNL A   1     -22.541  -1.122  29.171  0.00  0.00    +0.000 A 
ATOM     12  C   UNL A   1     -21.810   0.034  28.789  0.00  0.00    +0.000 A 
ENDBRANCH   3   7
TORSDOF 1
ENDMDL
ENDMDL
