REMARK  Name = No_1117-gen_results/8p0m/2024-11-26-14-13-15/
REMARK  2 active torsions:
REMARK  status: ('A' for Active; 'I' for Inactive)
REMARK    1  A    between atoms: C_2  and  C_4
REMARK    2  A    between atoms: C_4  and  C_5
REMARK                            x       y       z     vdW  Elec       q    Type
REMARK                         _______ _______ _______ _____ _____    ______ ____
ROOT
ATOM      1  C   UNL A   1     -27.680   0.927  28.300  0.00  0.00    +0.321 C 
ATOM      2  F   UNL A   1     -28.905   1.183  28.766  0.00  0.00    -0.222 F 
ENDROOT
BRANCH   1   3
ATOM      3  C   UNL A   1     -26.701   1.903  28.593  0.00  0.00    +0.433 C 
ATOM      4  F   UNL A   1     -25.752   1.564  28.535  0.00  0.00    -0.167 F 
ATOM      5  F   UNL A   1     -26.996   2.346  29.876  0.00  0.00    -0.167 F 
ATOM      6  F   UNL A   1     -27.129   3.070  27.942  0.00  0.00    -0.167 F 
ENDBRANCH   1   3
BRANCH   1   8
ATOM      7  F   UNL A   1     -28.073  -1.254  28.532  0.00  0.00    -0.195 F 
ATOM      8  C   UNL A   1     -27.359  -0.379  28.722  0.00  0.00    +0.359 C 
ATOM      9  F   UNL A   1     -26.318  -0.661  29.116  0.00  0.00    -0.195 F 
ENDBRANCH   1   8
TORSDOF 2
