MODEL 1117
MODEL 1
REMARK VINA RESULT:    -5.015      0.000      0.000
REMARK INTER + INTRA:          -5.813
REMARK INTER:                  -5.602
REMARK INTRA:                  -0.211
REMARK UNBOUND:                -0.211
REMARK  Name = No_1117-gen_results/8p0m/2024-11-26-14-13-15/
REMARK  2 active torsions:
REMARK  status: ('A' for Active; 'I' for Inactive)
REMARK    1  A    between atoms: C_2  and  C_4
REMARK    2  A    between atoms: C_4  and  C_5
REMARK                            x       y       z     vdW  Elec       q    Type
REMARK                         _______ _______ _______ _____ _____    ______ ____
ROOT
ATOM      1  C   UNL A   1      -9.186  -9.412  18.982  0.00  0.00    +0.321 C 
ATOM      2  F   UNL A   1     -10.301  -9.187  19.681  0.00  0.00    -0.222 F 
ENDROOT
BRANCH   1   3
ATOM      3  C   UNL A   1      -8.067  -9.829  19.738  0.00  0.00    +0.433 C 
ATOM      4  F   UNL A   1      -7.747 -10.762  19.520  0.00  0.00    -0.167 F 
ATOM      5  F   UNL A   1      -8.465  -9.735  21.066  0.00  0.00    -0.167 F 
ATOM      6  F   UNL A   1      -7.205  -8.723  19.774  0.00  0.00    -0.167 F 
ENDBRANCH   1   3
BRANCH   1   8
ATOM      7  F   UNL A   1     -10.509 -10.894  17.972  0.00  0.00    -0.195 F 
ATOM      8  C   UNL A   1      -9.544 -10.278  17.929  0.00  0.00    +0.359 C 
ATOM      9  F   UNL A   1      -8.992 -10.285  16.922  0.00  0.00    -0.195 F 
ENDBRANCH   1   8
TORSDOF 2
ENDMDL
ENDMDL
