MODEL 1118
MODEL 1
REMARK VINA RESULT:    -6.297      0.000      0.000
REMARK INTER + INTRA:          -7.957
REMARK INTER:                  -7.402
REMARK INTRA:                  -0.556
REMARK UNBOUND:                -0.556
REMARK  Name = No_1118-gen_results/8p0m/2024-11-26-14-13-15/
REMARK  3 active torsions:
REMARK  status: ('A' for Active; 'I' for Inactive)
REMARK    1  A    between atoms: C_3  and  C_4
REMARK    2  A    between atoms: C_10  and  C_13
REMARK    3  A    between atoms: N_15  and  C_16
REMARK                            x       y       z     vdW  Elec       q    Type
REMARK                         _______ _______ _______ _____ _____    ______ ____
ROOT
ATOM      1  C   UNL A   1     -10.521   0.591  36.165  0.00  0.00    +0.005 A 
ATOM      2  C   UNL A   1      -9.475  -0.014  36.164  0.00  0.00    +0.000 A 
ATOM      3  C   UNL A   1      -8.439   0.238  35.265  0.00  0.00    +0.000 A 
ATOM      4  C   UNL A   1     -10.849   1.509  35.066  0.00  0.00    +0.055 A 
ATOM      5  C   UNL A   1      -9.875   1.920  34.180  0.00  0.00    +0.005 A 
ATOM      6  C   UNL A   1      -8.632   1.255  34.220  0.00  0.00    +0.000 A 
ENDROOT
BRANCH   3   7
ATOM      7  C   UNL A   1      -7.139  -0.457  35.183  0.00  0.00    +0.000 A 
ATOM      8  C   UNL A   1      -6.000   0.311  35.573  0.00  0.00    +0.000 A 
ATOM      9  C   UNL A   1      -4.716  -0.228  35.505  0.00  0.00    +0.000 A 
ATOM     10  C   UNL A   1      -4.588  -1.499  34.882  0.00  0.00    +0.000 A 
ATOM     11  C   UNL A   1      -5.658  -2.239  34.482  0.00  0.00    +0.000 A 
ATOM     12  C   UNL A   1      -6.964  -1.681  34.605  0.00  0.00    +0.000 A 
ENDBRANCH   3   7
BRANCH   4  13
ATOM     13  C   UNL A   1     -12.144   2.218  35.010  0.00  0.00    +0.269 C 
ATOM     14  O   UNL A   1     -12.507   2.781  33.993  0.00  0.00    -0.268 OA
ATOM     15  N   UNL A   1     -12.946   2.177  36.078  0.00  0.00    -0.174 NA
BRANCH  15  16
ATOM     16  C   UNL A   1     -14.255   2.839  36.073  0.00  0.00    +0.084 C 
ATOM     17  C   UNL A   1     -14.745   3.397  36.950  0.00  0.00    -0.008 C 
ATOM     18  C   UNL A   1     -16.021   4.074  36.912  0.00  0.00    +0.032 C 
ENDBRANCH  15  16
ENDBRANCH   4  13
TORSDOF 3
ENDMDL
ENDMDL
