REMARK  Name = No_1118-gen_results/8p0m/2024-11-26-14-13-15/
REMARK  3 active torsions:
REMARK  status: ('A' for Active; 'I' for Inactive)
REMARK    1  A    between atoms: C_3  and  C_4
REMARK    2  A    between atoms: C_10  and  C_13
REMARK    3  A    between atoms: N_15  and  C_16
REMARK                            x       y       z     vdW  Elec       q    Type
REMARK                         _______ _______ _______ _____ _____    ______ ____
ROOT
ATOM      1  C   UNL A   1     -28.016  -0.814  28.878  0.00  0.00    +0.005 A 
ATOM      2  C   UNL A   1     -27.064  -0.119  28.608  0.00  0.00    +0.000 A 
ATOM      3  C   UNL A   1     -25.765  -0.390  29.036  0.00  0.00    +0.000 A 
ATOM      4  C   UNL A   1     -27.889  -1.896  29.863  0.00  0.00    +0.055 A 
ATOM      5  C   UNL A   1     -26.645  -2.328  30.276  0.00  0.00    +0.005 A 
ATOM      6  C   UNL A   1     -25.528  -1.550  29.908  0.00  0.00    +0.000 A 
ENDROOT
BRANCH   3   7
ATOM      7  C   UNL A   1     -24.552   0.406  28.765  0.00  0.00    +0.000 A 
ATOM      8  C   UNL A   1     -24.696   1.448  27.799  0.00  0.00    +0.000 A 
ATOM      9  C   UNL A   1     -23.610   2.243  27.435  0.00  0.00    +0.000 A 
ATOM     10  C   UNL A   1     -22.339   1.861  27.944  0.00  0.00    +0.000 A 
ATOM     11  C   UNL A   1     -22.175   0.857  28.849  0.00  0.00    +0.000 A 
ATOM     12  C   UNL A   1     -23.311   0.089  29.237  0.00  0.00    +0.000 A 
ENDBRANCH   3   7
BRANCH   4  13
ATOM     13  C   UNL A   1     -29.047  -2.724  30.257  0.00  0.00    +0.269 C 
ATOM     14  O   UNL A   1     -28.971  -3.939  30.279  0.00  0.00    -0.268 OA
ATOM     15  N   UNL A   1     -30.167  -2.114  30.655  0.00  0.00    -0.174 NA
BRANCH  15  16
ATOM     16  C   UNL A   1     -31.341  -2.882  31.083  0.00  0.00    +0.084 C 
ATOM     17  C   UNL A   1     -31.342  -3.824  31.742  0.00  0.00    -0.008 C 
ATOM     18  C   UNL A   1     -32.515  -4.545  32.182  0.00  0.00    +0.032 C 
ENDBRANCH  15  16
ENDBRANCH   4  13
TORSDOF 3
