REMARK  Name = No_1119-gen_results/8p0m/2024-11-26-14-13-15/
REMARK  2 active torsions:
REMARK  status: ('A' for Active; 'I' for Inactive)
REMARK    1  A    between atoms: C_2  and  C_7
REMARK    2  A    between atoms: C_7  and  N_9
REMARK                            x       y       z     vdW  Elec       q    Type
REMARK                         _______ _______ _______ _____ _____    ______ ____
ROOT
ATOM      1  C   UNL A   1     -30.074  -0.836  29.861  0.00  0.00    +0.237 C 
ATOM      2  O   UNL A   1     -30.689  -1.655  30.223  0.00  0.00    -0.200 OA
ENDROOT
BRANCH   1   3
ATOM      3  N   UNL A   1     -30.580   0.024  28.833  0.00  0.00    -0.231 NA
ATOM      4  C   UNL A   1     -31.944  -0.053  28.526  0.00  0.00    +0.076 C 
ATOM      5  C   UNL A   1     -32.188   0.136  27.238  0.00  0.00    +0.018 C 
ATOM      6  C   UNL A   1     -31.263   0.752  26.389  0.00  0.00    +0.004 C 
ATOM      7  C   UNL A   1     -29.932   0.875  26.739  0.00  0.00    +0.036 C 
ATOM      8  C   UNL A   1     -29.633   0.453  27.934  0.00  0.00    +0.153 C 
ATOM      9  N   UNL A   1     -28.530   1.005  28.302  0.00  0.00    -0.115 NA
ENDBRANCH   1   3
BRANCH   1  11
ATOM     10  C   UNL A   1     -28.016  -0.814  28.878  0.00  0.00    -0.001 A 
ATOM     11  C   UNL A   1     -28.469  -0.785  29.829  0.00  0.00    +0.023 A 
ATOM     12  C   UNL A   1     -26.504  -0.778  28.877  0.00  0.00    -0.000 A 
ATOM     13  C   UNL A   1     -25.810  -0.853  30.103  0.00  0.00    -0.000 A 
ATOM     14  C   UNL A   1     -27.991  -0.892  31.226  0.00  0.00    -0.001 A 
ATOM     15  C   UNL A   1     -26.604  -0.868  31.265  0.00  0.00    -0.000 A 
ENDBRANCH   1  11
TORSDOF 2
