MODEL 1119
MODEL 1
REMARK VINA RESULT:    -6.600      0.000      0.000
REMARK INTER + INTRA:          -7.380
REMARK INTER:                  -7.372
REMARK INTRA:                  -0.008
REMARK UNBOUND:                -0.008
REMARK  Name = No_1119-gen_results/8p0m/2024-11-26-14-13-15/
REMARK  2 active torsions:
REMARK  status: ('A' for Active; 'I' for Inactive)
REMARK    1  A    between atoms: C_2  and  C_7
REMARK    2  A    between atoms: C_7  and  N_9
REMARK                            x       y       z     vdW  Elec       q    Type
REMARK                         _______ _______ _______ _____ _____    ______ ____
ROOT
ATOM      1  C   UNL A   1     -24.397  -1.191  29.766  0.00  0.00    +0.237 C 
ATOM      2  O   UNL A   1     -25.056  -0.566  30.362  0.00  0.00    -0.200 OA
ENDROOT
BRANCH   1   3
ATOM      3  N   UNL A   1     -23.638  -0.602  28.704  0.00  0.00    -0.231 NA
ATOM      4  C   UNL A   1     -22.289  -0.312  28.944  0.00  0.00    +0.076 C 
ATOM      5  C   UNL A   1     -21.886   0.788  28.327  0.00  0.00    +0.018 C 
ATOM      6  C   UNL A   1     -22.588   1.335  27.248  0.00  0.00    +0.004 C 
ATOM      7  C   UNL A   1     -23.901   0.987  26.990  0.00  0.00    +0.036 C 
ATOM      8  C   UNL A   1     -24.392   0.066  27.769  0.00  0.00    +0.153 C 
ATOM      9  N   UNL A   1     -25.402  -0.473  27.181  0.00  0.00    -0.115 NA
ENDBRANCH   1   3
BRANCH   1  11
ATOM     10  C   UNL A   1     -23.823  -3.218  28.892  0.00  0.00    -0.001 A 
ATOM     11  C   UNL A   1     -24.583  -2.756  29.457  0.00  0.00    +0.023 A 
ATOM     12  C   UNL A   1     -24.029  -4.688  28.604  0.00  0.00    -0.000 A 
ATOM     13  C   UNL A   1     -25.248  -5.299  28.966  0.00  0.00    -0.000 A 
ATOM     14  C   UNL A   1     -25.936  -3.144  29.917  0.00  0.00    -0.001 A 
ATOM     15  C   UNL A   1     -26.164  -4.489  29.663  0.00  0.00    -0.000 A 
ENDBRANCH   1  11
TORSDOF 2
ENDMDL
ENDMDL
