MODEL 111
MODEL 1
REMARK VINA RESULT:    -7.531      0.000      0.000
REMARK INTER + INTRA:         -11.510
REMARK INTER:                  -9.732
REMARK INTRA:                  -1.779
REMARK UNBOUND:                -1.779
REMARK  Name = No_111-gen_results/8p0m/2024-11-26-14-13-15/
REMARK  5 active torsions:
REMARK  status: ('A' for Active; 'I' for Inactive)
REMARK    1  A    between atoms: C_2  and  N_8
REMARK    2  A    between atoms: C_10  and  C_13
REMARK    3  A    between atoms: N_15  and  C_16
REMARK    4  A    between atoms: C_17  and  C_23
REMARK    5  A    between atoms: C_23  and  C_24
REMARK                            x       y       z     vdW  Elec       q    Type
REMARK                         _______ _______ _______ _____ _____    ______ ____
ROOT
ATOM      1  C   UNL A   1     -23.064   1.687  27.621  0.00  0.00    +0.254 C 
ATOM      2  O   UNL A   1     -22.164   2.349  27.800  0.00  0.00    -0.270 OA
ATOM      3  N   UNL A   1     -23.877   2.031  26.501  0.00  0.00    -0.254 N 
ATOM      4  C   UNL A   1     -23.538   3.171  25.663  0.00  0.00    +0.120 C 
ENDROOT
BRANCH   3   5
ATOM      5  C   UNL A   1     -25.065   1.373  26.090  0.00  0.00    +0.051 A 
ATOM      6  C   UNL A   1     -26.132   1.771  26.550  0.00  0.00    -0.004 A 
ATOM      7  C   UNL A   1     -27.405   1.195  26.054  0.00  0.00    -0.003 A 
ATOM      8  C   UNL A   1     -27.314   0.113  25.158  0.00  0.00    -0.000 A 
ATOM      9  C   UNL A   1     -24.895   0.348  25.130  0.00  0.00    +0.015 A 
ATOM     10  C   UNL A   1     -26.074  -0.281  24.675  0.00  0.00    +0.001 A 
BRANCH   6  11
ATOM     11  C   UNL A   1     -26.394   2.910  27.495  0.00  0.00    +0.054 C 
BRANCH  11  12
ATOM     12  C   UNL A   1     -26.519   2.789  28.783  0.00  0.00    -0.018 A 
ATOM     13  C   UNL A   1     -25.904   3.769  29.674  0.00  0.00    -0.004 A 
ATOM     14  C   UNL A   1     -26.049   3.690  31.072  0.00  0.00    -0.000 A 
ATOM     15  C   UNL A   1     -26.795   2.618  31.590  0.00  0.00    -0.000 A 
ATOM     16  C   UNL A   1     -27.422   1.682  30.785  0.00  0.00    -0.000 A 
ATOM     17  C   UNL A   1     -27.300   1.812  29.439  0.00  0.00    -0.004 A 
ENDBRANCH  11  12
ENDBRANCH   6  11
ENDBRANCH   3   5
BRANCH   1  20
ATOM     18  N   UNL A   1     -24.243  -1.332  29.043  0.00  0.00    -0.303 N 
ATOM     19  C   UNL A   1     -24.043  -0.677  28.286  0.00  0.00    +0.085 A 
ATOM     20  C   UNL A   1     -23.565   0.722  28.371  0.00  0.00    +0.073 A 
ATOM     21  C   UNL A   1     -24.284  -0.287  30.256  0.00  0.00    +0.080 A 
ATOM     22  C   UNL A   1     -23.771   0.694  30.083  0.00  0.00    +0.025 A 
BRANCH  18  24
ATOM     23  C   UNL A   1     -25.905  -2.861  29.598  0.00  0.00    +0.029 A 
ATOM     24  C   UNL A   1     -24.950  -2.659  29.201  0.00  0.00    +0.065 A 
ATOM     25  C   UNL A   1     -26.306  -4.211  29.697  0.00  0.00    +0.059 A 
ATOM     26  C   UNL A   1     -25.494  -5.247  29.280  0.00  0.00    +0.011 A 
ATOM     27  C   UNL A   1     -23.901  -3.566  28.692  0.00  0.00    +0.018 A 
ATOM     28  C   UNL A   1     -24.246  -4.870  28.768  0.00  0.00    +0.002 A 
ATOM     29 CL   UNL A   1     -27.827  -4.673  30.374  0.00  0.00    -0.082 Cl
ENDBRANCH  18  24
ENDBRANCH   1  20
TORSDOF 5
ENDMDL
ENDMDL
