MODEL 1120
MODEL 1
REMARK VINA RESULT:    -4.559      0.000      0.000
REMARK INTER + INTRA:          -4.559
REMARK INTER:                  -4.559
REMARK INTRA:                   0.000
REMARK UNBOUND:                 0.000
REMARK  Name = No_1120-gen_results/8p0m/2024-11-26-14-13-15/
REMARK  0 active torsions:
REMARK  status: ('A' for Active; 'I' for Inactive)
REMARK                            x       y       z     vdW  Elec       q    Type
REMARK                         _______ _______ _______ _____ _____    ______ ____
ROOT
ATOM      1  C   UNL A   1      -9.388  -9.147  20.294  0.00  0.00    +0.030 A 
ATOM      2  C   UNL A   1     -10.261  -9.135  19.458  0.00  0.00    +0.002 A 
ATOM      3  C   UNL A   1     -10.134  -9.858  18.277  0.00  0.00    +0.000 A 
ATOM      4  C   UNL A   1      -8.937 -10.607  17.992  0.00  0.00    +0.002 A 
ATOM      5  C   UNL A   1      -7.969 -10.547  19.002  0.00  0.00    +0.030 A 
ATOM      6  C   UNL A   1      -8.131  -9.835  20.094  0.00  0.00    +0.140 A 
ATOM      7  F   UNL A   1      -7.173  -9.826  21.001  0.00  0.00    -0.204 F 
ENDROOT
TORSDOF 0
ENDMDL
ENDMDL
