REMARK  Name = No_1121-gen_results/8p0m/2024-11-26-14-13-15/
REMARK  1 active torsions:
REMARK  status: ('A' for Active; 'I' for Inactive)
REMARK    1  A    between atoms: C_7  and  C_11
REMARK                            x       y       z     vdW  Elec       q    Type
REMARK                         _______ _______ _______ _____ _____    ______ ____
ROOT
ATOM      1  C   UNL A   1     -28.016  -0.814  28.878  0.00  0.00    +0.000 A 
ATOM      2  C   UNL A   1     -27.064  -0.119  28.608  0.00  0.00    +0.000 A 
ATOM      3  C   UNL A   1     -25.765  -0.390  29.036  0.00  0.00    +0.004 A 
ATOM      4  C   UNL A   1     -25.530  -1.530  29.901  0.00  0.00    +0.000 A 
ATOM      5  C   UNL A   1     -26.689  -2.289  30.181  0.00  0.00    +0.000 A 
ATOM      6  C   UNL A   1     -27.873  -1.951  29.737  0.00  0.00    +0.000 A 
ATOM      7  C   UNL A   1     -24.708   0.567  28.701  0.00  0.00    +0.054 A 
ATOM      8  C   UNL A   1     -23.462   0.294  29.174  0.00  0.00    +0.004 A 
ATOM      9  C   UNL A   1     -23.235  -0.985  29.847  0.00  0.00    +0.000 A 
ATOM     10  C   UNL A   1     -24.221  -1.816  30.267  0.00  0.00    +0.000 A 
ENDROOT
BRANCH   7  11
ATOM     11  C   UNL A   1     -24.842   1.730  27.899  0.00  0.00    +0.249 C 
ATOM     12  O   UNL A   1     -25.103   2.699  28.391  0.00  0.00    -0.270 OA
ATOM     13  N   UNL A   1     -24.343   1.651  26.612  0.00  0.00    -0.273 N 
ATOM     14  C   UNL A   1     -23.905   0.550  25.946  0.00  0.00    +0.115 C 
ATOM     15  C   UNL A   1     -24.293   2.897  25.837  0.00  0.00    +0.115 C 
ENDBRANCH   7  11
TORSDOF 1
