MODEL 1121
MODEL 1
REMARK VINA RESULT:    -6.593      0.000      0.000
REMARK INTER + INTRA:          -7.083
REMARK INTER:                  -6.978
REMARK INTRA:                  -0.105
REMARK UNBOUND:                -0.105
REMARK  Name = No_1121-gen_results/8p0m/2024-11-26-14-13-15/
REMARK  1 active torsions:
REMARK  status: ('A' for Active; 'I' for Inactive)
REMARK    1  A    between atoms: C_7  and  C_11
REMARK                            x       y       z     vdW  Elec       q    Type
REMARK                         _______ _______ _______ _____ _____    ______ ____
ROOT
ATOM      1  C   UNL A   1     -23.980  -4.700  28.470  0.00  0.00    +0.000 A 
ATOM      2  C   UNL A   1     -24.053  -3.494  28.412  0.00  0.00    +0.000 A 
ATOM      3  C   UNL A   1     -25.077  -2.754  29.002  0.00  0.00    +0.004 A 
ATOM      4  C   UNL A   1     -26.154  -3.452  29.677  0.00  0.00    +0.000 A 
ATOM      5  C   UNL A   1     -26.006  -4.858  29.697  0.00  0.00    +0.000 A 
ATOM      6  C   UNL A   1     -25.009  -5.466  29.107  0.00  0.00    +0.000 A 
ATOM      7  C   UNL A   1     -25.092  -1.303  28.801  0.00  0.00    +0.054 A 
ATOM      8  C   UNL A   1     -26.130  -0.619  29.352  0.00  0.00    +0.004 A 
ATOM      9  C   UNL A   1     -27.064  -1.343  30.215  0.00  0.00    +0.000 A 
ATOM     10  C   UNL A   1     -27.132  -2.694  30.309  0.00  0.00    +0.000 A 
ENDROOT
BRANCH   7  11
ATOM     11  C   UNL A   1     -24.111  -0.532  28.124  0.00  0.00    +0.249 C 
ATOM     12  O   UNL A   1     -24.360  -0.100  27.124  0.00  0.00    -0.270 OA
ATOM     13  N   UNL A   1     -23.031  -0.112  28.877  0.00  0.00    -0.273 N 
ATOM     14  C   UNL A   1     -22.684  -0.492  30.135  0.00  0.00    +0.115 C 
ATOM     15  C   UNL A   1     -22.112   0.846  28.250  0.00  0.00    +0.115 C 
ENDBRANCH   7  11
TORSDOF 1
ENDMDL
ENDMDL
