MODEL 1122
MODEL 1
REMARK VINA RESULT:    -7.230      0.000      0.000
REMARK INTER + INTRA:          -9.268
REMARK INTER:                  -9.344
REMARK INTRA:                   0.076
REMARK UNBOUND:                 0.076
REMARK  Name = No_1122-gen_results/8p0m/2024-11-26-14-13-15/
REMARK  5 active torsions:
REMARK  status: ('A' for Active; 'I' for Inactive)
REMARK    1  A    between atoms: C_3  and  C_4
REMARK    2  A    between atoms: C_4  and  C_8
REMARK    3  A    between atoms: C_12  and  O_18
REMARK    4  A    between atoms: C_13  and  C_15
REMARK    5  A    between atoms: C_15  and  C_16
REMARK                            x       y       z     vdW  Elec       q    Type
REMARK                         _______ _______ _______ _____ _____    ______ ____
ROOT
ATOM      1  C   UNL A   1     -24.333  -0.180  28.456  0.00  0.00    -0.019 A 
ATOM      2  C   UNL A   1     -25.273  -0.202  27.721  0.00  0.00    -0.004 A 
ATOM      3  C   UNL A   1     -26.343   0.635  27.310  0.00  0.00    +0.003 A 
ATOM      4  C   UNL A   1     -26.284   1.977  27.750  0.00  0.00    +0.041 A 
ATOM      5  C   UNL A   1     -24.950   2.328  28.287  0.00  0.00    +0.185 A 
ATOM      6  C   UNL A   1     -23.775   1.264  28.574  0.00  0.00    +0.018 A 
ENDROOT
BRANCH   1   7
ATOM      7  C   UNL A   1     -24.177  -0.967  29.538  0.00  0.00    +0.044 C 
ATOM      8  C   UNL A   1     -23.039  -0.880  30.372  0.00  0.00    +0.009 C 
BRANCH   7  11
ATOM      9  C   UNL A   1     -23.818  -3.387  28.763  0.00  0.00    -0.004 A 
ATOM     10  C   UNL A   1     -24.203  -4.367  28.750  0.00  0.00    -0.000 A 
ATOM     11  C   UNL A   1     -24.614  -2.374  29.342  0.00  0.00    -0.018 A 
ATOM     12  C   UNL A   1     -25.483  -4.916  29.231  0.00  0.00    -0.000 A 
ATOM     13  C   UNL A   1     -26.325  -3.970  29.815  0.00  0.00    -0.000 A 
ATOM     14  C   UNL A   1     -25.933  -2.601  29.985  0.00  0.00    -0.004 A 
ENDBRANCH   7  11
ENDBRANCH   1   7
BRANCH   6  15
ATOM     15  C   UNL A   1     -22.912   1.518  27.141  0.00  0.00    +0.092 C 
ATOM     16  C   UNL A   1     -21.548   1.498  27.448  0.00  0.00    +0.011 C 
BRANCH  15  17
ATOM     17  C   UNL A   1     -23.560   1.926  26.008  0.00  0.00    +0.322 C 
ATOM     18  F   UNL A   1     -23.823   0.833  25.219  0.00  0.00    -0.198 F 
ATOM     19  F   UNL A   1     -22.654   2.731  25.320  0.00  0.00    -0.198 F 
ENDBRANCH  15  17
ENDBRANCH   6  15
BRANCH   5  20
ATOM     20  O   UNL A   1     -24.423   3.490  27.778  0.00  0.00    -0.292 OA
ATOM     21  F   UNL A   1     -25.087   4.453  27.448  0.00  0.00    +0.014 F 
ENDBRANCH   5  20
TORSDOF 5
ENDMDL
ENDMDL
