REMARK  Name = No_1122-gen_results/8p0m/2024-11-26-14-13-15/
REMARK  5 active torsions:
REMARK  status: ('A' for Active; 'I' for Inactive)
REMARK    1  A    between atoms: C_3  and  C_4
REMARK    2  A    between atoms: C_4  and  C_8
REMARK    3  A    between atoms: C_12  and  O_18
REMARK    4  A    between atoms: C_13  and  C_15
REMARK    5  A    between atoms: C_15  and  C_16
REMARK                            x       y       z     vdW  Elec       q    Type
REMARK                         _______ _______ _______ _____ _____    ______ ____
ROOT
ATOM      1  C   UNL A   1     -25.003   0.341  27.478  0.00  0.00    -0.019 A 
ATOM      2  C   UNL A   1     -24.223   0.870  26.745  0.00  0.00    -0.004 A 
ATOM      3  C   UNL A   1     -23.311   1.957  26.742  0.00  0.00    +0.003 A 
ATOM      4  C   UNL A   1     -23.088   2.583  27.989  0.00  0.00    +0.041 A 
ATOM      5  C   UNL A   1     -23.606   1.777  29.117  0.00  0.00    +0.185 A 
ATOM      6  C   UNL A   1     -24.531   0.468  28.951  0.00  0.00    +0.018 A 
ENDROOT
BRANCH   1   7
ATOM      7  C   UNL A   1     -26.335   0.290  27.284  0.00  0.00    +0.044 C 
ATOM      8  C   UNL A   1     -26.977   1.050  26.280  0.00  0.00    +0.009 C 
BRANCH   7  11
ATOM      9  C   UNL A   1     -28.016  -0.814  28.878  0.00  0.00    -0.004 A 
ATOM     10  C   UNL A   1     -28.469  -0.785  29.829  0.00  0.00    -0.000 A 
ATOM     11  C   UNL A   1     -27.136   0.236  28.535  0.00  0.00    -0.018 A 
ATOM     12  C   UNL A   1     -28.369   0.196  30.924  0.00  0.00    -0.000 A 
ATOM     13  C   UNL A   1     -27.516   1.266  30.654  0.00  0.00    -0.000 A 
ATOM     14  C   UNL A   1     -26.759   1.351  29.440  0.00  0.00    -0.004 A 
ENDBRANCH   7  11
ENDBRANCH   1   7
BRANCH   6  15
ATOM     15  C   UNL A   1     -23.297  -0.678  29.115  0.00  0.00    +0.092 C 
ATOM     16  C   UNL A   1     -23.866  -1.949  28.980  0.00  0.00    +0.011 C 
BRANCH  15  17
ATOM     17  C   UNL A   1     -22.062  -0.303  29.566  0.00  0.00    +0.322 C 
ATOM     18  F   UNL A   1     -21.139  -0.490  28.566  0.00  0.00    -0.198 F 
ATOM     19  F   UNL A   1     -21.748  -1.189  30.596  0.00  0.00    -0.198 F 
ENDBRANCH  15  17
ENDBRANCH   6  15
BRANCH   5  20
ATOM     20  O   UNL A   1     -22.710   1.597  30.142  0.00  0.00    -0.292 OA
ATOM     21  F   UNL A   1     -21.818   0.771  30.132  0.00  0.00    +0.014 F 
ENDBRANCH   5  20
TORSDOF 5
