MODEL 1123
MODEL 1
REMARK VINA RESULT:    -5.047      0.000      0.000
REMARK INTER + INTRA:          -5.369
REMARK INTER:                  -5.342
REMARK INTRA:                  -0.027
REMARK UNBOUND:                -0.027
REMARK  Name = No_1123-gen_results/8p0m/2024-11-26-14-13-15/
REMARK  1 active torsions:
REMARK  status: ('A' for Active; 'I' for Inactive)
REMARK    1  A    between atoms: C_2  and  C_5
REMARK                            x       y       z     vdW  Elec       q    Type
REMARK                         _______ _______ _______ _____ _____    ______ ____
ROOT
ATOM      1  C   UNL A   1      -8.326 -10.484  18.452  0.00  0.00    +0.003 A 
ATOM      2  C   UNL A   1      -9.303 -10.140  18.259  0.00  0.00    +0.042 A 
ATOM      3  C   UNL A   1      -7.828 -10.120  19.778  0.00  0.00    +0.000 A 
ATOM      4  C   UNL A   1      -8.590  -9.413  20.675  0.00  0.00    +0.000 A 
ATOM      5  C   UNL A   1      -9.890  -9.051  20.276  0.00  0.00    +0.000 A 
ATOM      6  C   UNL A   1     -10.349  -9.458  19.022  0.00  0.00    +0.003 A 
ENDROOT
BRANCH   2   7
ATOM      7  C   UNL A   1      -9.927 -10.519  16.882  0.00  0.00    +0.234 C 
ATOM      8  O   UNL A   1     -11.237 -10.527  16.850  0.00  0.00    -0.283 OA
ENDBRANCH   2   7
TORSDOF 1
ENDMDL
ENDMDL
