MODEL 1124
MODEL 1
REMARK VINA RESULT:    -5.095      0.000      0.000
REMARK INTER + INTRA:          -5.855
REMARK INTER:                  -5.691
REMARK INTRA:                  -0.164
REMARK UNBOUND:                -0.164
REMARK  Name = No_1124-gen_results/8p0m/2024-11-26-14-13-15/
REMARK  2 active torsions:
REMARK  status: ('A' for Active; 'I' for Inactive)
REMARK    1  A    between atoms: C_1  and  C_8
REMARK    2  A    between atoms: C_5  and  C_12
REMARK                            x       y       z     vdW  Elec       q    Type
REMARK                         _______ _______ _______ _____ _____    ______ ____
ROOT
ATOM      1  C   UNL A   1     -22.634  -0.401  30.268  0.00  0.00    +0.051 C 
ATOM      2  C   UNL A   1     -23.539  -1.192  30.139  0.00  0.00    -0.040 C 
ATOM      3  C   UNL A   1     -24.739  -1.150  30.829  0.00  0.00    +0.023 C 
ATOM      4  C   UNL A   1     -25.801  -2.124  30.754  0.00  0.00    +0.010 C 
ATOM      5  C   UNL A   1     -25.638  -3.239  29.898  0.00  0.00    +0.044 C 
ATOM      6  C   UNL A   1     -24.431  -3.340  29.158  0.00  0.00    +0.010 C 
ATOM      7  C   UNL A   1     -23.475  -2.385  29.319  0.00  0.00    +0.023 C 
ENDROOT
BRANCH   1   8
ATOM      8  C   UNL A   1     -22.321   0.409  29.029  0.00  0.00    +0.264 C 
ATOM      9  N   UNL A   1     -23.008   1.039  28.501  0.00  0.00    -0.200 NA
ATOM     10  O   UNL A   1     -21.116   0.034  28.485  0.00  0.00    -0.268 OA
ATOM     11  C   UNL A   1     -22.689   1.815  27.239  0.00  0.00    +0.139 C 
ENDBRANCH   1   8
BRANCH   5  12
ATOM     12  C   UNL A   1     -26.668  -4.249  29.715  0.00  0.00    +0.095 C 
ATOM     13  N   UNL A   1     -27.926  -4.131  29.890  0.00  0.00    -0.151 NA
ENDBRANCH   5  12
TORSDOF 2
ENDMDL
ENDMDL
