MODEL 1125
MODEL 1
REMARK VINA RESULT:    -5.006      0.000      0.000
REMARK INTER + INTRA:          -4.955
REMARK INTER:                  -5.298
REMARK INTRA:                   0.343
REMARK UNBOUND:                 0.343
REMARK  Name = No_1125-gen_results/8p0m/2024-11-26-14-13-15/
REMARK  1 active torsions:
REMARK  status: ('A' for Active; 'I' for Inactive)
REMARK    1  A    between atoms: C_2  and  C_5
REMARK                            x       y       z     vdW  Elec       q    Type
REMARK                         _______ _______ _______ _____ _____    ______ ____
ROOT
ATOM      1  O   UNL A   1     -23.265  -0.037  31.202  0.00  0.00    -0.265 OA
ATOM      2  C   UNL A   1     -23.324  -0.665  30.237  0.00  0.00    +0.304 C 
ATOM      3  N   UNL A   1     -24.153  -1.624  30.111  0.00  0.00    -0.272 N 
ATOM      4  C   UNL A   1     -25.176  -1.868  30.755  0.00  0.00    +0.094 C 
ATOM      5  C   UNL A   1     -26.109  -2.916  30.124  0.00  0.00    +0.022 C 
ATOM      6  C   UNL A   1     -25.476  -3.734  29.262  0.00  0.00    +0.004 C 
ATOM      7  C   UNL A   1     -24.294  -3.606  28.662  0.00  0.00    +0.022 C 
ATOM      8  C   UNL A   1     -23.683  -2.710  29.090  0.00  0.00    +0.094 C 
ENDROOT
BRANCH   2   9
ATOM      9  C   UNL A   1     -22.302  -0.566  29.056  0.00  0.00    +0.319 C 
ATOM     10  O   UNL A   1     -21.309  -1.057  29.022  0.00  0.00    -0.263 OA
ATOM     11  N   UNL A   1     -22.639   0.444  28.141  0.00  0.00    -0.196 NA
ATOM     12  C   UNL A   1     -23.827   1.235  28.112  0.00  0.00    +0.139 C 
ENDBRANCH   2   9
TORSDOF 1
ENDMDL
ENDMDL
