REMARK  Name = No_1125-gen_results/8p0m/2024-11-26-14-13-15/
REMARK  1 active torsions:
REMARK  status: ('A' for Active; 'I' for Inactive)
REMARK    1  A    between atoms: C_2  and  C_5
REMARK                            x       y       z     vdW  Elec       q    Type
REMARK                         _______ _______ _______ _____ _____    ______ ____
ROOT
ATOM      1  O   UNL A   1     -28.123  -1.335  28.487  0.00  0.00    -0.265 OA
ATOM      2  C   UNL A   1     -27.481  -0.404  28.709  0.00  0.00    +0.304 C 
ATOM      3  N   UNL A   1     -26.460  -0.110  28.005  0.00  0.00    -0.272 N 
ATOM      4  C   UNL A   1     -26.148  -0.495  26.876  0.00  0.00    +0.094 C 
ATOM      5  C   UNL A   1     -25.024   0.312  26.200  0.00  0.00    +0.022 C 
ATOM      6  C   UNL A   1     -24.246   0.970  27.080  0.00  0.00    +0.004 C 
ATOM      7  C   UNL A   1     -24.456   1.270  28.360  0.00  0.00    +0.022 C 
ATOM      8  C   UNL A   1     -25.401   0.734  28.784  0.00  0.00    +0.094 C 
ENDROOT
BRANCH   2   9
ATOM      9  C   UNL A   1     -27.642   0.498  29.978  0.00  0.00    +0.319 C 
ATOM     10  O   UNL A   1     -27.245   1.526  30.090  0.00  0.00    -0.263 OA
ATOM     11  N   UNL A   1     -28.102  -0.223  31.091  0.00  0.00    -0.196 NA
ATOM     12  C   UNL A   1     -28.548  -1.579  31.130  0.00  0.00    +0.139 C 
ENDBRANCH   2   9
TORSDOF 1
