REMARK  Name = No_1126-gen_results/8p0m/2024-11-26-14-13-15/
REMARK  7 active torsions:
REMARK  status: ('A' for Active; 'I' for Inactive)
REMARK    1  A    between atoms: C_3  and  C_7
REMARK    2  A    between atoms: C_7  and  C_8
REMARK    3  A    between atoms: C_7  and  C_14
REMARK    4  A    between atoms: C_10  and  C_23
REMARK    5  A    between atoms: C_17  and  C_19
REMARK    6  A    between atoms: N_21  and  C_32
REMARK    7  A    between atoms: C_32  and  C_33
REMARK                            x       y       z     vdW  Elec       q    Type
REMARK                         _______ _______ _______ _____ _____    ______ ____
ROOT
ATOM      1  C   UNL A   1     -27.460   0.380  26.709  0.00  0.00    +0.067 C 
ENDROOT
BRANCH   1   4
ATOM      2  C   UNL A   1     -28.016  -0.814  28.878  0.00  0.00    +0.026 A 
ATOM      3  C   UNL A   1     -28.469  -0.785  29.829  0.00  0.00    +0.141 A 
ATOM      4  C   UNL A   1     -28.196   0.348  28.055  0.00  0.00    -0.011 A 
ATOM      5  C   UNL A   1     -29.019   1.350  28.378  0.00  0.00    +0.008 A 
ATOM      6  C   UNL A   1     -29.411   0.180  30.378  0.00  0.00    +0.041 A 
ATOM      7  C   UNL A   1     -29.606   1.250  29.619  0.00  0.00    +0.060 A 
ATOM      8 CL   UNL A   1     -30.761   2.489  30.105  0.00  0.00    -0.082 Cl
ATOM      9  F   UNL A   1     -28.254  -1.879  30.756  0.00  0.00    -0.204 F 
ENDBRANCH   1   4
BRANCH   1  10
ATOM     10  C   UNL A   1     -27.930   0.584  25.680  0.00  0.00    -0.014 A 
ATOM     11  C   UNL A   1     -29.352   0.814  25.593  0.00  0.00    -0.004 A 
ATOM     12  C   UNL A   1     -30.087   0.379  24.786  0.00  0.00    -0.000 A 
ATOM     13  C   UNL A   1     -29.680  -0.847  24.114  0.00  0.00    -0.000 A 
ATOM     14  C   UNL A   1     -28.337  -1.085  23.934  0.00  0.00    -0.000 A 
ATOM     15  C   UNL A   1     -27.555  -0.397  24.609  0.00  0.00    -0.004 A 
BRANCH  12  16
ATOM     16  C   UNL A   1     -31.581   0.687  24.739  0.00  0.00    +0.000 A 
ATOM     17  C   UNL A   1     -31.921   1.917  25.045  0.00  0.00    +0.001 A 
ATOM     18  C   UNL A   1     -33.272   2.344  25.027  0.00  0.00    +0.011 A 
ATOM     19  C   UNL A   1     -34.177   1.432  24.510  0.00  0.00    +0.058 A 
ATOM     20  C   UNL A   1     -32.537  -0.151  24.327  0.00  0.00    +0.001 A 
ATOM     21  C   UNL A   1     -33.842   0.185  24.213  0.00  0.00    +0.011 A 
ATOM     22 CL   UNL A   1     -35.861   1.898  24.418  0.00  0.00    -0.082 Cl
ENDBRANCH  12  16
ENDBRANCH   1  10
BRANCH   1  23
ATOM     23  C   UNL A   1     -26.015   0.736  27.023  0.00  0.00    -0.014 A 
ATOM     24  C   UNL A   1     -25.620   1.887  27.501  0.00  0.00    -0.004 A 
ATOM     25  C   UNL A   1     -24.281   2.195  27.689  0.00  0.00    +0.004 A 
ATOM     26  C   UNL A   1     -23.322   1.161  27.571  0.00  0.00    +0.055 A 
ATOM     27  C   UNL A   1     -25.070  -0.320  26.870  0.00  0.00    -0.004 A 
ATOM     28  C   UNL A   1     -23.730  -0.041  27.185  0.00  0.00    +0.004 A 
BRANCH  26  29
ATOM     29  C   UNL A   1     -21.900   1.444  27.860  0.00  0.00    +0.265 C 
ATOM     30  N   UNL A   1     -21.202   0.981  28.813  0.00  0.00    -0.197 NA
ATOM     31  O   UNL A   1     -21.354   2.335  27.038  0.00  0.00    -0.268 OA
BRANCH  30  32
ATOM     32  C   UNL A   1     -21.655  -0.179  29.525  0.00  0.00    +0.141 C 
BRANCH  32  33
ATOM     33  C   UNL A   1     -22.573   0.082  30.543  0.00  0.00    -0.007 C 
ATOM     34  C   UNL A   1     -23.309   1.142  30.638  0.00  0.00    -0.029 C 
ATOM     35  C   UNL A   1     -24.346   1.371  31.651  0.00  0.00    +0.030 C 
ENDBRANCH  32  33
ENDBRANCH  30  32
ENDBRANCH  26  29
ENDBRANCH   1  23
TORSDOF 7
