MODEL 1126
MODEL 1
REMARK VINA RESULT:    -8.749      0.000      0.000
REMARK INTER + INTRA:         -14.209
REMARK INTER:                 -12.330
REMARK INTRA:                  -1.879
REMARK UNBOUND:                -1.879
REMARK  Name = No_1126-gen_results/8p0m/2024-11-26-14-13-15/
REMARK  7 active torsions:
REMARK  status: ('A' for Active; 'I' for Inactive)
REMARK    1  A    between atoms: C_3  and  C_7
REMARK    2  A    between atoms: C_7  and  C_8
REMARK    3  A    between atoms: C_7  and  C_14
REMARK    4  A    between atoms: C_10  and  C_23
REMARK    5  A    between atoms: C_17  and  C_19
REMARK    6  A    between atoms: N_21  and  C_32
REMARK    7  A    between atoms: C_32  and  C_33
REMARK                            x       y       z     vdW  Elec       q    Type
REMARK                         _______ _______ _______ _____ _____    ______ ____
ROOT
ATOM      1  C   UNL A   1      -9.634   0.508  35.880  0.00  0.00    +0.067 C 
ENDROOT
BRANCH   1   4
ATOM      2  C   UNL A   1      -9.274   0.330  38.385  0.00  0.00    +0.026 A 
ATOM      3  C   UNL A   1      -9.591  -0.054  39.314  0.00  0.00    +0.141 A 
ATOM      4  C   UNL A   1     -10.003  -0.116  37.232  0.00  0.00    -0.011 A 
ATOM      5  C   UNL A   1     -10.921  -1.086  37.280  0.00  0.00    +0.008 A 
ATOM      6  C   UNL A   1     -10.544  -1.118  39.600  0.00  0.00    +0.041 A 
ATOM      7  C   UNL A   1     -11.210  -1.558  38.541  0.00  0.00    +0.060 A 
ATOM      8 CL   UNL A   1     -12.358  -2.886  38.698  0.00  0.00    -0.082 Cl
ATOM      9  F   UNL A   1      -8.969   0.421  40.534  0.00  0.00    -0.204 F 
ENDBRANCH   1   4
BRANCH   1  10
ATOM     10  C   UNL A   1     -10.188   1.366  35.352  0.00  0.00    -0.014 A 
ATOM     11  C   UNL A   1     -11.437   1.836  35.901  0.00  0.00    -0.004 A 
ATOM     12  C   UNL A   1     -12.411   2.107  35.302  0.00  0.00    -0.000 A 
ATOM     13  C   UNL A   1     -12.577   1.487  33.995  0.00  0.00    -0.000 A 
ATOM     14  C   UNL A   1     -11.452   1.185  33.262  0.00  0.00    -0.000 A 
ATOM     15  C   UNL A   1     -10.373   1.183  33.875  0.00  0.00    -0.004 A 
BRANCH  12  16
ATOM     16  C   UNL A   1     -13.693   2.626  35.948  0.00  0.00    +0.000 A 
ATOM     17  C   UNL A   1     -13.703   2.648  37.261  0.00  0.00    +0.001 A 
ATOM     18  C   UNL A   1     -14.822   3.120  37.990  0.00  0.00    +0.011 A 
ATOM     19  C   UNL A   1     -15.823   3.703  37.231  0.00  0.00    +0.058 A 
ATOM     20  C   UNL A   1     -14.742   3.137  35.298  0.00  0.00    +0.001 A 
ATOM     21  C   UNL A   1     -15.825   3.670  35.907  0.00  0.00    +0.011 A 
ATOM     22 CL   UNL A   1     -17.223   4.346  38.061  0.00  0.00    -0.082 Cl
ENDBRANCH  12  16
ENDBRANCH   1  10
BRANCH   1  23
ATOM     23  C   UNL A   1      -8.143   0.273  35.695  0.00  0.00    -0.014 A 
ATOM     24  C   UNL A   1      -7.203   0.983  36.262  0.00  0.00    -0.004 A 
ATOM     25  C   UNL A   1      -5.857   0.785  35.994  0.00  0.00    +0.004 A 
ATOM     26  C   UNL A   1      -5.471  -0.360  35.258  0.00  0.00    +0.055 A 
ATOM     27  C   UNL A   1      -7.788  -0.874  34.927  0.00  0.00    -0.004 A 
ATOM     28  C   UNL A   1      -6.419  -1.146  34.764  0.00  0.00    +0.004 A 
BRANCH  26  29
ATOM     29  C   UNL A   1      -4.036  -0.643  35.041  0.00  0.00    +0.265 C 
ATOM     30  N   UNL A   1      -3.244  -0.041  34.254  0.00  0.00    -0.197 NA
ATOM     31  O   UNL A   1      -3.588  -1.692  35.725  0.00  0.00    -0.268 OA
BRANCH  30  32
ATOM     32  C   UNL A   1      -3.602   1.248  33.736  0.00  0.00    +0.141 C 
BRANCH  32  33
ATOM     33  C   UNL A   1      -2.837   1.674  32.649  0.00  0.00    -0.007 C 
ATOM     34  C   UNL A   1      -2.089   0.917  31.914  0.00  0.00    -0.029 C 
ATOM     35  C   UNL A   1      -1.365   1.346  30.711  0.00  0.00    +0.030 C 
ENDBRANCH  32  33
ENDBRANCH  30  32
ENDBRANCH  26  29
ENDBRANCH   1  23
TORSDOF 7
ENDMDL
ENDMDL
