MODEL 1127
MODEL 1
REMARK VINA RESULT:    -6.726      0.000      0.000
REMARK INTER + INTRA:          -8.338
REMARK INTER:                  -7.513
REMARK INTRA:                  -0.825
REMARK UNBOUND:                -0.825
REMARK  Name = No_1127-gen_results/8p0m/2024-11-26-14-13-15/
REMARK  2 active torsions:
REMARK  status: ('A' for Active; 'I' for Inactive)
REMARK    1  A    between atoms: C_3  and  C_7
REMARK    2  A    between atoms: C_9  and  C_11
REMARK                            x       y       z     vdW  Elec       q    Type
REMARK                         _______ _______ _______ _____ _____    ______ ____
ROOT
ATOM      1  C   UNL A   1     -24.371  -1.097  28.466  0.00  0.00    -0.000 A 
ATOM      2  C   UNL A   1     -24.748  -0.527  27.436  0.00  0.00    -0.000 A 
ATOM      3  C   UNL A   1     -23.413  -0.441  29.344  0.00  0.00    -0.000 A 
ATOM      4  C   UNL A   1     -24.084   0.635  26.914  0.00  0.00    -0.000 A 
ATOM      5  C   UNL A   1     -23.211   1.325  27.868  0.00  0.00    -0.000 A 
ATOM      6  C   UNL A   1     -22.960   0.791  29.033  0.00  0.00    -0.000 A 
ENDROOT
BRANCH   1   9
ATOM      7  C   UNL A   1     -26.058  -2.668  29.586  0.00  0.00    -0.000 A 
ATOM      8  C   UNL A   1     -26.319  -3.661  29.823  0.00  0.00    +0.000 A 
ATOM      9  C   UNL A   1     -24.850  -2.454  28.886  0.00  0.00    -0.000 A 
ATOM     10  C   UNL A   1     -24.019  -3.496  28.527  0.00  0.00    -0.000 A 
ATOM     11  C   UNL A   1     -24.441  -4.770  28.872  0.00  0.00    +0.000 A 
ATOM     12  C   UNL A   1     -25.646  -4.933  29.523  0.00  0.00    +0.000 A 
ENDBRANCH   1   9
BRANCH   3  13
ATOM     13  C   UNL A   1     -23.029  -1.132  30.646  0.00  0.00    -0.005 C 
ATOM     14  C   UNL A   1     -23.474  -0.861  31.890  0.00  0.00    -0.026 C 
ATOM     15  C   UNL A   1     -23.120  -1.526  33.002  0.00  0.00    +0.031 C 
ENDBRANCH   3  13
TORSDOF 2
ENDMDL
ENDMDL
