REMARK  Name = No_1128-gen_results/8p0m/2024-11-26-14-13-15/
REMARK  3 active torsions:
REMARK  status: ('A' for Active; 'I' for Inactive)
REMARK    1  A    between atoms: C_5  and  C_8
REMARK    2  A    between atoms: C_8  and  C_9
REMARK    3  A    between atoms: C_9  and  C_10
REMARK                            x       y       z     vdW  Elec       q    Type
REMARK                         _______ _______ _______ _____ _____    ______ ____
ROOT
ATOM      1  C   UNL A   1     -28.016  -0.814  28.878  0.00  0.00    +0.058 A 
ATOM      2 CL   UNL A   1     -28.621  -1.185  29.735  0.00  0.00    -0.082 Cl
ATOM      3  C   UNL A   1     -28.400   0.357  28.030  0.00  0.00    +0.011 A 
ATOM      4  C   UNL A   1     -27.403   0.967  27.287  0.00  0.00    -0.003 A 
ATOM      5  C   UNL A   1     -26.029   0.487  27.142  0.00  0.00    -0.022 A 
ATOM      6  C   UNL A   1     -25.670  -0.572  27.992  0.00  0.00    -0.003 A 
ATOM      7  C   UNL A   1     -26.553  -1.133  28.799  0.00  0.00    +0.011 A 
ENDROOT
BRANCH   5   8
ATOM      8  C   UNL A   1     -25.031   1.094  26.273  0.00  0.00    +0.038 C 
BRANCH   8   9
ATOM      9  C   UNL A   1     -23.875   1.620  26.827  0.00  0.00    +0.119 C 
BRANCH   9  10
ATOM     10  C   UNL A   1     -23.876   2.075  28.139  0.00  0.00    +0.365 C 
ATOM     11  O   UNL A   1     -22.669   2.214  28.654  0.00  0.00    -0.246 OA
ATOM     12  O   UNL A   1     -24.874   2.614  28.637  0.00  0.00    -0.246 OA
ENDBRANCH   9  10
ENDBRANCH   8   9
ENDBRANCH   5   8
TORSDOF 3
