MODEL 1128
MODEL 1
REMARK VINA RESULT:    -5.499      0.000      0.000
REMARK INTER + INTRA:          -6.638
REMARK INTER:                  -6.463
REMARK INTRA:                  -0.175
REMARK UNBOUND:                -0.175
REMARK  Name = No_1128-gen_results/8p0m/2024-11-26-14-13-15/
REMARK  3 active torsions:
REMARK  status: ('A' for Active; 'I' for Inactive)
REMARK    1  A    between atoms: C_5  and  C_8
REMARK    2  A    between atoms: C_8  and  C_9
REMARK    3  A    between atoms: C_9  and  C_10
REMARK                            x       y       z     vdW  Elec       q    Type
REMARK                         _______ _______ _______ _____ _____    ______ ____
ROOT
ATOM      1  C   UNL A   1     -30.508 -10.545  28.250  0.00  0.00    +0.058 A 
ATOM      2 CL   UNL A   1     -30.968  -9.964  27.420  0.00  0.00    -0.082 Cl
ATOM      3  C   UNL A   1     -29.441 -11.576  28.056  0.00  0.00    +0.011 A 
ATOM      4  C   UNL A   1     -28.674 -11.921  29.156  0.00  0.00    -0.003 A 
ATOM      5  C   UNL A   1     -28.898 -11.473  30.530  0.00  0.00    -0.022 A 
ATOM      6  C   UNL A   1     -29.859 -10.460  30.682  0.00  0.00    -0.003 A 
ATOM      7  C   UNL A   1     -30.557 -10.017  29.652  0.00  0.00    +0.011 A 
ENDROOT
BRANCH   5   8
ATOM      8  C   UNL A   1     -28.135 -11.933  31.682  0.00  0.00    +0.038 C 
BRANCH   8   9
ATOM      9  C   UNL A   1     -28.181 -11.208  32.862  0.00  0.00    +0.119 C 
BRANCH   9  10
ATOM     10  C   UNL A   1     -27.331 -11.532  33.911  0.00  0.00    +0.365 C 
ATOM     11  O   UNL A   1     -26.752 -12.711  33.782  0.00  0.00    -0.246 OA
ATOM     12  O   UNL A   1     -26.906 -10.668  34.691  0.00  0.00    -0.246 OA
ENDBRANCH   9  10
ENDBRANCH   8   9
ENDBRANCH   5   8
TORSDOF 3
ENDMDL
ENDMDL
