MODEL 1129
MODEL 1
REMARK VINA RESULT:    -4.500      0.000      0.000
REMARK INTER + INTRA:          -4.500
REMARK INTER:                  -4.500
REMARK INTRA:                   0.000
REMARK UNBOUND:                 0.000
REMARK  Name = No_1129-gen_results/8p0m/2024-11-26-14-13-15/
REMARK  0 active torsions:
REMARK  status: ('A' for Active; 'I' for Inactive)
REMARK                            x       y       z     vdW  Elec       q    Type
REMARK                         _______ _______ _______ _____ _____    ______ ____
ROOT
ATOM      1  C   UNL A   1      -9.230  -9.204  20.243  0.00  0.00    +0.030 A 
ATOM      2  C   UNL A   1      -8.349  -9.727  19.997  0.00  0.00    +0.140 A 
ATOM      3  C   UNL A   1     -10.298  -9.197  19.230  0.00  0.00    +0.002 A 
ATOM      4  C   UNL A   1     -10.179  -9.983  18.047  0.00  0.00    +0.000 A 
ATOM      5  C   UNL A   1      -7.999 -10.653  18.886  0.00  0.00    +0.030 A 
ATOM      6  C   UNL A   1      -8.961 -10.666  17.920  0.00  0.00    +0.002 A 
ATOM      7  F   UNL A   1      -7.306  -9.751  20.991  0.00  0.00    -0.204 F 
ENDROOT
TORSDOF 0
ENDMDL
ENDMDL
