MODEL 112
MODEL 1
REMARK VINA RESULT:    -6.594      0.000      0.000
REMARK INTER + INTRA:          -7.345
REMARK INTER:                  -6.979
REMARK INTRA:                  -0.365
REMARK UNBOUND:                -0.365
REMARK  Name = No_112-gen_results/8p0m/2024-11-26-14-13-15/
REMARK  1 active torsions:
REMARK  status: ('A' for Active; 'I' for Inactive)
REMARK    1  A    between atoms: C_2  and  C_7
REMARK                            x       y       z     vdW  Elec       q    Type
REMARK                         _______ _______ _______ _____ _____    ______ ____
ROOT
ATOM      1  C   UNL A   1     -25.634  -2.523  29.565  0.00  0.00    +0.000 A 
ATOM      2  C   UNL A   1     -24.537  -2.629  29.066  0.00  0.00    +0.000 A 
ATOM      3  C   UNL A   1     -24.032  -3.872  28.700  0.00  0.00    +0.000 A 
ATOM      4  C   UNL A   1     -24.780  -5.077  28.946  0.00  0.00    +0.000 A 
ATOM      5  C   UNL A   1     -26.027  -4.865  29.548  0.00  0.00    +0.000 A 
ATOM      6  C   UNL A   1     -26.452  -3.670  29.890  0.00  0.00    +0.000 A 
ENDROOT
BRANCH   2   7
ATOM      7  C   UNL A   1     -23.618  -1.498  28.766  0.00  0.00    +0.000 A 
ATOM      8  C   UNL A   1     -22.700  -1.246  29.138  0.00  0.00    +0.000 A 
ATOM      9  C   UNL A   1     -21.876  -0.057  28.903  0.00  0.00    +0.000 A 
ATOM     10  C   UNL A   1     -22.389   0.924  28.030  0.00  0.00    +0.000 A 
ATOM     11  C   UNL A   1     -23.658   0.732  27.495  0.00  0.00    +0.000 A 
ATOM     12  C   UNL A   1     -24.325  -0.399  27.781  0.00  0.00    +0.000 A 
ENDBRANCH   2   7
TORSDOF 1
ENDMDL
ENDMDL
