REMARK  Name = No_113-gen_results/8p0m/2024-11-26-14-13-15/
REMARK  1 active torsions:
REMARK  status: ('A' for Active; 'I' for Inactive)
REMARK    1  A    between atoms: C_4  and  C_8
REMARK                            x       y       z     vdW  Elec       q    Type
REMARK                         _______ _______ _______ _____ _____    ______ ____
ROOT
ATOM      1  C   UNL A   1     -28.016  -0.814  28.878  0.00  0.00    +0.006 A 
ATOM      2  C   UNL A   1     -28.469  -0.785  29.829  0.00  0.00    +0.035 A 
ATOM      3  C   UNL A   1     -26.546  -0.876  28.850  0.00  0.00    -0.004 A 
ATOM      4  C   UNL A   1     -25.804  -1.032  30.057  0.00  0.00    -0.021 A 
ATOM      5  C   UNL A   1     -27.944  -0.987  31.207  0.00  0.00    +0.006 A 
ATOM      6  C   UNL A   1     -26.582  -1.039  31.223  0.00  0.00    -0.004 A 
ATOM      7 BR   UNL A   1     -30.450  -0.713  29.890  0.00  0.00    -0.049 Br
ENDROOT
BRANCH   4   8
ATOM      8  C   UNL A   1     -24.361  -1.119  30.063  0.00  0.00    +0.035 C 
ATOM      9  C   UNL A   1     -23.687   0.137  30.027  0.00  0.00    +0.007 C 
ATOM     10  C   UNL A   1     -22.422   0.246  29.365  0.00  0.00    +0.019 C 
ATOM     11  C   UNL A   1     -21.787  -0.992  29.031  0.00  0.00    +0.089 C 
ATOM     12  C   UNL A   1     -23.641  -1.927  30.965  0.00  0.00    +0.006 C 
ATOM     13  C   UNL A   1     -24.049  -1.938  28.634  0.00  0.00    +0.093 C 
ATOM     14  N   UNL A   1     -22.589  -2.015  28.645  0.00  0.00    -0.218 NA
ENDBRANCH   4   8
TORSDOF 1
