MODEL 1130
MODEL 1
REMARK VINA RESULT:    -6.168      0.000      0.000
REMARK INTER + INTRA:          -7.380
REMARK INTER:                  -6.889
REMARK INTRA:                  -0.491
REMARK UNBOUND:                -0.491
REMARK  Name = No_1130-gen_results/8p0m/2024-11-26-14-13-15/
REMARK  2 active torsions:
REMARK  status: ('A' for Active; 'I' for Inactive)
REMARK    1  A    between atoms: C_3  and  C_7
REMARK    2  A    between atoms: N_8  and  C_11
REMARK                            x       y       z     vdW  Elec       q    Type
REMARK                         _______ _______ _______ _____ _____    ______ ____
ROOT
ATOM      1  C   UNL A   1     -23.967   0.056  30.176  0.00  0.00    +0.253 C 
ATOM      2  N   UNL A   1     -24.199  -0.623  29.204  0.00  0.00    -0.253 N 
ATOM      3  O   UNL A   1     -23.604   1.341  29.967  0.00  0.00    -0.270 OA
ATOM      4  C   UNL A   1     -24.029  -0.235  27.829  0.00  0.00    +0.120 C 
ENDROOT
BRANCH   1   7
ATOM      5  C   UNL A   1     -22.994  -1.220  32.174  0.00  0.00    +0.004 A 
ATOM      6  C   UNL A   1     -23.088  -1.476  33.192  0.00  0.00    +0.000 A 
ATOM      7  C   UNL A   1     -24.000  -0.409  31.603  0.00  0.00    +0.054 A 
ATOM      8  C   UNL A   1     -25.085   0.033  32.334  0.00  0.00    +0.004 A 
ATOM      9  C   UNL A   1     -24.127  -1.139  34.184  0.00  0.00    +0.000 A 
ATOM     10  C   UNL A   1     -25.111  -0.364  33.678  0.00  0.00    +0.000 A 
ENDBRANCH   1   7
BRANCH   2  11
ATOM     11  C   UNL A   1     -24.611  -2.046  29.273  0.00  0.00    +0.054 A 
ATOM     12  C   UNL A   1     -23.884  -2.849  28.973  0.00  0.00    +0.015 A 
ATOM     13  C   UNL A   1     -24.230  -4.262  28.881  0.00  0.00    +0.001 A 
ATOM     14  C   UNL A   1     -25.456  -4.613  29.345  0.00  0.00    +0.000 A 
ATOM     15  C   UNL A   1     -26.332  -3.609  29.776  0.00  0.00    +0.001 A 
ATOM     16  C   UNL A   1     -25.929  -2.323  29.714  0.00  0.00    +0.015 A 
ENDBRANCH   2  11
TORSDOF 2
ENDMDL
ENDMDL
