MODEL 1131
MODEL 1
REMARK VINA RESULT:    -4.339      0.000      0.000
REMARK INTER + INTRA:          -4.339
REMARK INTER:                  -4.339
REMARK INTRA:                   0.000
REMARK UNBOUND:                 0.000
REMARK  Name = No_1131-gen_results/8p0m/2024-11-26-14-13-15/
REMARK  0 active torsions:
REMARK  status: ('A' for Active; 'I' for Inactive)
REMARK                            x       y       z     vdW  Elec       q    Type
REMARK                         _______ _______ _______ _____ _____    ______ ____
ROOT
ATOM      1  C   UNL A   1     -24.989  -5.390  29.059  0.00  0.00    +0.000 A 
ATOM      2  C   UNL A   1     -24.235  -4.734  28.726  0.00  0.00    +0.000 A 
ATOM      3  C   UNL A   1     -26.164  -4.701  29.607  0.00  0.00    +0.000 A 
ATOM      4  C   UNL A   1     -26.186  -3.386  29.827  0.00  0.00    +0.000 A 
ATOM      5  C   UNL A   1     -24.028  -3.313  28.871  0.00  0.00    +0.000 A 
ATOM      6  C   UNL A   1     -25.120  -2.695  29.404  0.00  0.00    +0.000 A 
ENDROOT
TORSDOF 0
ENDMDL
ENDMDL
