REMARK  Name = No_1132-gen_results/8p0m/2024-11-26-14-13-15/
REMARK  4 active torsions:
REMARK  status: ('A' for Active; 'I' for Inactive)
REMARK    1  A    between atoms: C_4  and  C_5
REMARK    2  A    between atoms: C_8  and  C_10
REMARK    3  A    between atoms: C_12  and  C_13
REMARK    4  A    between atoms: C_14  and  C_15
REMARK                            x       y       z     vdW  Elec       q    Type
REMARK                         _______ _______ _______ _____ _____    ______ ____
ROOT
ATOM      1  C   UNL A   1     -28.144   1.432  25.488  0.00  0.00    -0.022 C 
ATOM      2  C   UNL A   1     -27.284   1.189  24.542  0.00  0.00    -0.004 C 
ATOM      3  C   UNL A   1     -29.194   2.427  25.233  0.00  0.00    +0.031 C 
ENDROOT
BRANCH   1   7
ATOM      4  C   UNL A   1     -28.016  -0.814  28.878  0.00  0.00    +0.058 A 
ATOM      5  C   UNL A   1     -27.064  -0.119  28.608  0.00  0.00    +0.011 A 
ATOM      6  C   UNL A   1     -27.001   0.691  27.491  0.00  0.00    +0.001 A 
ATOM      7  C   UNL A   1     -28.137   0.736  26.635  0.00  0.00    -0.004 A 
ATOM      8  C   UNL A   1     -29.280  -0.552  28.248  0.00  0.00    +0.011 A 
ATOM      9  C   UNL A   1     -29.255   0.095  27.045  0.00  0.00    +0.001 A 
ATOM     10 CL   UNL A   1     -28.054  -1.730  30.422  0.00  0.00    -0.082 Cl
ENDBRANCH   1   7
BRANCH   2  11
ATOM     11  C   UNL A   1     -26.256   0.292  24.724  0.00  0.00    +0.009 C 
ATOM     12  C   UNL A   1     -24.876   0.654  25.043  0.00  0.00    +0.050 C 
BRANCH  12  13
ATOM     13  C   UNL A   1     -24.460   1.474  26.093  0.00  0.00    -0.059 C 
ATOM     14  C   UNL A   1     -23.629   2.097  26.470  0.00  0.00    -0.049 C 
BRANCH  14  15
ATOM     15  C   UNL A   1     -23.021   2.533  27.559  0.00  0.00    +0.113 C 
ATOM     16  C   UNL A   1     -22.785   1.467  28.574  0.00  0.00    +0.030 C 
ATOM     17  N   UNL A   1     -23.139   1.739  29.781  0.00  0.00    -0.095 NA
ENDBRANCH  14  15
ENDBRANCH  12  13
ENDBRANCH   2  11
TORSDOF 4
