MODEL 1133
MODEL 1
REMARK VINA RESULT:    -5.226      0.000      0.000
REMARK INTER + INTRA:          -5.679
REMARK INTER:                  -5.532
REMARK INTRA:                  -0.147
REMARK UNBOUND:                -0.147
REMARK  Name = No_1133-gen_results/8p0m/2024-11-26-14-13-15/
REMARK  1 active torsions:
REMARK  status: ('A' for Active; 'I' for Inactive)
REMARK    1  A    between atoms: C_5  and  C_8
REMARK                            x       y       z     vdW  Elec       q    Type
REMARK                         _______ _______ _______ _____ _____    ______ ____
ROOT
ATOM      1  C   UNL A   1     -24.408  -0.025  27.544  0.00  0.00    +0.007 A 
ATOM      2  C   UNL A   1     -24.598  -0.992  27.915  0.00  0.00    +0.001 A 
ATOM      3  C   UNL A   1     -23.123   0.532  27.857  0.00  0.00    +0.035 A 
ATOM      4  C   UNL A   1     -22.265  -0.044  28.704  0.00  0.00    +0.007 A 
ATOM      5  C   UNL A   1     -23.829  -1.791  28.859  0.00  0.00    -0.000 A 
ATOM      6  C   UNL A   1     -22.648  -1.279  29.177  0.00  0.00    +0.001 A 
ATOM      7 BR   UNL A   1     -22.690   2.235  27.060  0.00  0.00    -0.049 Br
ENDROOT
BRANCH   5   8
ATOM      8  C   UNL A   1     -24.346  -3.150  29.351  0.00  0.00    -0.005 C 
ATOM      9  C   UNL A   1     -24.459  -4.129  28.725  0.00  0.00    -0.026 C 
ATOM     10  C   UNL A   1     -24.939  -5.433  29.223  0.00  0.00    +0.031 C 
ENDBRANCH   5   8
TORSDOF 1
ENDMDL
ENDMDL
