MODEL 1134
MODEL 1
REMARK VINA RESULT:    -4.933      0.000      0.000
REMARK INTER + INTRA:          -5.175
REMARK INTER:                  -5.222
REMARK INTRA:                   0.047
REMARK UNBOUND:                 0.047
REMARK  Name = No_1134-gen_results/8p0m/2024-11-26-14-13-15/
REMARK  1 active torsions:
REMARK  status: ('A' for Active; 'I' for Inactive)
REMARK    1  A    between atoms: C_2  and  C_7
REMARK                            x       y       z     vdW  Elec       q    Type
REMARK                         _______ _______ _______ _____ _____    ______ ____
ROOT
ATOM      1  C   UNL A   1     -23.910  -3.475  28.669  0.00  0.00    -0.000 A 
ATOM      2  C   UNL A   1     -24.743  -2.686  29.051  0.00  0.00    -0.000 A 
ATOM      3  C   UNL A   1     -25.944  -3.121  29.601  0.00  0.00    -0.000 A 
ATOM      4  C   UNL A   1     -26.254  -4.524  29.689  0.00  0.00    -0.000 A 
ATOM      5  C   UNL A   1     -25.245  -5.366  29.202  0.00  0.00    -0.000 A 
ATOM      6  C   UNL A   1     -24.133  -4.904  28.676  0.00  0.00    -0.000 A 
ENDROOT
BRANCH   2   7
ATOM      7  C   UNL A   1     -24.450  -1.266  28.857  0.00  0.00    -0.005 C 
ATOM      8  C   UNL A   1     -23.944  -0.582  29.922  0.00  0.00    -0.026 C 
ATOM      9  C   UNL A   1     -23.644  -1.286  31.213  0.00  0.00    +0.031 C 
ENDBRANCH   2   7
TORSDOF 1
ENDMDL
ENDMDL
