REMARK  Name = No_1135-gen_results/8p0m/2024-11-26-14-13-15/
REMARK  7 active torsions:
REMARK  status: ('A' for Active; 'I' for Inactive)
REMARK    1  A    between atoms: C_1  and  C_18
REMARK    2  A    between atoms: C_3  and  N_7
REMARK    3  A    between atoms: C_5  and  C_15
REMARK    4  A    between atoms: C_9  and  C_12
REMARK    5  A    between atoms: C_18  and  O_20
REMARK    6  A    between atoms: O_20  and  C_21
REMARK    7  A    between atoms: C_21  and  C_22
REMARK                            x       y       z     vdW  Elec       q    Type
REMARK                         _______ _______ _______ _____ _____    ______ ____
ROOT
ATOM      1  C   UNL A   1     -28.016  -0.814  28.878  0.00  0.00    +0.077 A 
ATOM      2  C   UNL A   1     -27.064  -0.119  28.608  0.00  0.00    +0.024 A 
ATOM      3  C   UNL A   1     -26.972   0.714  27.506  0.00  0.00    +0.065 A 
ATOM      4  C   UNL A   1     -28.105   0.774  26.642  0.00  0.00    +0.024 A 
ATOM      5  C   UNL A   1     -29.204   0.118  27.048  0.00  0.00    +0.081 A 
ATOM      6  C   UNL A   1     -29.213  -0.609  28.128  0.00  0.00    +0.013 A 
ENDROOT
BRANCH   3   7
ATOM      7  N   UNL A   1     -25.686   1.276  27.319  0.00  0.00    -0.303 N 
ATOM      8  C   UNL A   1     -24.661   0.868  27.878  0.00  0.00    +0.085 A 
ATOM      9  C   UNL A   1     -23.381   1.617  27.694  0.00  0.00    +0.076 A 
ATOM     10  C   UNL A   1     -23.561   2.454  26.570  0.00  0.00    +0.025 A 
ATOM     11  C   UNL A   1     -25.290   2.299  26.334  0.00  0.00    +0.080 A 
BRANCH   9  12
ATOM     12  C   UNL A   1     -22.082   1.390  28.181  0.00  0.00    +0.286 C 
ATOM     13  N   UNL A   1     -21.975   0.707  29.313  0.00  0.00    -0.084 NA
ATOM     14  O   UNL A   1     -21.070   2.127  27.899  0.00  0.00    -0.267 OA
ENDBRANCH   9  12
ENDBRANCH   3   7
BRANCH   5  15
ATOM     15  C   UNL A   1     -30.391   0.252  26.169  0.00  0.00    +0.388 C 
ATOM     16  O   UNL A   1     -31.364  -0.463  26.309  0.00  0.00    -0.241 OA
ATOM     17  O   UNL A   1     -30.528   1.298  25.403  0.00  0.00    -0.241 OA
ENDBRANCH   5  15
BRANCH   1  18
ATOM     18  C   UNL A   1     -27.924  -1.653  30.164  0.00  0.00    +0.342 C 
ATOM     19  O   UNL A   1     -26.931  -2.233  30.457  0.00  0.00    -0.245 OA
BRANCH  18  20
ATOM     20  O   UNL A   1     -29.145  -2.137  30.584  0.00  0.00    -0.435 OA
BRANCH  20  21
ATOM     21  C   UNL A   1     -29.295  -2.854  31.380  0.00  0.00    +0.293 C 
BRANCH  21  22
ATOM     22  C   UNL A   1     -30.567  -3.677  31.390  0.00  0.00    +0.270 C 
ATOM     23  O   UNL A   1     -30.595  -4.726  31.873  0.00  0.00    -0.271 OA
ATOM     24  N   UNL A   1     -31.657  -3.130  30.842  0.00  0.00    -0.277 N 
ATOM     25  C   UNL A   1     -32.855  -3.833  30.648  0.00  0.00    +0.093 C 
ATOM     26  C   UNL A   1     -33.650  -3.129  29.959  0.00  0.00    +0.022 C 
ATOM     27  C   UNL A   1     -33.385  -1.887  29.415  0.00  0.00    +0.004 C 
ATOM     28  C   UNL A   1     -32.182  -1.246  29.656  0.00  0.00    +0.022 C 
ATOM     29  C   UNL A   1     -31.385  -1.856  30.293  0.00  0.00    +0.093 C 
ENDBRANCH  21  22
ENDBRANCH  20  21
ENDBRANCH  18  20
ENDBRANCH   1  18
TORSDOF 7
