MODEL 1136
MODEL 1
REMARK VINA RESULT:    -8.317      0.000      0.000
REMARK INTER + INTRA:         -12.294
REMARK INTER:                 -11.234
REMARK INTRA:                  -1.060
REMARK UNBOUND:                -1.060
REMARK  Name = No_1136-gen_results/8p0m/2024-11-26-14-13-15/
REMARK  6 active torsions:
REMARK  status: ('A' for Active; 'I' for Inactive)
REMARK    1  A    between atoms: C_2  and  O_7
REMARK    2  A    between atoms: C_3  and  O_17
REMARK    3  A    between atoms: O_7  and  C_8
REMARK    4  A    between atoms: C_12  and  C_14
REMARK    5  A    between atoms: O_17  and  C_18
REMARK    6  A    between atoms: C_18  and  C_19
REMARK                            x       y       z     vdW  Elec       q    Type
REMARK                         _______ _______ _______ _____ _____    ______ ____
ROOT
ATOM      1  C   UNL A   1     -23.466   0.976  29.138  0.00  0.00    +0.074 A 
ATOM      2  C   UNL A   1     -22.838   0.236  29.549  0.00  0.00    +0.148 A 
ATOM      3  C   UNL A   1     -22.847   1.818  28.045  0.00  0.00    +0.142 A 
ATOM      4  C   UNL A   1     -21.567   1.485  27.556  0.00  0.00    +0.037 A 
ATOM      5  C   UNL A   1     -21.512  -0.327  29.209  0.00  0.00    +0.038 A 
ATOM      6  C   UNL A   1     -20.915   0.418  28.202  0.00  0.00    +0.006 A 
ENDROOT
BRANCH   2   7
ATOM      7  O   UNL A   1     -23.434  -0.586  30.613  0.00  0.00    -0.453 OA
BRANCH   7   8
ATOM      8  C   UNL A   1     -24.351  -1.507  30.324  0.00  0.00    +0.145 A 
ATOM      9  C   UNL A   1     -25.418  -1.297  30.669  0.00  0.00    +0.037 A 
ATOM     10  C   UNL A   1     -26.492  -2.318  30.446  0.00  0.00    +0.003 A 
ATOM     11  C   UNL A   1     -26.090  -3.500  29.776  0.00  0.00    +0.001 A 
ATOM     12  C   UNL A   1     -24.786  -3.648  29.402  0.00  0.00    +0.047 A 
ATOM     13  C   UNL A   1     -23.850  -2.709  29.645  0.00  0.00    +0.039 A 
BRANCH  12  14
ATOM     14  C   UNL A   1     -24.358  -4.882  28.681  0.00  0.00    +0.341 C 
ATOM     15  F   UNL A   1     -23.633  -4.973  27.815  0.00  0.00    -0.193 F 
ATOM     16  F   UNL A   1     -24.908  -6.022  29.061  0.00  0.00    -0.193 F 
ENDBRANCH  12  14
ENDBRANCH   7   8
ENDBRANCH   2   7
BRANCH   3  17
ATOM     17  O   UNL A   1     -23.494   2.837  27.443  0.00  0.00    -0.470 OA
BRANCH  17  18
ATOM     18  C   UNL A   1     -23.804   2.658  26.118  0.00  0.00    +0.232 C 
BRANCH  18  19
ATOM     19  C   UNL A   1     -24.861   1.835  25.865  0.00  0.00    +0.021 A 
ATOM     20  C   UNL A   1     -26.152   2.340  25.832  0.00  0.00    -0.001 A 
ATOM     21  C   UNL A   1     -27.208   1.373  25.492  0.00  0.00    -0.000 A 
ATOM     22  C   UNL A   1     -26.803   0.219  24.863  0.00  0.00    -0.000 A 
ATOM     23  C   UNL A   1     -25.509  -0.206  24.756  0.00  0.00    -0.000 A 
ATOM     24  C   UNL A   1     -24.477   0.635  25.234  0.00  0.00    -0.001 A 
ENDBRANCH  18  19
ENDBRANCH  17  18
ENDBRANCH   3  17
TORSDOF 6
ENDMDL
ENDMDL
