REMARK  Name = No_1136-gen_results/8p0m/2024-11-26-14-13-15/
REMARK  6 active torsions:
REMARK  status: ('A' for Active; 'I' for Inactive)
REMARK    1  A    between atoms: C_2  and  O_7
REMARK    2  A    between atoms: C_3  and  O_17
REMARK    3  A    between atoms: O_7  and  C_8
REMARK    4  A    between atoms: C_12  and  C_14
REMARK    5  A    between atoms: O_17  and  C_18
REMARK    6  A    between atoms: C_18  and  C_19
REMARK                            x       y       z     vdW  Elec       q    Type
REMARK                         _______ _______ _______ _____ _____    ______ ____
ROOT
ATOM      1  C   UNL A   1     -28.016  -0.814  28.878  0.00  0.00    +0.074 A 
ATOM      2  C   UNL A   1     -28.469  -0.785  29.829  0.00  0.00    +0.148 A 
ATOM      3  C   UNL A   1     -26.504  -0.778  28.877  0.00  0.00    +0.142 A 
ATOM      4  C   UNL A   1     -25.810  -0.853  30.103  0.00  0.00    +0.037 A 
ATOM      5  C   UNL A   1     -27.991  -0.892  31.226  0.00  0.00    +0.038 A 
ATOM      6  C   UNL A   1     -26.604  -0.868  31.265  0.00  0.00    +0.006 A 
ENDROOT
BRANCH   2   7
ATOM      7  O   UNL A   1     -29.939  -0.819  29.836  0.00  0.00    -0.453 OA
BRANCH   7   8
ATOM      8  C   UNL A   1     -30.639   0.234  30.252  0.00  0.00    +0.145 A 
ATOM      9  C   UNL A   1     -31.760   0.224  30.039  0.00  0.00    +0.037 A 
ATOM     10  C   UNL A   1     -32.604   1.405  30.411  0.00  0.00    +0.003 A 
ATOM     11  C   UNL A   1     -31.925   2.473  31.046  0.00  0.00    +0.001 A 
ATOM     12  C   UNL A   1     -30.580   2.381  31.258  0.00  0.00    +0.047 A 
ATOM     13  C   UNL A   1     -29.858   1.305  30.884  0.00  0.00    +0.039 A 
BRANCH  12  14
ATOM     14  C   UNL A   1     -29.859   3.494  31.941  0.00  0.00    +0.341 C 
ATOM     15  F   UNL A   1     -30.280   4.276  32.645  0.00  0.00    -0.193 F 
ATOM     16  F   UNL A   1     -28.570   3.626  31.678  0.00  0.00    -0.193 F 
ENDBRANCH  12  14
ENDBRANCH   7   8
ENDBRANCH   2   7
BRANCH   3  17
ATOM     17  O   UNL A   1     -25.767  -0.762  27.748  0.00  0.00    -0.470 OA
BRANCH  17  18
ATOM     18  C   UNL A   1     -25.679   0.444  27.100  0.00  0.00    +0.232 C 
BRANCH  18  19
ATOM     19  C   UNL A   1     -26.333   0.522  25.906  0.00  0.00    +0.021 A 
ATOM     20  C   UNL A   1     -27.044  -0.566  25.423  0.00  0.00    -0.001 A 
ATOM     21  C   UNL A   1     -27.758  -0.351  24.154  0.00  0.00    -0.000 A 
ATOM     22  C   UNL A   1     -27.988   0.956  23.794  0.00  0.00    -0.000 A 
ATOM     23  C   UNL A   1     -27.405   2.046  24.376  0.00  0.00    -0.000 A 
ATOM     24  C   UNL A   1     -26.571   1.850  25.501  0.00  0.00    -0.001 A 
ENDBRANCH  18  19
ENDBRANCH  17  18
ENDBRANCH   3  17
TORSDOF 6
