MODEL 1137
MODEL 1
REMARK VINA RESULT:    -4.828      0.000      0.000
REMARK INTER + INTRA:          -5.170
REMARK INTER:                  -5.110
REMARK INTRA:                  -0.060
REMARK UNBOUND:                -0.060
REMARK  Name = No_1137-gen_results/8p0m/2024-11-26-14-13-15/
REMARK  1 active torsions:
REMARK  status: ('A' for Active; 'I' for Inactive)
REMARK    1  A    between atoms: C_2  and  C_7
REMARK                            x       y       z     vdW  Elec       q    Type
REMARK                         _______ _______ _______ _____ _____    ______ ____
ROOT
ATOM      1  C   UNL A   1     -25.576  -2.435  29.606  0.00  0.00    +0.006 A 
ATOM      2  C   UNL A   1     -24.683  -2.676  29.102  0.00  0.00    +0.068 A 
ATOM      3  C   UNL A   1     -26.501  -3.599  29.882  0.00  0.00    +0.000 A 
ATOM      4  C   UNL A   1     -26.067  -4.910  29.593  0.00  0.00    +0.000 A 
ATOM      5  C   UNL A   1     -23.992  -3.930  28.727  0.00  0.00    +0.006 A 
ATOM      6  C   UNL A   1     -24.809  -5.024  28.972  0.00  0.00    +0.000 A 
ENDROOT
BRANCH   2   7
ATOM      7  C   UNL A   1     -23.675  -1.460  28.807  0.00  0.00    +0.333 C 
ATOM      8  O   UNL A   1     -24.081  -0.689  28.116  0.00  0.00    -0.254 OA
ATOM      9  F   UNL A   1     -22.386  -1.613  28.943  0.00  0.00    -0.159 F 
ENDBRANCH   2   7
TORSDOF 1
ENDMDL
ENDMDL
