REMARK  Name = No_1138-gen_results/8p0m/2024-11-26-14-13-15/
REMARK  2 active torsions:
REMARK  status: ('A' for Active; 'I' for Inactive)
REMARK    1  A    between atoms: C_3  and  C_4
REMARK    2  A    between atoms: C_7  and  N_13
REMARK                            x       y       z     vdW  Elec       q    Type
REMARK                         _______ _______ _______ _____ _____    ______ ____
ROOT
ATOM      1  C   UNL A   1     -28.016  -0.814  28.878  0.00  0.00    +0.000 A 
ATOM      2  C   UNL A   1     -28.469  -0.785  29.829  0.00  0.00    +0.002 A 
ATOM      3  C   UNL A   1     -28.182   0.428  28.113  0.00  0.00    +0.002 A 
ATOM      4  C   UNL A   1     -29.426   0.110  30.418  0.00  0.00    +0.019 A 
ATOM      5  C   UNL A   1     -29.623   1.220  29.735  0.00  0.00    +0.081 A 
ATOM      6  C   UNL A   1     -28.961   1.453  28.551  0.00  0.00    +0.019 A 
ENDROOT
BRANCH   3   7
ATOM      7  C   UNL A   1     -27.450   0.643  26.850  0.00  0.00    +0.000 A 
ATOM      8  C   UNL A   1     -27.860   1.457  25.908  0.00  0.00    +0.000 A 
ATOM      9  C   UNL A   1     -27.184   1.582  24.700  0.00  0.00    +0.000 A 
ATOM     10  C   UNL A   1     -26.100   0.743  24.415  0.00  0.00    +0.000 A 
ATOM     11  C   UNL A   1     -25.659  -0.123  25.387  0.00  0.00    +0.000 A 
ATOM     12  C   UNL A   1     -26.292  -0.211  26.579  0.00  0.00    +0.000 A 
ENDBRANCH   3   7
BRANCH   5  13
ATOM     13  N   UNL A   1     -30.504   2.238  30.239  0.00  0.00    -0.248 NA
ATOM     14  C   UNL A   1     -30.902   3.200  29.593  0.00  0.00    +0.073 C 
ATOM     15  C   UNL A   1     -31.714   4.238  30.099  0.00  0.00    +0.053 C 
ENDBRANCH   5  13
TORSDOF 2
