MODEL 1138
MODEL 1
REMARK VINA RESULT:    -6.737      0.000      0.000
REMARK INTER + INTRA:          -8.022
REMARK INTER:                  -7.525
REMARK INTRA:                  -0.498
REMARK UNBOUND:                -0.498
REMARK  Name = No_1138-gen_results/8p0m/2024-11-26-14-13-15/
REMARK  2 active torsions:
REMARK  status: ('A' for Active; 'I' for Inactive)
REMARK    1  A    between atoms: C_3  and  C_4
REMARK    2  A    between atoms: C_7  and  N_13
REMARK                            x       y       z     vdW  Elec       q    Type
REMARK                         _______ _______ _______ _____ _____    ______ ____
ROOT
ATOM      1  C   UNL A   1     -22.450  -1.068  29.368  0.00  0.00    +0.000 A 
ATOM      2  C   UNL A   1     -21.903  -0.244  29.003  0.00  0.00    +0.002 A 
ATOM      3  C   UNL A   1     -23.742  -1.255  28.698  0.00  0.00    +0.002 A 
ATOM      4  C   UNL A   1     -22.271   0.873  28.179  0.00  0.00    +0.019 A 
ATOM      5  C   UNL A   1     -23.444   0.749  27.590  0.00  0.00    +0.081 A 
ATOM      6  C   UNL A   1     -24.227  -0.364  27.792  0.00  0.00    +0.019 A 
ENDROOT
BRANCH   3   7
ATOM      7  C   UNL A   1     -24.551  -2.466  28.936  0.00  0.00    +0.000 A 
ATOM      8  C   UNL A   1     -25.711  -2.451  29.545  0.00  0.00    +0.000 A 
ATOM      9  C   UNL A   1     -26.413  -3.619  29.817  0.00  0.00    +0.000 A 
ATOM     10  C   UNL A   1     -25.832  -4.864  29.545  0.00  0.00    +0.000 A 
ATOM     11  C   UNL A   1     -24.612  -4.902  28.913  0.00  0.00    +0.000 A 
ATOM     12  C   UNL A   1     -23.951  -3.762  28.610  0.00  0.00    +0.000 A 
ENDBRANCH   3   7
BRANCH   5  13
ATOM     13  N   UNL A   1     -23.912   1.761  26.682  0.00  0.00    -0.248 NA
ATOM     14  C   UNL A   1     -24.918   2.440  26.852  0.00  0.00    +0.073 C 
ATOM     15  C   UNL A   1     -25.420   3.389  25.935  0.00  0.00    +0.053 C 
ENDBRANCH   5  13
TORSDOF 2
ENDMDL
ENDMDL
