MODEL 1139
MODEL 1
REMARK VINA RESULT:    -5.689      0.000      0.000
REMARK INTER + INTRA:          -6.756
REMARK INTER:                  -6.354
REMARK INTRA:                  -0.401
REMARK UNBOUND:                -0.401
REMARK  Name = No_1139-gen_results/8p0m/2024-11-26-14-13-15/
REMARK  2 active torsions:
REMARK  status: ('A' for Active; 'I' for Inactive)
REMARK    1  A    between atoms: C_3  and  C_7
REMARK    2  A    between atoms: C_8  and  C_9
REMARK                            x       y       z     vdW  Elec       q    Type
REMARK                         _______ _______ _______ _____ _____    ______ ____
ROOT
ATOM      1  C   UNL A   1     -24.955  -5.096  29.032  0.00  0.00    +0.001 A 
ATOM      2  C   UNL A   1     -24.110  -4.258  28.819  0.00  0.00    +0.008 A 
ATOM      3  C   UNL A   1     -24.259  -2.912  29.153  0.00  0.00    +0.042 A 
ATOM      4  C   UNL A   1     -25.509  -2.462  29.734  0.00  0.00    +0.008 A 
ATOM      5  C   UNL A   1     -26.451  -3.495  29.944  0.00  0.00    +0.001 A 
ATOM      6  C   UNL A   1     -26.223  -4.734  29.591  0.00  0.00    +0.000 A 
ENDROOT
BRANCH   3   7
ATOM      7  C   UNL A   1     -23.262  -1.831  28.933  0.00  0.00    -0.060 C 
ATOM      8  C   UNL A   1     -23.633  -0.552  28.649  0.00  0.00    -0.059 C 
BRANCH   8   9
ATOM      9  C   UNL A   1     -23.005   0.279  28.292  0.00  0.00    +0.045 C 
ATOM     10  C   UNL A   1     -23.414   1.094  27.055  0.00  0.00    -0.017 C 
ATOM     11  C   UNL A   1     -24.656   0.777  26.568  0.00  0.00    +0.031 C 
ENDBRANCH   8   9
ENDBRANCH   3   7
TORSDOF 2
ENDMDL
ENDMDL
