MODEL 113
MODEL 1
REMARK VINA RESULT:    -5.223      0.000      0.000
REMARK INTER + INTRA:          -5.833
REMARK INTER:                  -5.528
REMARK INTRA:                  -0.304
REMARK UNBOUND:                -0.304
REMARK  Name = No_113-gen_results/8p0m/2024-11-26-14-13-15/
REMARK  1 active torsions:
REMARK  status: ('A' for Active; 'I' for Inactive)
REMARK    1  A    between atoms: C_4  and  C_8
REMARK                            x       y       z     vdW  Elec       q    Type
REMARK                         _______ _______ _______ _____ _____    ______ ____
ROOT
ATOM      1  C   UNL A   1     -30.239 -14.047  28.631  0.00  0.00    +0.006 A 
ATOM      2  C   UNL A   1     -29.937 -13.415  27.843  0.00  0.00    +0.035 A 
ATOM      3  C   UNL A   1     -29.841 -13.643  29.989  0.00  0.00    -0.004 A 
ATOM      4  C   UNL A   1     -29.207 -12.387  30.215  0.00  0.00    -0.021 A 
ATOM      5  C   UNL A   1     -29.334 -12.055  27.812  0.00  0.00    +0.006 A 
ATOM      6  C   UNL A   1     -28.943 -11.649  29.053  0.00  0.00    -0.004 A 
ATOM      7 BR   UNL A   1     -30.471 -13.934  26.005  0.00  0.00    -0.049 Br
ENDROOT
BRANCH   4   8
ATOM      8  C   UNL A   1     -28.824 -11.950  31.539  0.00  0.00    +0.035 C 
ATOM      9  C   UNL A   1     -27.463 -12.201  31.880  0.00  0.00    +0.007 C 
ATOM     10  C   UNL A   1     -27.110 -12.480  33.239  0.00  0.00    +0.019 C 
ATOM     11  C   UNL A   1     -28.122 -12.204  34.213  0.00  0.00    +0.089 C 
ATOM     12  C   UNL A   1     -29.129 -10.672  32.047  0.00  0.00    +0.006 C 
ATOM     13  C   UNL A   1     -29.806 -12.889  32.521  0.00  0.00    +0.093 C 
ATOM     14  N   UNL A   1     -29.408 -12.446  33.856  0.00  0.00    -0.218 NA
ENDBRANCH   4   8
TORSDOF 1
ENDMDL
ENDMDL
