REMARK  Name = No_114-gen_results/8p0m/2024-11-26-14-13-15/
REMARK  7 active torsions:
REMARK  status: ('A' for Active; 'I' for Inactive)
REMARK    1  A    between atoms: C_5  and  C_8
REMARK    2  A    between atoms: C_6  and  C_12
REMARK    3  A    between atoms: C_8  and  C_9
REMARK    4  A    between atoms: C_12  and  O_14
REMARK    5  A    between atoms: O_14  and  C_15
REMARK    6  A    between atoms: C_15  and  C_16
REMARK    7  A    between atoms: C_17  and  C_18
REMARK                            x       y       z     vdW  Elec       q    Type
REMARK                         _______ _______ _______ _____ _____    ______ ____
ROOT
ATOM      1  F   UNL A   1     -28.073  -1.254  28.532  0.00  0.00    -0.204 F 
ATOM      2  C   UNL A   1     -27.359  -0.379  28.722  0.00  0.00    +0.140 A 
ATOM      3  C   UNL A   1     -27.701   0.761  29.125  0.00  0.00    +0.036 A 
ATOM      4  C   UNL A   1     -25.884  -0.692  28.437  0.00  0.00    +0.026 A 
ATOM      5  C   UNL A   1     -24.921   0.378  28.601  0.00  0.00    -0.011 A 
ATOM      6  C   UNL A   1     -26.696   1.878  29.278  0.00  0.00    +0.078 A 
ATOM      7  C   UNL A   1     -25.321   1.617  29.014  0.00  0.00    +0.003 A 
ENDROOT
BRANCH   6   8
ATOM      8  C   UNL A   1     -27.074   3.223  29.806  0.00  0.00    +0.342 C 
ATOM      9  O   UNL A   1     -26.737   4.150  29.287  0.00  0.00    -0.245 OA
BRANCH   8  10
ATOM     10  O   UNL A   1     -27.827   3.226  30.874  0.00  0.00    -0.440 OA
BRANCH  10  11
ATOM     11  C   UNL A   1     -28.081   2.627  31.696  0.00  0.00    +0.235 C 
BRANCH  11  12
ATOM     12  C   UNL A   1     -27.075   2.406  32.713  0.00  0.00    +0.021 C 
ATOM     13  C   UNL A   1     -26.981   1.198  33.378  0.00  0.00    -0.001 C 
BRANCH  13  14
ATOM     14  C   UNL A   1     -27.643   0.992  34.333  0.00  0.00    -0.000 C 
ATOM     15  C   UNL A   1     -27.671  -0.370  34.971  0.00  0.00    -0.000 C 
ENDBRANCH  13  14
ENDBRANCH  11  12
ENDBRANCH  10  11
ENDBRANCH   8  10
ENDBRANCH   6   8
BRANCH   5  16
ATOM     16  C   UNL A   1     -23.503   0.145  28.362  0.00  0.00    +0.115 C 
BRANCH  16  17
ATOM     17  C   UNL A   1     -22.624   0.287  29.097  0.00  0.00    +0.265 C 
ATOM     18  N   UNL A   1     -22.816   0.639  30.379  0.00  0.00    -0.087 NA
ATOM     19  O   UNL A   1     -21.361   0.118  28.765  0.00  0.00    -0.271 OA
ENDBRANCH  16  17
ENDBRANCH   5  16
TORSDOF 7
