MODEL 1140
MODEL 1
REMARK VINA RESULT:    -4.382      0.000      0.000
REMARK INTER + INTRA:          -4.382
REMARK INTER:                  -4.382
REMARK INTRA:                   0.000
REMARK UNBOUND:                 0.000
REMARK  Name = No_1140-gen_results/8p0m/2024-11-26-14-13-15/
REMARK  0 active torsions:
REMARK  status: ('A' for Active; 'I' for Inactive)
REMARK                            x       y       z     vdW  Elec       q    Type
REMARK                         _______ _______ _______ _____ _____    ______ ____
ROOT
ATOM      1  C   UNL A   1     -25.427  -2.562  29.679  0.00  0.00    +0.011 A 
ATOM      2  C   UNL A   1     -24.350  -2.853  29.214  0.00  0.00    +0.058 A 
ATOM      3  C   UNL A   1     -24.060  -4.160  28.835  0.00  0.00    +0.011 A 
ATOM      4  C   UNL A   1     -25.020  -5.217  29.028  0.00  0.00    +0.001 A 
ATOM      5  C   UNL A   1     -26.230  -4.796  29.594  0.00  0.00    +0.000 A 
ATOM      6  C   UNL A   1     -26.448  -3.550  29.950  0.00  0.00    +0.001 A 
ATOM      7 CL   UNL A   1     -23.077  -1.736  28.960  0.00  0.00    -0.082 Cl
ENDROOT
TORSDOF 0
ENDMDL
ENDMDL
