MODEL 1141
MODEL 1
REMARK VINA RESULT:    -4.327      0.000      0.000
REMARK INTER + INTRA:          -4.327
REMARK INTER:                  -4.327
REMARK INTRA:                   0.000
REMARK UNBOUND:                 0.000
REMARK  Name = No_1141-gen_results/8p0m/2024-11-26-14-13-15/
REMARK  0 active torsions:
REMARK  status: ('A' for Active; 'I' for Inactive)
REMARK                            x       y       z     vdW  Elec       q    Type
REMARK                         _______ _______ _______ _____ _____    ______ ____
ROOT
ATOM      1  C   UNL A   1     -26.231  -4.740  29.695  0.00  0.00    +0.007 A 
ATOM      2  C   UNL A   1     -26.223  -3.686  29.716  0.00  0.00    +0.035 A 
ATOM      3  C   UNL A   1     -25.055  -5.385  28.997  0.00  0.00    +0.001 A 
ATOM      4  C   UNL A   1     -23.983  -4.579  28.561  0.00  0.00    +0.000 A 
ATOM      5  C   UNL A   1     -25.238  -2.635  29.376  0.00  0.00    +0.007 A 
ATOM      6  C   UNL A   1     -24.139  -3.191  28.738  0.00  0.00    +0.001 A 
ATOM      7 BR   UNL A   1     -27.767  -2.829  30.641  0.00  0.00    -0.049 Br
ENDROOT
TORSDOF 0
ENDMDL
ENDMDL
