REMARK  Name = No_1142-gen_results/8p0m/2024-11-26-14-13-15/
REMARK  3 active torsions:
REMARK  status: ('A' for Active; 'I' for Inactive)
REMARK    1  A    between atoms: C_3  and  C_13
REMARK    2  A    between atoms: C_5  and  C_7
REMARK    3  A    between atoms: C_7  and  C_10
REMARK                            x       y       z     vdW  Elec       q    Type
REMARK                         _______ _______ _______ _____ _____    ______ ____
ROOT
ATOM      1  C   UNL A   1     -28.016  -0.814  28.878  0.00  0.00    -0.000 A 
ATOM      2  C   UNL A   1     -27.064  -0.119  28.608  0.00  0.00    -0.000 A 
ATOM      3  C   UNL A   1     -27.001   0.691  27.491  0.00  0.00    -0.000 A 
ATOM      4  C   UNL A   1     -28.137   0.736  26.635  0.00  0.00    -0.004 A 
ATOM      5  C   UNL A   1     -29.236   0.076  27.069  0.00  0.00    -0.013 A 
ATOM      6  C   UNL A   1     -29.218  -0.643  28.175  0.00  0.00    -0.004 A 
ENDROOT
BRANCH   3   7
ATOM      7  C   UNL A   1     -25.725   1.411  27.060  0.00  0.00    -0.000 A 
ATOM      8  C   UNL A   1     -24.697   1.087  27.771  0.00  0.00    -0.000 A 
ATOM      9  C   UNL A   1     -23.428   1.877  27.571  0.00  0.00    -0.000 A 
ATOM     10  C   UNL A   1     -23.366   2.682  26.440  0.00  0.00    +0.000 A 
ATOM     11  C   UNL A   1     -24.502   2.934  25.744  0.00  0.00    -0.000 A 
ATOM     12  C   UNL A   1     -25.574   2.365  26.153  0.00  0.00    -0.000 A 
ENDBRANCH   3   7
BRANCH   5  13
ATOM     13  C   UNL A   1     -30.415   0.159  26.182  0.00  0.00    +0.113 C 
ATOM     14  C   UNL A   1     -31.096   1.182  26.073  0.00  0.00    +0.016 C 
ATOM     15  C   UNL A   1     -30.113  -0.529  24.860  0.00  0.00    +0.016 C 
BRANCH  13  16
ATOM     16  C   UNL A   1     -31.451  -0.973  26.738  0.00  0.00    +0.367 C 
ATOM     17  O   UNL A   1     -31.686  -1.046  27.857  0.00  0.00    -0.245 OA
ATOM     18  O   UNL A   1     -31.948  -1.831  25.876  0.00  0.00    -0.245 OA
ENDBRANCH  13  16
ENDBRANCH   5  13
TORSDOF 3
