MODEL 1142
MODEL 1
REMARK VINA RESULT:    -7.748      0.000      0.000
REMARK INTER + INTRA:          -9.883
REMARK INTER:                  -9.107
REMARK INTRA:                  -0.776
REMARK UNBOUND:                -0.776
REMARK  Name = No_1142-gen_results/8p0m/2024-11-26-14-13-15/
REMARK  3 active torsions:
REMARK  status: ('A' for Active; 'I' for Inactive)
REMARK    1  A    between atoms: C_3  and  C_13
REMARK    2  A    between atoms: C_5  and  C_7
REMARK    3  A    between atoms: C_7  and  C_10
REMARK                            x       y       z     vdW  Elec       q    Type
REMARK                         _______ _______ _______ _____ _____    ______ ____
ROOT
ATOM      1  C   UNL A   1     -21.901  -0.041  29.248  0.00  0.00    -0.000 A 
ATOM      2  C   UNL A   1     -22.537  -1.055  29.418  0.00  0.00    -0.000 A 
ATOM      3  C   UNL A   1     -23.714  -1.340  28.753  0.00  0.00    -0.000 A 
ATOM      4  C   UNL A   1     -24.178  -0.404  27.788  0.00  0.00    -0.004 A 
ATOM      5  C   UNL A   1     -23.347   0.628  27.511  0.00  0.00    -0.013 A 
ATOM      6  C   UNL A   1     -22.217   0.800  28.171  0.00  0.00    -0.004 A 
ENDROOT
BRANCH   3   7
ATOM      7  C   UNL A   1     -24.605  -2.527  29.116  0.00  0.00    -0.000 A 
ATOM      8  C   UNL A   1     -24.055  -3.668  28.863  0.00  0.00    -0.000 A 
ATOM      9  C   UNL A   1     -24.910  -4.903  28.992  0.00  0.00    -0.000 A 
ATOM     10  C   UNL A   1     -26.122  -4.756  29.656  0.00  0.00    +0.000 A 
ATOM     11  C   UNL A   1     -26.595  -3.510  29.901  0.00  0.00    -0.000 A 
ATOM     12  C   UNL A   1     -25.860  -2.526  29.541  0.00  0.00    -0.000 A 
ENDBRANCH   3   7
BRANCH   5  13
ATOM     13  C   UNL A   1     -23.832   1.574  26.485  0.00  0.00    +0.113 C 
ATOM     14  C   UNL A   1     -23.073   2.301  25.837  0.00  0.00    +0.016 C 
ATOM     15  C   UNL A   1     -24.920   0.915  25.653  0.00  0.00    +0.016 C 
BRANCH  13  16
ATOM     16  C   UNL A   1     -24.816   2.604  27.281  0.00  0.00    +0.367 C 
ATOM     17  O   UNL A   1     -24.379   3.441  27.930  0.00  0.00    -0.245 OA
ATOM     18  O   UNL A   1     -26.112   2.400  27.207  0.00  0.00    -0.245 OA
ENDBRANCH  13  16
ENDBRANCH   5  13
TORSDOF 3
ENDMDL
ENDMDL
