MODEL 1143
MODEL 1
REMARK VINA RESULT:    -6.721      0.000      0.000
REMARK INTER + INTRA:          -7.959
REMARK INTER:                  -7.507
REMARK INTRA:                  -0.452
REMARK UNBOUND:                -0.452
REMARK  Name = No_1143-gen_results/8p0m/2024-11-26-14-13-15/
REMARK  2 active torsions:
REMARK  status: ('A' for Active; 'I' for Inactive)
REMARK    1  A    between atoms: C_3  and  C_4
REMARK    2  A    between atoms: C_4  and  C_8
REMARK                            x       y       z     vdW  Elec       q    Type
REMARK                         _______ _______ _______ _____ _____    ______ ____
ROOT
ATOM      1  C   UNL A   1     -23.489  -1.820  29.532  0.00  0.00    +0.053 C 
ENDROOT
BRANCH   1   4
ATOM      2  C   UNL A   1     -23.907   0.160  27.908  0.00  0.00    -0.004 A 
ATOM      3  C   UNL A   1     -23.420   0.979  27.459  0.00  0.00    -0.000 A 
ATOM      4  C   UNL A   1     -23.021  -0.675  28.719  0.00  0.00    -0.018 A 
ATOM      5  C   UNL A   1     -22.055   1.489  27.452  0.00  0.00    -0.000 A 
ATOM      6  C   UNL A   1     -21.185   0.719  28.197  0.00  0.00    -0.000 A 
ATOM      7  C   UNL A   1     -21.652  -0.339  28.884  0.00  0.00    -0.004 A 
ENDBRANCH   1   4
BRANCH   1   8
ATOM      8  C   UNL A   1     -24.251  -2.677  29.355  0.00  0.00    -0.018 A 
ATOM      9  C   UNL A   1     -23.970  -4.031  28.885  0.00  0.00    -0.004 A 
ATOM     10  C   UNL A   1     -24.897  -5.086  28.928  0.00  0.00    -0.000 A 
ATOM     11  C   UNL A   1     -26.165  -4.790  29.542  0.00  0.00    -0.000 A 
ATOM     12  C   UNL A   1     -26.439  -3.492  29.995  0.00  0.00    -0.000 A 
ATOM     13  C   UNL A   1     -25.590  -2.478  29.963  0.00  0.00    -0.004 A 
ENDBRANCH   1   8
TORSDOF 2
ENDMDL
ENDMDL
