REMARK  Name = No_1144-gen_results/8p0m/2024-11-26-14-13-15/
REMARK  2 active torsions:
REMARK  status: ('A' for Active; 'I' for Inactive)
REMARK    1  A    between atoms: C_3  and  C_7
REMARK    2  A    between atoms: C_6  and  C_12
REMARK                            x       y       z     vdW  Elec       q    Type
REMARK                         _______ _______ _______ _____ _____    ______ ____
ROOT
ATOM      1  C   UNL A   1     -28.016  -0.814  28.878  0.00  0.00    +0.015 A 
ATOM      2  C   UNL A   1     -28.469  -0.785  29.829  0.00  0.00    +0.058 A 
ATOM      3  C   UNL A   1     -27.087   0.290  28.638  0.00  0.00    +0.072 A 
ATOM      4  C   UNL A   1     -26.832   1.249  29.587  0.00  0.00    +0.005 A 
ATOM      5  C   UNL A   1     -28.391   0.080  31.006  0.00  0.00    +0.013 A 
ATOM      6  C   UNL A   1     -27.494   1.152  30.784  0.00  0.00    +0.044 A 
ATOM      7 CL   UNL A   1     -29.578  -2.193  30.271  0.00  0.00    -0.082 Cl
ENDROOT
BRANCH   3   8
ATOM      8  C   UNL A   1     -26.317   0.399  27.365  0.00  0.00    +0.419 C 
ATOM      9  F   UNL A   1     -25.845   1.547  27.381  0.00  0.00    -0.166 F 
ATOM     10  F   UNL A   1     -25.361  -0.521  27.323  0.00  0.00    -0.166 F 
ATOM     11  F   UNL A   1     -27.136   0.259  26.289  0.00  0.00    -0.166 F 
ENDBRANCH   3   8
BRANCH   6  12
ATOM     12  C   UNL A   1     -27.307   2.194  31.860  0.00  0.00    +0.341 C 
ATOM     13  F   UNL A   1     -26.428   2.271  32.358  0.00  0.00    -0.193 F 
ATOM     14  F   UNL A   1     -28.325   2.679  31.944  0.00  0.00    -0.193 F 
ENDBRANCH   6  12
TORSDOF 2
