MODEL 1144
MODEL 1
REMARK VINA RESULT:    -6.133      0.000      0.000
REMARK INTER + INTRA:          -7.143
REMARK INTER:                  -6.850
REMARK INTRA:                  -0.292
REMARK UNBOUND:                -0.292
REMARK  Name = No_1144-gen_results/8p0m/2024-11-26-14-13-15/
REMARK  2 active torsions:
REMARK  status: ('A' for Active; 'I' for Inactive)
REMARK    1  A    between atoms: C_3  and  C_7
REMARK    2  A    between atoms: C_6  and  C_12
REMARK                            x       y       z     vdW  Elec       q    Type
REMARK                         _______ _______ _______ _____ _____    ______ ____
ROOT
ATOM      1  C   UNL A   1     -24.980  -0.986  30.060  0.00  0.00    +0.015 A 
ATOM      2  C   UNL A   1     -25.705  -1.743  30.175  0.00  0.00    +0.058 A 
ATOM      3  C   UNL A   1     -23.755  -1.445  29.406  0.00  0.00    +0.072 A 
ATOM      4  C   UNL A   1     -23.597  -2.739  28.975  0.00  0.00    +0.005 A 
ATOM      5  C   UNL A   1     -25.814  -3.158  29.823  0.00  0.00    +0.013 A 
ATOM      6  C   UNL A   1     -24.632  -3.612  29.190  0.00  0.00    +0.044 A 
ATOM      7 CL   UNL A   1     -27.330  -1.242  30.893  0.00  0.00    -0.082 Cl
ENDROOT
BRANCH   3   8
ATOM      8  C   UNL A   1     -22.629  -0.510  29.117  0.00  0.00    +0.419 C 
ATOM      9  F   UNL A   1     -22.562   0.221  30.117  0.00  0.00    -0.166 F 
ATOM     10  F   UNL A   1     -21.502  -1.187  28.932  0.00  0.00    -0.166 F 
ATOM     11  F   UNL A   1     -22.895   0.245  28.018  0.00  0.00    -0.166 F 
ENDBRANCH   3   8
BRANCH   6  12
ATOM     12  C   UNL A   1     -24.518  -5.063  28.791  0.00  0.00    +0.341 C 
ATOM     13  F   UNL A   1     -25.020  -5.781  29.301  0.00  0.00    -0.193 F 
ATOM     14  F   UNL A   1     -23.755  -5.053  27.957  0.00  0.00    -0.193 F 
ENDBRANCH   6  12
TORSDOF 2
ENDMDL
ENDMDL
