MODEL 1145
MODEL 1
REMARK VINA RESULT:    -6.492      0.000      0.000
REMARK INTER + INTRA:          -7.186
REMARK INTER:                  -6.871
REMARK INTRA:                  -0.315
REMARK UNBOUND:                -0.315
REMARK  Name = No_1145-gen_results/8p0m/2024-11-26-14-13-15/
REMARK  1 active torsions:
REMARK  status: ('A' for Active; 'I' for Inactive)
REMARK    1  A    between atoms: C_3  and  C_7
REMARK                            x       y       z     vdW  Elec       q    Type
REMARK                         _______ _______ _______ _____ _____    ______ ____
ROOT
ATOM      1  C   UNL A   1     -26.516  -3.541  29.943  0.00  0.00    +0.000 A 
ATOM      2  C   UNL A   1     -25.851  -2.560  29.704  0.00  0.00    +0.000 A 
ATOM      3  C   UNL A   1     -24.616  -2.605  29.057  0.00  0.00    +0.000 A 
ATOM      4  C   UNL A   1     -24.055  -3.892  28.695  0.00  0.00    +0.000 A 
ATOM      5  C   UNL A   1     -24.846  -4.997  29.006  0.00  0.00    +0.000 A 
ATOM      6  C   UNL A   1     -26.000  -4.864  29.631  0.00  0.00    +0.000 A 
ENDROOT
BRANCH   3   7
ATOM      7  C   UNL A   1     -23.745  -1.441  28.722  0.00  0.00    +0.000 A 
ATOM      8  C   UNL A   1     -22.584  -1.266  29.278  0.00  0.00    +0.000 A 
ATOM      9  C   UNL A   1     -21.792  -0.099  29.004  0.00  0.00    +0.000 A 
ATOM     10  C   UNL A   1     -22.237   0.941  28.264  0.00  0.00    +0.000 A 
ATOM     11  C   UNL A   1     -24.280  -0.338  27.909  0.00  0.00    +0.000 A 
ATOM     12  C   UNL A   1     -23.492   0.832  27.700  0.00  0.00    +0.000 A 
ENDBRANCH   3   7
TORSDOF 1
ENDMDL
ENDMDL
