REMARK  Name = No_1146-gen_results/8p0m/2024-11-26-14-13-15/
REMARK  1 active torsions:
REMARK  status: ('A' for Active; 'I' for Inactive)
REMARK    1  A    between atoms: C_5  and  C_12
REMARK                            x       y       z     vdW  Elec       q    Type
REMARK                         _______ _______ _______ _____ _____    ______ ____
ROOT
ATOM      1  C   UNL A   1     -28.016  -0.814  28.878  0.00  0.00    +0.002 A 
ATOM      2  C   UNL A   1     -27.064  -0.119  28.608  0.00  0.00    +0.028 A 
ATOM      3  C   UNL A   1     -26.972   0.714  27.506  0.00  0.00    +0.140 A 
ATOM      4  C   UNL A   1     -25.820   1.491  27.116  0.00  0.00    +0.036 A 
ATOM      5  C   UNL A   1     -24.656   1.424  27.918  0.00  0.00    +0.082 A 
ATOM      6  C   UNL A   1     -24.711   0.542  29.051  0.00  0.00    +0.007 A 
ATOM      7  C   UNL A   1     -25.804  -0.206  29.388  0.00  0.00    +0.002 A 
ATOM      8  C   UNL A   1     -28.031  -1.590  30.149  0.00  0.00    +0.000 A 
ATOM      9  C   UNL A   1     -26.810  -1.796  30.851  0.00  0.00    +0.000 A 
ATOM     10  C   UNL A   1     -25.696  -1.068  30.503  0.00  0.00    +0.000 A 
ATOM     11  F   UNL A   1     -28.066   0.896  26.877  0.00  0.00    -0.204 F 
ENDROOT
BRANCH   5  12
ATOM     12  C   UNL A   1     -23.440   2.181  27.573  0.00  0.00    +0.388 C 
ATOM     13  O   UNL A   1     -23.254   2.621  26.453  0.00  0.00    -0.241 OA
ATOM     14  O   UNL A   1     -22.512   2.294  28.494  0.00  0.00    -0.241 OA
ENDBRANCH   5  12
TORSDOF 1
