MODEL 1146
MODEL 1
REMARK VINA RESULT:    -6.528      0.000      0.000
REMARK INTER + INTRA:          -6.980
REMARK INTER:                  -6.910
REMARK INTRA:                  -0.071
REMARK UNBOUND:                -0.071
REMARK  Name = No_1146-gen_results/8p0m/2024-11-26-14-13-15/
REMARK  1 active torsions:
REMARK  status: ('A' for Active; 'I' for Inactive)
REMARK    1  A    between atoms: C_5  and  C_12
REMARK                            x       y       z     vdW  Elec       q    Type
REMARK                         _______ _______ _______ _____ _____    ______ ____
ROOT
ATOM      1  C   UNL A   1     -30.718  -9.755  29.797  0.00  0.00    +0.002 A 
ATOM      2  C   UNL A   1     -30.011 -10.198  30.672  0.00  0.00    +0.028 A 
ATOM      3  C   UNL A   1     -29.931  -9.699  31.961  0.00  0.00    +0.140 A 
ATOM      4  C   UNL A   1     -29.039 -10.156  33.000  0.00  0.00    +0.036 A 
ATOM      5  C   UNL A   1     -28.151 -11.219  32.710  0.00  0.00    +0.082 A 
ATOM      6  C   UNL A   1     -28.189 -11.735  31.370  0.00  0.00    +0.007 A 
ATOM      7  C   UNL A   1     -29.024 -11.270  30.392  0.00  0.00    +0.002 A 
ATOM      8  C   UNL A   1     -30.788 -10.446  28.479  0.00  0.00    +0.000 A 
ATOM      9  C   UNL A   1     -29.778 -11.387  28.134  0.00  0.00    +0.000 A 
ATOM     10  C   UNL A   1     -28.915 -11.842  29.104  0.00  0.00    +0.000 A 
ATOM     11  F   UNL A   1     -30.835  -8.854  32.267  0.00  0.00    -0.204 F 
ENDROOT
BRANCH   5  12
ATOM     12  C   UNL A   1     -27.206 -11.727  33.719  0.00  0.00    +0.388 C 
ATOM     13  O   UNL A   1     -26.746 -12.853  33.657  0.00  0.00    -0.241 OA
ATOM     14  O   UNL A   1     -26.937 -10.955  34.745  0.00  0.00    -0.241 OA
ENDBRANCH   5  12
TORSDOF 1
ENDMDL
ENDMDL
