REMARK  Name = No_1147-gen_results/8p0m/2024-11-26-14-13-15/
REMARK  1 active torsions:
REMARK  status: ('A' for Active; 'I' for Inactive)
REMARK    1  A    between atoms: C_1  and  C_2
REMARK                            x       y       z     vdW  Elec       q    Type
REMARK                         _______ _______ _______ _____ _____    ______ ____
ROOT
ATOM      1  C   UNL A   1     -27.064  -0.119  28.608  0.00  0.00    +0.042 A 
ATOM      2  C   UNL A   1     -25.765  -0.390  29.036  0.00  0.00    +0.003 A 
ATOM      3  C   UNL A   1     -24.552   0.406  28.765  0.00  0.00    +0.000 A 
ATOM      4  C   UNL A   1     -24.696   1.448  27.799  0.00  0.00    +0.000 A 
ATOM      5  C   UNL A   1     -25.976   1.725  27.308  0.00  0.00    +0.000 A 
ATOM      6  C   UNL A   1     -27.072   1.013  27.654  0.00  0.00    +0.003 A 
ENDROOT
BRANCH   1   7
ATOM      7  C   UNL A   1     -28.016  -0.814  28.878  0.00  0.00    +0.234 C 
ATOM      8  O   UNL A   1     -29.131  -0.315  28.764  0.00  0.00    -0.283 OA
ENDBRANCH   1   7
TORSDOF 1
