MODEL 1147
MODEL 1
REMARK VINA RESULT:    -4.550      0.000      0.000
REMARK INTER + INTRA:          -4.839
REMARK INTER:                  -4.816
REMARK INTRA:                  -0.022
REMARK UNBOUND:                -0.022
REMARK  Name = No_1147-gen_results/8p0m/2024-11-26-14-13-15/
REMARK  1 active torsions:
REMARK  status: ('A' for Active; 'I' for Inactive)
REMARK    1  A    between atoms: C_1  and  C_2
REMARK                            x       y       z     vdW  Elec       q    Type
REMARK                         _______ _______ _______ _____ _____    ______ ____
ROOT
ATOM      1  C   UNL A   1     -24.413  -2.560  29.024  0.00  0.00    +0.042 A 
ATOM      2  C   UNL A   1     -23.985  -3.870  28.815  0.00  0.00    +0.003 A 
ATOM      3  C   UNL A   1     -24.778  -5.104  28.977  0.00  0.00    +0.000 A 
ATOM      4  C   UNL A   1     -26.051  -4.946  29.605  0.00  0.00    +0.000 A 
ATOM      5  C   UNL A   1     -26.501  -3.650  29.874  0.00  0.00    +0.000 A 
ATOM      6  C   UNL A   1     -25.764  -2.544  29.629  0.00  0.00    +0.003 A 
ENDROOT
BRANCH   1   7
ATOM      7  C   UNL A   1     -23.707  -1.591  28.861  0.00  0.00    +0.234 C 
ATOM      8  O   UNL A   1     -22.494  -1.755  28.946  0.00  0.00    -0.283 OA
ENDBRANCH   1   7
TORSDOF 1
ENDMDL
ENDMDL
