REMARK  Name = No_1148-gen_results/8p0m/2024-11-26-14-13-15/
REMARK  13 active torsions:
REMARK  status: ('A' for Active; 'I' for Inactive)
REMARK    1  A    between atoms: C_2  and  O_23
REMARK    2  A    between atoms: C_3  and  C_4
REMARK    3  A    between atoms: C_5  and  C_6
REMARK    4  A    between atoms: C_7  and  C_9
REMARK    5  A    between atoms: C_13  and  O_17
REMARK    6  A    between atoms: O_17  and  C_18
REMARK    7  A    between atoms: C_18  and  C_19
REMARK    8  A    between atoms: O_23  and  C_24
REMARK    9  A    between atoms: C_24  and  C_25
REMARK   10  A    between atoms: C_24  and  C_33
REMARK   11  A    between atoms: C_25  and  O_26
REMARK   12  A    between atoms: O_26  and  C_27
REMARK   13  A    between atoms: C_33  and  C_34
REMARK                            x       y       z     vdW  Elec       q    Type
REMARK                         _______ _______ _______ _____ _____    ______ ____
ROOT
ATOM      1  C   UNL A   1     -28.016  -0.814  28.878  0.00  0.00    +0.037 A 
ATOM      2  C   UNL A   1     -28.469  -0.785  29.829  0.00  0.00    +0.139 A 
ATOM      3  C   UNL A   1     -28.182   0.428  28.113  0.00  0.00    +0.006 A 
ATOM      4  C   UNL A   1     -29.437   0.078  30.444  0.00  0.00    +0.037 A 
ATOM      5  C   UNL A   1     -29.677   1.188  29.734  0.00  0.00    +0.003 A 
ATOM      6  C   UNL A   1     -29.058   1.397  28.551  0.00  0.00    +0.000 A 
ENDROOT
BRANCH   3   7
ATOM      7  C   UNL A   1     -27.450   0.643  26.850  0.00  0.00    +0.034 A 
ATOM      8  C   UNL A   1     -26.453   0.994  26.668  0.00  0.00    +0.004 A 
ATOM      9  C   UNL A   1     -28.495   0.578  25.829  0.00  0.00    +0.139 A 
ATOM     10  C   UNL A   1     -28.003   1.088  24.686  0.00  0.00    +0.037 A 
ATOM     11  C   UNL A   1     -26.699   2.233  25.763  0.00  0.00    +0.000 A 
ATOM     12  C   UNL A   1     -27.191   2.085  24.629  0.00  0.00    +0.003 A 
BRANCH   8  13
ATOM     13  C   UNL A   1     -25.181   0.863  26.817  0.00  0.00    +0.009 C 
ATOM     14  C   UNL A   1     -24.204   1.046  27.487  0.00  0.00    +0.050 C 
BRANCH  14  15
ATOM     15  C   UNL A   1     -23.207   1.172  27.898  0.00  0.00    -0.051 C 
ATOM     16  C   UNL A   1     -21.951   1.073  28.527  0.00  0.00    -0.009 C 
ENDBRANCH  14  15
ENDBRANCH   8  13
BRANCH   9  17
ATOM     17  O   UNL A   1     -29.580  -0.151  25.919  0.00  0.00    -0.468 OA
BRANCH  17  18
ATOM     18  C   UNL A   1     -30.691   0.178  25.167  0.00  0.00    +0.268 C 
ATOM     19  C   UNL A   1     -30.951  -0.927  24.226  0.00  0.00    +0.060 C 
BRANCH  18  20
ATOM     20  C   UNL A   1     -31.830   0.308  26.087  0.00  0.00    +0.404 C 
ATOM     21  O   UNL A   1     -32.779   0.846  25.665  0.00  0.00    -0.242 OA
ATOM     22  O   UNL A   1     -31.696   0.161  27.363  0.00  0.00    -0.242 OA
ENDBRANCH  18  20
ENDBRANCH  17  18
ENDBRANCH   9  17
ENDBRANCH   3   7
BRANCH   2  23
ATOM     23  O   UNL A   1     -28.281  -2.001  30.662  0.00  0.00    -0.475 OA
BRANCH  23  24
ATOM     24  C   UNL A   1     -27.851  -3.009  30.387  0.00  0.00    +0.209 C 
BRANCH  24  25
ATOM     25  C   UNL A   1     -28.627  -4.273  30.500  0.00  0.00    +0.248 C 
BRANCH  25  26
ATOM     26  O   UNL A   1     -29.817  -4.207  30.370  0.00  0.00    -0.472 OA
BRANCH  26  27
ATOM     27  C   UNL A   1     -30.583  -5.042  30.870  0.00  0.00    +0.139 A 
ATOM     28  C   UNL A   1     -31.636  -5.568  30.074  0.00  0.00    +0.037 A 
ATOM     29  C   UNL A   1     -31.933  -6.756  29.977  0.00  0.00    +0.003 A 
ATOM     30  C   UNL A   1     -31.640  -7.709  31.064  0.00  0.00    +0.000 A 
ATOM     31  C   UNL A   1     -30.692  -7.258  32.005  0.00  0.00    +0.003 A 
ATOM     32  C   UNL A   1     -30.127  -5.981  31.885  0.00  0.00    +0.037 A 
ENDBRANCH  26  27
ENDBRANCH  25  26
ENDBRANCH  24  25
BRANCH  24  33
ATOM     33  C   UNL A   1     -26.375  -3.080  30.977  0.00  0.00    +0.048 C 
BRANCH  33  34
ATOM     34  C   UNL A   1     -25.838  -1.758  30.716  0.00  0.00    +0.004 C 
ATOM     35  C   UNL A   1     -24.362  -1.826  30.252  0.00  0.00    +0.000 C 
ENDBRANCH  33  34
ENDBRANCH  24  33
ENDBRANCH  23  24
ENDBRANCH   2  23
TORSDOF 13
