MODEL 1149
MODEL 1
REMARK VINA RESULT:    -5.991      0.000      0.000
REMARK INTER + INTRA:          -6.493
REMARK INTER:                  -6.341
REMARK INTRA:                  -0.152
REMARK UNBOUND:                -0.152
REMARK  Name = No_1149-gen_results/8p0m/2024-11-26-14-13-15/
REMARK  1 active torsions:
REMARK  status: ('A' for Active; 'I' for Inactive)
REMARK    1  A    between atoms: C_3  and  C_7
REMARK                            x       y       z     vdW  Elec       q    Type
REMARK                         _______ _______ _______ _____ _____    ______ ____
ROOT
ATOM      1  C   UNL A   1     -24.732  -5.067  28.936  0.00  0.00    +0.000 A 
ATOM      2  C   UNL A   1     -24.011  -4.125  28.704  0.00  0.00    +0.001 A 
ATOM      3  C   UNL A   1     -24.309  -2.815  29.077  0.00  0.00    +0.014 A 
ATOM      4  C   UNL A   1     -25.575  -2.536  29.727  0.00  0.00    +0.001 A 
ATOM      5  C   UNL A   1     -26.385  -3.648  29.956  0.00  0.00    +0.000 A 
ATOM      6  C   UNL A   1     -26.028  -4.854  29.559  0.00  0.00    +0.000 A 
ENDROOT
BRANCH   3   7
ATOM      7  C   UNL A   1     -23.468  -1.607  28.835  0.00  0.00    +0.063 C 
ATOM      8  N   UNL A   1     -22.292  -1.496  29.221  0.00  0.00    -0.248 NA
ATOM      9  C   UNL A   1     -21.669  -0.305  29.026  0.00  0.00    +0.094 C 
ATOM     10  C   UNL A   1     -22.513   0.681  28.511  0.00  0.00    +0.001 C 
ATOM     11  C   UNL A   1     -23.907  -0.283  28.344  0.00  0.00    +0.073 C 
ENDBRANCH   3   7
TORSDOF 1
ENDMDL
ENDMDL
