MODEL 114
MODEL 1
REMARK VINA RESULT:    -5.865      0.000      0.000
REMARK INTER + INTRA:          -9.378
REMARK INTER:                  -8.266
REMARK INTRA:                  -1.112
REMARK UNBOUND:                -1.112
REMARK  Name = No_114-gen_results/8p0m/2024-11-26-14-13-15/
REMARK  7 active torsions:
REMARK  status: ('A' for Active; 'I' for Inactive)
REMARK    1  A    between atoms: C_5  and  C_8
REMARK    2  A    between atoms: C_6  and  C_12
REMARK    3  A    between atoms: C_8  and  C_9
REMARK    4  A    between atoms: C_12  and  O_14
REMARK    5  A    between atoms: O_14  and  C_15
REMARK    6  A    between atoms: C_15  and  C_16
REMARK    7  A    between atoms: C_17  and  C_18
REMARK                            x       y       z     vdW  Elec       q    Type
REMARK                         _______ _______ _______ _____ _____    ______ ____
ROOT
ATOM      1  F   UNL A   1     -32.706 -15.226   9.059  0.00  0.00    -0.204 F 
ATOM      2  C   UNL A   1     -31.681 -15.378   9.547  0.00  0.00    +0.140 A 
ATOM      3  C   UNL A   1     -31.399 -15.105  10.740  0.00  0.00    +0.036 A 
ATOM      4  C   UNL A   1     -30.614 -15.961   8.610  0.00  0.00    +0.026 A 
ATOM      5  C   UNL A   1     -29.275 -16.135   9.135  0.00  0.00    -0.011 A 
ATOM      6  C   UNL A   1     -29.997 -15.272  11.278  0.00  0.00    +0.078 A 
ATOM      7  C   UNL A   1     -28.986 -15.805  10.429  0.00  0.00    +0.003 A 
ENDROOT
BRANCH   6   8
ATOM      8  C   UNL A   1     -29.655 -15.003  12.707  0.00  0.00    +0.342 C 
ATOM      9  O   UNL A   1     -29.025 -15.720  13.282  0.00  0.00    -0.245 OA
BRANCH   8  10
ATOM     10  O   UNL A   1     -30.116 -13.886  13.204  0.00  0.00    -0.440 OA
BRANCH  10  11
ATOM     11  C   UNL A   1     -30.546 -12.977  12.909  0.00  0.00    +0.235 C 
BRANCH  11  12
ATOM     12  C   UNL A   1     -29.663 -11.922  12.458  0.00  0.00    +0.021 C 
ATOM     13  C   UNL A   1     -29.686 -11.478  11.150  0.00  0.00    -0.001 C 
BRANCH  13  14
ATOM     14  C   UNL A   1     -29.050 -12.031  10.323  0.00  0.00    -0.000 C 
ATOM     15  C   UNL A   1     -29.572 -12.178   8.921  0.00  0.00    -0.000 C 
ENDBRANCH  13  14
ENDBRANCH  11  12
ENDBRANCH  10  11
ENDBRANCH   8  10
ENDBRANCH   6   8
BRANCH   5  16
ATOM     16  C   UNL A   1     -28.218 -16.697   8.305  0.00  0.00    +0.115 C 
BRANCH  16  17
ATOM     17  C   UNL A   1     -27.225 -17.179   8.645  0.00  0.00    +0.265 C 
ATOM     18  N   UNL A   1     -27.120 -18.494   8.897  0.00  0.00    -0.087 NA
ATOM     19  O   UNL A   1     -26.108 -16.504   8.815  0.00  0.00    -0.271 OA
ENDBRANCH  16  17
ENDBRANCH   5  16
TORSDOF 7
ENDMDL
ENDMDL
