REMARK  Name = No_115-gen_results/8p0m/2024-11-26-14-13-15/
REMARK  1 active torsions:
REMARK  status: ('A' for Active; 'I' for Inactive)
REMARK    1  A    between atoms: C_1  and  C_2
REMARK                            x       y       z     vdW  Elec       q    Type
REMARK                         _______ _______ _______ _____ _____    ______ ____
ROOT
ATOM      1  C   UNL A   1     -27.064  -0.119  28.608  0.00  0.00    +0.071 A 
ATOM      2  C   UNL A   1     -27.001   0.691  27.491  0.00  0.00    +0.004 A 
ATOM      3  C   UNL A   1     -25.855   1.482  27.083  0.00  0.00    +0.007 A 
ATOM      4  C   UNL A   1     -24.690   1.453  27.881  0.00  0.00    +0.087 A 
ATOM      5  C   UNL A   1     -24.738   0.601  29.042  0.00  0.00    -0.010 A 
ATOM      6  C   UNL A   1     -25.823  -0.169  29.389  0.00  0.00    +0.000 A 
ATOM      7  C   UNL A   1     -23.520   2.209  27.583  0.00  0.00    +0.421 C 
ATOM      8  N   UNL A   1     -23.533   3.177  26.816  0.00  0.00    +0.198 NA
ATOM      9  N   UNL A   1     -22.278   1.776  28.014  0.00  0.00    +0.046 NA
ATOM     10  C   UNL A   1     -22.062   0.729  28.823  0.00  0.00    +0.406 C 
ATOM     11  C   UNL A   1     -22.848  -0.125  29.052  0.00  0.00    +0.074 C 
ATOM     12  C   UNL A   1     -23.607   0.084  29.779  0.00  0.00    +0.060 C 
ATOM     13  N   UNL A   1     -20.646   0.524  28.841  0.00  0.00    +0.214 NA
ENDROOT
BRANCH   1  14
ATOM     14  C   UNL A   1     -28.016  -0.814  28.878  0.00  0.00    +0.419 C 
ATOM     15  F   UNL A   1     -27.818  -1.996  29.255  0.00  0.00    -0.166 F 
ATOM     16  F   UNL A   1     -28.855  -0.218  29.855  0.00  0.00    -0.166 F 
ATOM     17  F   UNL A   1     -28.939  -0.801  27.872  0.00  0.00    -0.166 F 
ENDBRANCH   1  14
TORSDOF 1
