MODEL 1150
MODEL 1
REMARK VINA RESULT:    -7.966      0.000      0.000
REMARK INTER + INTRA:         -13.747
REMARK INTER:                 -12.158
REMARK INTRA:                  -1.590
REMARK UNBOUND:                -1.590
REMARK  Name = No_1150-gen_results/8p0m/2024-11-26-14-13-15/
REMARK  9 active torsions:
REMARK  status: ('A' for Active; 'I' for Inactive)
REMARK    1  A    between atoms: C_2  and  C_14
REMARK    2  A    between atoms: C_3  and  C_7
REMARK    3  A    between atoms: C_6  and  C_11
REMARK    4  A    between atoms: C_14  and  N_15
REMARK    5  A    between atoms: N_15  and  C_16
REMARK    6  A    between atoms: N_15  and  C_23
REMARK    7  A    between atoms: C_19  and  C_33
REMARK    8  A    between atoms: C_23  and  C_24
REMARK    9  A    between atoms: C_28  and  C_30
REMARK                            x       y       z     vdW  Elec       q    Type
REMARK                         _______ _______ _______ _____ _____    ______ ____
ROOT
ATOM      1  N   UNL A   1      -9.989   0.694  36.824  0.00  0.00    -0.285 N 
ENDROOT
BRANCH   1   2
ATOM      2  C   UNL A   1      -8.749   0.776  36.304  0.00  0.00    +0.134 A 
ATOM      3  C   UNL A   1      -7.965  -0.274  35.852  0.00  0.00    +0.034 A 
ATOM      4  N   UNL A   1      -8.380   2.053  35.949  0.00  0.00    -0.213 NA
ATOM      5  C   UNL A   1      -6.740   0.040  35.214  0.00  0.00    +0.005 A 
ATOM      6  C   UNL A   1      -7.171   2.346  35.433  0.00  0.00    +0.171 A 
ATOM      7  N   UNL A   1      -6.728   3.561  35.232  0.00  0.00    -0.107 NA
ATOM      8  C   UNL A   1      -6.260   1.264  35.020  0.00  0.00    +0.038 A 
BRANCH   5   9
ATOM      9  C   UNL A   1      -5.814  -1.143  34.826  0.00  0.00    -0.004 C 
ATOM     10  C   UNL A   1      -4.710  -1.070  34.512  0.00  0.00    -0.026 C 
ATOM     11  C   UNL A   1      -3.909  -2.240  34.010  0.00  0.00    +0.031 C 
ENDBRANCH   5   9
ENDBRANCH   1   2
BRANCH   1  12
ATOM     12  C   UNL A   1     -10.662   1.680  37.285  0.00  0.00    +0.119 C 
BRANCH  12  14
ATOM     13  C   UNL A   1     -12.778   2.615  37.059  0.00  0.00    +0.001 A 
ATOM     14  C   UNL A   1     -12.042   2.098  36.510  0.00  0.00    -0.002 A 
ATOM     15  C   UNL A   1     -13.989   2.931  36.356  0.00  0.00    +0.071 A 
ATOM     16  C   UNL A   1     -14.138   2.744  35.041  0.00  0.00    +0.010 A 
ATOM     17  C   UNL A   1     -11.982   1.810  35.084  0.00  0.00    +0.004 A 
ATOM     18  C   UNL A   1     -13.085   2.117  34.415  0.00  0.00    +0.080 A 
BRANCH  15  19
ATOM     19  C   UNL A   1     -15.124   3.579  37.166  0.00  0.00    +0.419 C 
ATOM     20  F   UNL A   1     -16.120   3.916  36.418  0.00  0.00    -0.166 F 
ATOM     21  F   UNL A   1     -14.711   4.745  37.783  0.00  0.00    -0.166 F 
ATOM     22  F   UNL A   1     -15.540   2.795  38.186  0.00  0.00    -0.166 F 
ENDBRANCH  15  19
BRANCH  18  23
ATOM     23  C   UNL A   1     -13.169   1.875  32.944  0.00  0.00    +0.388 C 
ATOM     24  O   UNL A   1     -12.520   1.013  32.430  0.00  0.00    -0.241 OA
ATOM     25  O   UNL A   1     -14.070   2.579  32.331  0.00  0.00    -0.241 OA
ENDBRANCH  18  23
ENDBRANCH  12  14
ENDBRANCH   1  12
BRANCH   1  26
ATOM     26  C   UNL A   1     -10.680  -0.576  36.864  0.00  0.00    +0.119 C 
BRANCH  26  27
ATOM     27  C   UNL A   1     -10.883  -1.225  38.243  0.00  0.00    -0.002 A 
ATOM     28  C   UNL A   1     -11.829  -2.137  38.286  0.00  0.00    -0.003 A 
ATOM     29  C   UNL A   1     -12.220  -2.618  39.534  0.00  0.00    -0.000 A 
ATOM     30  C   UNL A   1     -11.477  -2.240  40.672  0.00  0.00    +0.007 A 
ATOM     31  C   UNL A   1     -10.439  -1.329  40.551  0.00  0.00    +0.080 A 
ATOM     32  C   UNL A   1     -10.131  -0.782  39.331  0.00  0.00    +0.004 A 
BRANCH  31  33
ATOM     33  C   UNL A   1      -9.720  -0.926  41.800  0.00  0.00    +0.388 C 
ATOM     34  O   UNL A   1      -9.937  -1.490  42.764  0.00  0.00    -0.241 OA
ATOM     35  O   UNL A   1      -9.242   0.308  41.745  0.00  0.00    -0.241 OA
ENDBRANCH  31  33
ENDBRANCH  26  27
ENDBRANCH   1  26
TORSDOF 9
ENDMDL
ENDMDL
