REMARK  Name = No_1150-gen_results/8p0m/2024-11-26-14-13-15/
REMARK  9 active torsions:
REMARK  status: ('A' for Active; 'I' for Inactive)
REMARK    1  A    between atoms: C_2  and  C_14
REMARK    2  A    between atoms: C_3  and  C_7
REMARK    3  A    between atoms: C_6  and  C_11
REMARK    4  A    between atoms: C_14  and  N_15
REMARK    5  A    between atoms: N_15  and  C_16
REMARK    6  A    between atoms: N_15  and  C_23
REMARK    7  A    between atoms: C_19  and  C_33
REMARK    8  A    between atoms: C_23  and  C_24
REMARK    9  A    between atoms: C_28  and  C_30
REMARK                            x       y       z     vdW  Elec       q    Type
REMARK                         _______ _______ _______ _____ _____    ______ ____
ROOT
ATOM      1  N   UNL A   1     -27.598  -3.074  30.368  0.00  0.00    -0.285 N 
ENDROOT
BRANCH   1   2
ATOM      2  C   UNL A   1     -26.353  -3.020  29.858  0.00  0.00    +0.134 A 
ATOM      3  C   UNL A   1     -25.473  -1.950  29.922  0.00  0.00    +0.034 A 
ATOM      4  N   UNL A   1     -25.847  -4.247  29.498  0.00  0.00    -0.213 NA
ATOM      5  C   UNL A   1     -24.156  -2.145  29.438  0.00  0.00    +0.005 A 
ATOM      6  C   UNL A   1     -24.627  -4.401  28.948  0.00  0.00    +0.171 A 
ATOM      7  N   UNL A   1     -24.177  -5.524  28.450  0.00  0.00    -0.107 NA
ATOM      8  C   UNL A   1     -23.685  -3.268  28.908  0.00  0.00    +0.038 A 
BRANCH   5   9
ATOM      9  C   UNL A   1     -23.221  -0.907  29.399  0.00  0.00    -0.004 C 
ATOM     10  C   UNL A   1     -22.791  -0.349  30.309  0.00  0.00    -0.026 C 
ATOM     11  C   UNL A   1     -22.007   0.930  30.205  0.00  0.00    +0.031 C 
ENDBRANCH   5   9
ENDBRANCH   1   2
BRANCH   1  12
ATOM     12  C   UNL A   1     -28.254  -2.072  30.819  0.00  0.00    +0.119 C 
BRANCH  12  14
ATOM     13  C   UNL A   1     -28.016  -0.814  28.878  0.00  0.00    +0.001 A 
ATOM     14  C   UNL A   1     -28.469  -0.785  29.829  0.00  0.00    -0.002 A 
ATOM     15  C   UNL A   1     -28.196   0.348  28.055  0.00  0.00    +0.071 A 
ATOM     16  C   UNL A   1     -29.019   1.350  28.378  0.00  0.00    +0.010 A 
ATOM     17  C   UNL A   1     -29.411   0.180  30.378  0.00  0.00    +0.004 A 
ATOM     18  C   UNL A   1     -29.606   1.250  29.619  0.00  0.00    +0.080 A 
BRANCH  15  19
ATOM     19  C   UNL A   1     -27.448   0.380  26.712  0.00  0.00    +0.419 C 
ATOM     20  F   UNL A   1     -26.395  -0.366  26.728  0.00  0.00    -0.166 F 
ATOM     21  F   UNL A   1     -26.998   1.651  26.407  0.00  0.00    -0.166 F 
ATOM     22  F   UNL A   1     -28.246   0.053  25.671  0.00  0.00    -0.166 F 
ENDBRANCH  15  19
BRANCH  18  23
ATOM     23  C   UNL A   1     -30.544   2.326  30.055  0.00  0.00    +0.388 C 
ATOM     24  O   UNL A   1     -30.169   3.212  30.764  0.00  0.00    -0.241 OA
ATOM     25  O   UNL A   1     -31.720   2.272  29.509  0.00  0.00    -0.241 OA
ENDBRANCH  18  23
ENDBRANCH  12  14
ENDBRANCH   1  12
BRANCH   1  26
ATOM     26  C   UNL A   1     -28.316  -4.329  30.409  0.00  0.00    +0.119 C 
BRANCH  26  27
ATOM     27  C   UNL A   1     -29.849  -4.262  30.500  0.00  0.00    -0.002 A 
ATOM     28  C   UNL A   1     -30.470  -5.353  30.111  0.00  0.00    -0.003 A 
ATOM     29  C   UNL A   1     -31.854  -5.302  29.961  0.00  0.00    -0.000 A 
ATOM     30  C   UNL A   1     -32.543  -4.149  30.393  0.00  0.00    +0.007 A 
ATOM     31  C   UNL A   1     -31.835  -3.055  30.866  0.00  0.00    +0.080 A 
ATOM     32  C   UNL A   1     -30.464  -3.079  30.911  0.00  0.00    +0.004 A 
BRANCH  31  33
ATOM     33  C   UNL A   1     -32.616  -1.841  31.261  0.00  0.00    +0.388 C 
ATOM     34  O   UNL A   1     -33.012  -1.154  30.445  0.00  0.00    -0.241 OA
ATOM     35  O   UNL A   1     -32.392  -1.468  32.512  0.00  0.00    -0.241 OA
ENDBRANCH  31  33
ENDBRANCH  26  27
ENDBRANCH   1  26
TORSDOF 9
