REMARK  Name = No_1152-gen_results/8p0m/2024-11-26-14-13-15/
REMARK  1 active torsions:
REMARK  status: ('A' for Active; 'I' for Inactive)
REMARK    1  A    between atoms: C_4  and  C_11
REMARK                            x       y       z     vdW  Elec       q    Type
REMARK                         _______ _______ _______ _____ _____    ______ ____
ROOT
ATOM      1  C   UNL A   1     -28.016  -0.814  28.878  0.00  0.00    +0.045 C 
ATOM      2  C   UNL A   1     -28.469  -0.785  29.829  0.00  0.00    +0.094 C 
ATOM      3  C   UNL A   1     -27.087   0.290  28.638  0.00  0.00    -0.023 A 
ATOM      4  C   UNL A   1     -26.910   0.849  27.420  0.00  0.00    -0.004 A 
ATOM      5  N   UNL A   1     -27.890  -0.556  31.020  0.00  0.00    -0.213 NA
ATOM      6  C   UNL A   1     -25.826   1.595  27.170  0.00  0.00    -0.000 A 
ATOM      7  C   UNL A   1     -24.846   1.939  28.185  0.00  0.00    -0.000 A 
ATOM      8  C   UNL A   1     -25.022   1.334  29.410  0.00  0.00    -0.003 A 
ATOM      9  C   UNL A   1     -26.068   0.493  29.609  0.00  0.00    -0.009 A 
ATOM     10  C   UNL A   1     -26.706   0.278  30.942  0.00  0.00    +0.115 C 
ENDROOT
BRANCH   4  11
ATOM     11  C   UNL A   1     -27.293   0.203  26.192  0.00  0.00    -0.005 C 
ATOM     12  C   UNL A   1     -27.101   0.751  24.938  0.00  0.00    -0.026 C 
ATOM     13  C   UNL A   1     -26.129   1.736  24.798  0.00  0.00    +0.031 C 
ENDBRANCH   4  11
TORSDOF 1
