MODEL 1152
MODEL 1
REMARK VINA RESULT:    -5.633      0.000      0.000
REMARK INTER + INTRA:          -6.231
REMARK INTER:                  -5.962
REMARK INTRA:                  -0.269
REMARK UNBOUND:                -0.269
REMARK  Name = No_1152-gen_results/8p0m/2024-11-26-14-13-15/
REMARK  1 active torsions:
REMARK  status: ('A' for Active; 'I' for Inactive)
REMARK    1  A    between atoms: C_4  and  C_11
REMARK                            x       y       z     vdW  Elec       q    Type
REMARK                         _______ _______ _______ _____ _____    ______ ____
ROOT
ATOM      1  C   UNL A   1     -25.607  -0.315  27.344  0.00  0.00    +0.045 C 
ATOM      2  C   UNL A   1     -25.732   0.000  26.347  0.00  0.00    +0.094 C 
ATOM      3  C   UNL A   1     -24.208  -0.393  27.763  0.00  0.00    -0.023 A 
ATOM      4  C   UNL A   1     -23.753  -1.316  28.639  0.00  0.00    -0.004 A 
ATOM      5  N   UNL A   1     -25.125   1.019  25.713  0.00  0.00    -0.213 NA
ATOM      6  C   UNL A   1     -22.577  -1.142  29.255  0.00  0.00    -0.000 A 
ATOM      7  C   UNL A   1     -21.679  -0.040  28.958  0.00  0.00    -0.000 A 
ATOM      8  C   UNL A   1     -22.171   0.910  28.090  0.00  0.00    -0.003 A 
ATOM      9  C   UNL A   1     -23.413   0.769  27.561  0.00  0.00    -0.009 A 
ATOM     10  C   UNL A   1     -23.806   1.325  26.232  0.00  0.00    +0.115 C 
ENDROOT
BRANCH   4  11
ATOM     11  C   UNL A   1     -24.614  -2.048  29.531  0.00  0.00    -0.005 C 
ATOM     12  C   UNL A   1     -24.985  -3.365  29.340  0.00  0.00    -0.026 C 
ATOM     13  C   UNL A   1     -24.182  -4.158  28.527  0.00  0.00    +0.031 C 
ENDBRANCH   4  11
TORSDOF 1
ENDMDL
ENDMDL
