MODEL 1153
MODEL 1
REMARK VINA RESULT:    -5.417      0.000      0.000
REMARK INTER + INTRA:          -6.218
REMARK INTER:                  -6.050
REMARK INTRA:                  -0.168
REMARK UNBOUND:                -0.168
REMARK  Name = No_1153-gen_results/8p0m/2024-11-26-14-13-15/
REMARK  2 active torsions:
REMARK  status: ('A' for Active; 'I' for Inactive)
REMARK    1  A    between atoms: C_4  and  C_8
REMARK    2  A    between atoms: C_8  and  C_9
REMARK                            x       y       z     vdW  Elec       q    Type
REMARK                         _______ _______ _______ _____ _____    ______ ____
ROOT
ATOM      1  O   UNL A   1     -23.498   2.102  26.236  0.00  0.00    -0.296 OA
ATOM      2  C   UNL A   1     -23.221   1.314  27.148  0.00  0.00    +0.151 C 
ATOM      3  C   UNL A   1     -23.709   0.470  27.736  0.00  0.00    +0.065 C 
ATOM      4  C   UNL A   1     -23.115  -0.559  28.671  0.00  0.00    +0.012 C 
ATOM      5  C   UNL A   1     -21.784  -0.382  28.930  0.00  0.00    +0.001 C 
ATOM      6  C   UNL A   1     -21.104   0.601  28.269  0.00  0.00    +0.008 C 
ATOM      7  C   UNL A   1     -21.650   1.433  27.479  0.00  0.00    +0.065 C 
ENDROOT
BRANCH   4   8
ATOM      8  C   UNL A   1     -23.862  -1.591  29.390  0.00  0.00    +0.026 C 
BRANCH   8   9
ATOM      9  C   UNL A   1     -23.845  -2.902  28.914  0.00  0.00    -0.031 C 
ATOM     10  C   UNL A   1     -24.831  -3.848  29.204  0.00  0.00    -0.030 C 
ATOM     11  C   UNL A   1     -24.607  -5.185  28.887  0.00  0.00    +0.030 C 
ENDBRANCH   8   9
ENDBRANCH   4   8
TORSDOF 2
ENDMDL
ENDMDL
