MODEL 1154
MODEL 1
REMARK VINA RESULT:    -4.256      0.000      0.000
REMARK INTER + INTRA:          -4.256
REMARK INTER:                  -4.256
REMARK INTRA:                   0.000
REMARK UNBOUND:                 0.000
REMARK  Name = No_1154-gen_results/8p0m/2024-11-26-14-13-15/
REMARK  0 active torsions:
REMARK  status: ('A' for Active; 'I' for Inactive)
REMARK                            x       y       z     vdW  Elec       q    Type
REMARK                         _______ _______ _______ _____ _____    ______ ____
ROOT
ATOM      1  C   UNL A   1     -26.061  -4.854  29.652  0.00  0.00    +0.000 A 
ATOM      2  C   UNL A   1     -26.212  -3.657  29.725  0.00  0.00    +0.000 A 
ATOM      3  C   UNL A   1     -25.251  -2.741  29.344  0.00  0.00    +0.000 A 
ATOM      4  C   UNL A   1     -24.033  -3.238  28.800  0.00  0.00    +0.000 A 
ATOM      5  C   UNL A   1     -23.981  -4.572  28.581  0.00  0.00    +0.000 A 
ATOM      6  C   UNL A   1     -24.967  -5.371  28.941  0.00  0.00    +0.000 A 
ENDROOT
TORSDOF 0
ENDMDL
ENDMDL
