REMARK  Name = No_1155-gen_results/8p0m/2024-11-26-14-13-15/
REMARK  6 active torsions:
REMARK  status: ('A' for Active; 'I' for Inactive)
REMARK    1  A    between atoms: C_1  and  C_2
REMARK    2  A    between atoms: C_1  and  C_5
REMARK    3  A    between atoms: C_2  and  C_3
REMARK    4  A    between atoms: C_5  and  C_6
REMARK    5  A    between atoms: C_6  and  N_11
REMARK    6  A    between atoms: N_11  and  C_12
REMARK                            x       y       z     vdW  Elec       q    Type
REMARK                         _______ _______ _______ _____ _____    ______ ____
ROOT
ATOM      1  C   UNL A   1     -28.745  -0.366  29.843  0.00  0.00    +0.022 C 
ENDROOT
BRANCH   1   2
ATOM      2  C   UNL A   1     -28.016  -0.814  28.878  0.00  0.00    +0.006 C 
BRANCH   2   3
ATOM      3  C   UNL A   1     -27.064  -0.119  28.608  0.00  0.00    +0.026 C 
BRANCH   3   4
ATOM      4  C   UNL A   1     -27.001   0.691  27.491  0.00  0.00    -0.022 A 
ATOM      5  C   UNL A   1     -27.178   1.904  27.563  0.00  0.00    -0.004 A 
ATOM      6  C   UNL A   1     -26.642   0.080  26.200  0.00  0.00    -0.004 A 
ATOM      7  C   UNL A   1     -26.781   0.748  24.977  0.00  0.00    -0.000 A 
ATOM      8  C   UNL A   1     -27.318   2.728  26.330  0.00  0.00    -0.000 A 
ATOM      9  C   UNL A   1     -26.949   2.145  25.061  0.00  0.00    -0.000 A 
ENDBRANCH   3   4
ENDBRANCH   2   3
ENDBRANCH   1   2
BRANCH   1  10
ATOM     10  C   UNL A   1     -29.948  -1.105  30.139  0.00  0.00    +0.092 C 
BRANCH  10  11
ATOM     11  N   UNL A   1     -30.912  -0.807  29.379  0.00  0.00    -0.291 N 
ATOM     12  C   UNL A   1     -32.080  -1.765  29.292  0.00  0.00    +0.114 C 
BRANCH  11  13
ATOM     13  C   UNL A   1     -30.971   0.148  28.645  0.00  0.00    +0.132 A 
ATOM     14  C   UNL A   1     -31.930   0.247  27.525  0.00  0.00    +0.034 A 
ATOM     15  C   UNL A   1     -32.003   1.409  26.869  0.00  0.00    +0.004 A 
ATOM     16  C   UNL A   1     -31.101   2.443  27.120  0.00  0.00    +0.021 A 
ATOM     17  C   UNL A   1     -30.353   2.441  28.233  0.00  0.00    +0.100 A 
ATOM     18  N   UNL A   1     -30.293   1.313  28.898  0.00  0.00    -0.229 NA
ENDBRANCH  11  13
ENDBRANCH  10  11
ENDBRANCH   1  10
TORSDOF 6
