MODEL 1155
MODEL 1
REMARK VINA RESULT:    -5.938      0.000      0.000
REMARK INTER + INTRA:          -8.901
REMARK INTER:                  -8.021
REMARK INTRA:                  -0.881
REMARK UNBOUND:                -0.881
REMARK  Name = No_1155-gen_results/8p0m/2024-11-26-14-13-15/
REMARK  6 active torsions:
REMARK  status: ('A' for Active; 'I' for Inactive)
REMARK    1  A    between atoms: C_1  and  C_2
REMARK    2  A    between atoms: C_1  and  C_5
REMARK    3  A    between atoms: C_2  and  C_3
REMARK    4  A    between atoms: C_5  and  C_6
REMARK    5  A    between atoms: C_6  and  N_11
REMARK    6  A    between atoms: N_11  and  C_12
REMARK                            x       y       z     vdW  Elec       q    Type
REMARK                         _______ _______ _______ _____ _____    ______ ____
ROOT
ATOM      1  C   UNL A   1      -9.842   1.254  35.789  0.00  0.00    +0.022 C 
ENDROOT
BRANCH   1   2
ATOM      2  C   UNL A   1     -10.647   0.392  36.313  0.00  0.00    +0.006 C 
BRANCH   2   3
ATOM      3  C   UNL A   1     -10.098  -0.490  36.933  0.00  0.00    +0.026 C 
BRANCH   3   4
ATOM      4  C   UNL A   1     -10.702  -1.194  37.957  0.00  0.00    -0.022 A 
ATOM      5  C   UNL A   1     -11.488  -2.110  37.733  0.00  0.00    -0.004 A 
ATOM      6  C   UNL A   1     -10.328  -0.873  39.345  0.00  0.00    -0.004 A 
ATOM      7  C   UNL A   1     -11.041  -1.347  40.453  0.00  0.00    -0.000 A 
ATOM      8  C   UNL A   1     -12.288  -2.714  38.835  0.00  0.00    -0.000 A 
ATOM      9  C   UNL A   1     -11.917  -2.422  40.201  0.00  0.00    -0.000 A 
ENDBRANCH   3   4
ENDBRANCH   2   3
ENDBRANCH   1   2
BRANCH   1  10
ATOM     10  C   UNL A   1      -9.218   0.878  34.544  0.00  0.00    +0.092 C 
BRANCH  10  11
ATOM     11  N   UNL A   1      -7.970   1.073  34.538  0.00  0.00    -0.291 N 
ATOM     12  C   UNL A   1      -7.463   2.474  34.273  0.00  0.00    +0.114 C 
BRANCH  11  13
ATOM     13  C   UNL A   1      -7.117   0.228  34.653  0.00  0.00    +0.132 A 
ATOM     14  C   UNL A   1      -7.361  -1.206  34.393  0.00  0.00    +0.034 A 
ATOM     15  C   UNL A   1      -6.309  -2.030  34.414  0.00  0.00    +0.004 A 
ATOM     16  C   UNL A   1      -5.050  -1.590  34.821  0.00  0.00    +0.021 A 
ATOM     17  C   UNL A   1      -4.773  -0.280  34.888  0.00  0.00    +0.100 A 
ATOM     18  N   UNL A   1      -5.795   0.539  34.845  0.00  0.00    -0.229 NA
ENDBRANCH  11  13
ENDBRANCH  10  11
ENDBRANCH   1  10
TORSDOF 6
ENDMDL
ENDMDL
