MODEL 1157
MODEL 1
REMARK VINA RESULT:    -5.765      0.000      0.000
REMARK INTER + INTRA:          -6.244
REMARK INTER:                  -6.102
REMARK INTRA:                  -0.142
REMARK UNBOUND:                -0.142
REMARK  Name = No_1157-gen_results/8p0m/2024-11-26-14-13-15/
REMARK  1 active torsions:
REMARK  status: ('A' for Active; 'I' for Inactive)
REMARK    1  A    between atoms: C_10  and  C_12
REMARK                            x       y       z     vdW  Elec       q    Type
REMARK                         _______ _______ _______ _____ _____    ______ ____
ROOT
ATOM      1  C   UNL A   1     -23.103  -1.062  29.933  0.00  0.00    -0.000 A 
ATOM      2  C   UNL A   1     -23.027  -0.436  28.901  0.00  0.00    -0.000 A 
ATOM      3  C   UNL A   1     -24.071  -0.435  27.983  0.00  0.00    -0.003 A 
ATOM      4  C   UNL A   1     -25.258  -1.218  28.210  0.00  0.00    -0.000 A 
ATOM      5  C   UNL A   1     -25.253  -1.931  29.416  0.00  0.00    -0.000 A 
ATOM      6  C   UNL A   1     -24.233  -1.911  30.243  0.00  0.00    -0.000 A 
ATOM      7  C   UNL A   1     -21.869   0.403  28.490  0.00  0.00    +0.001 A 
ATOM      8  C   UNL A   1     -21.987   1.460  27.767  0.00  0.00    +0.011 A 
ATOM      9  C   UNL A   1     -23.140   1.509  26.771  0.00  0.00    +0.054 A 
ATOM     10  C   UNL A   1     -24.213   0.651  26.975  0.00  0.00    -0.012 A 
ATOM     11 CL   UNL A   1     -23.176   2.658  25.521  0.00  0.00    -0.083 Cl
ENDROOT
BRANCH  10  12
ATOM     12  C   UNL A   1     -25.340   0.743  26.013  0.00  0.00    +0.027 C 
ATOM     13  C   UNL A   1     -25.228  -0.048  24.794  0.00  0.00    +0.005 C 
ENDBRANCH  10  12
TORSDOF 1
ENDMDL
ENDMDL
