REMARK  Name = No_1158-gen_results/8p0m/2024-11-26-14-13-15/
REMARK  9 active torsions:
REMARK  status: ('A' for Active; 'I' for Inactive)
REMARK    1  A    between atoms: C_2  and  C_21
REMARK    2  A    between atoms: C_3  and  C_11
REMARK    3  A    between atoms: C_11  and  C_12
REMARK    4  A    between atoms: C_12  and  C_13
REMARK    5  A    between atoms: C_12  and  C_19
REMARK    6  A    between atoms: C_13  and  C_14
REMARK    7  A    between atoms: C_14  and  C_15
REMARK    8  A    between atoms: C_19  and  C_20
REMARK    9  A    between atoms: C_20  and  C_24
REMARK                            x       y       z     vdW  Elec       q    Type
REMARK                         _______ _______ _______ _____ _____    ______ ____
ROOT
ATOM      1  C   UNL A   1     -26.121   0.255  26.650  0.00  0.00    +0.005 C 
ENDROOT
BRANCH   1   2
ATOM      2  C   UNL A   1     -25.717  -0.701  27.619  0.00  0.00    +0.026 C 
BRANCH   2   5
ATOM      3  C   UNL A   1     -28.016  -0.814  28.878  0.00  0.00    +0.002 A 
ATOM      4  C   UNL A   1     -28.469  -0.785  29.829  0.00  0.00    +0.080 A 
ATOM      5  C   UNL A   1     -26.504  -0.778  28.877  0.00  0.00    -0.022 A 
ATOM      6  C   UNL A   1     -25.810  -0.853  30.103  0.00  0.00    -0.004 A 
ATOM      7  C   UNL A   1     -27.991  -0.892  31.226  0.00  0.00    +0.007 A 
ATOM      8  C   UNL A   1     -26.604  -0.868  31.265  0.00  0.00    -0.000 A 
ATOM      9  C   UNL A   1     -24.389  -0.805  30.164  0.00  0.00    -0.000 A 
ATOM     10  C   UNL A   1     -23.766  -0.950  31.068  0.00  0.00    -0.000 A 
ATOM     11  C   UNL A   1     -24.487  -1.029  32.385  0.00  0.00    -0.000 A 
ATOM     12  C   UNL A   1     -25.837  -0.926  32.468  0.00  0.00    -0.000 A 
BRANCH   4  13
ATOM     13  C   UNL A   1     -30.107  -0.785  29.826  0.00  0.00    +0.388 C 
ATOM     14  O   UNL A   1     -30.725  -1.554  30.201  0.00  0.00    -0.241 OA
ATOM     15  O   UNL A   1     -30.586   0.284  29.198  0.00  0.00    -0.241 OA
ENDBRANCH   4  13
ENDBRANCH   2   5
ENDBRANCH   1   2
BRANCH   1  16
ATOM     16  C   UNL A   1     -25.861   1.543  26.768  0.00  0.00    +0.009 C 
BRANCH  16  17
ATOM     17  C   UNL A   1     -24.563   1.903  26.998  0.00  0.00    +0.073 C 
ATOM     18  C   UNL A   1     -23.648   2.045  25.790  0.00  0.00    +0.009 C 
BRANCH  17  19
ATOM     19  C   UNL A   1     -23.842   1.916  28.200  0.00  0.00    +0.230 C 
ATOM     20 CL   UNL A   1     -24.635   2.294  29.557  0.00  0.00    -0.043 Cl
ATOM     21  O   UNL A   1     -22.542   1.822  28.296  0.00  0.00    -0.279 OA
ENDBRANCH  17  19
ENDBRANCH  16  17
ENDBRANCH   1  16
BRANCH   1  22
ATOM     22  C   UNL A   1     -26.764  -0.272  25.496  0.00  0.00    +0.005 C 
BRANCH  22  23
ATOM     23  C   UNL A   1     -27.237   0.638  24.534  0.00  0.00    +0.026 C 
BRANCH  23  24
ATOM     24  C   UNL A   1     -28.583   1.064  24.649  0.00  0.00    -0.022 A 
ATOM     25  C   UNL A   1     -29.422   0.417  25.254  0.00  0.00    -0.004 A 
ATOM     26  C   UNL A   1     -30.788   0.893  25.460  0.00  0.00    -0.000 A 
ATOM     27  C   UNL A   1     -31.139   2.062  24.881  0.00  0.00    -0.000 A 
ATOM     28  C   UNL A   1     -30.264   2.796  24.048  0.00  0.00    -0.000 A 
ATOM     29  C   UNL A   1     -28.930   2.343  23.981  0.00  0.00    -0.004 A 
ENDBRANCH  23  24
ENDBRANCH  22  23
ENDBRANCH   1  22
TORSDOF 9
