MODEL 1158
MODEL 1
REMARK VINA RESULT:    -6.350      0.000      0.000
REMARK INTER + INTRA:         -14.395
REMARK INTER:                  -9.691
REMARK INTRA:                  -4.704
REMARK UNBOUND:                -4.704
REMARK  Name = No_1158-gen_results/8p0m/2024-11-26-14-13-15/
REMARK  9 active torsions:
REMARK  status: ('A' for Active; 'I' for Inactive)
REMARK    1  A    between atoms: C_2  and  C_21
REMARK    2  A    between atoms: C_3  and  C_11
REMARK    3  A    between atoms: C_11  and  C_12
REMARK    4  A    between atoms: C_12  and  C_13
REMARK    5  A    between atoms: C_12  and  C_19
REMARK    6  A    between atoms: C_13  and  C_14
REMARK    7  A    between atoms: C_14  and  C_15
REMARK    8  A    between atoms: C_19  and  C_20
REMARK    9  A    between atoms: C_20  and  C_24
REMARK                            x       y       z     vdW  Elec       q    Type
REMARK                         _______ _______ _______ _____ _____    ______ ____
ROOT
ATOM      1  C   UNL A   1     -26.795   1.189  27.204  0.00  0.00    +0.005 C 
ENDROOT
BRANCH   1   2
ATOM      2  C   UNL A   1     -25.669   0.553  26.617  0.00  0.00    +0.026 C 
BRANCH   2   5
ATOM      3  C   UNL A   1     -25.385  -1.654  28.006  0.00  0.00    +0.002 A 
ATOM      4  C   UNL A   1     -24.752  -2.163  28.678  0.00  0.00    +0.080 A 
ATOM      5  C   UNL A   1     -24.855  -0.337  27.484  0.00  0.00    -0.022 A 
ATOM      6  C   UNL A   1     -23.535   0.050  27.799  0.00  0.00    -0.004 A 
ATOM      7  C   UNL A   1     -23.353  -2.001  29.133  0.00  0.00    +0.007 A 
ATOM      8  C   UNL A   1     -22.829  -0.803  28.668  0.00  0.00    -0.000 A 
ATOM      9  C   UNL A   1     -22.990   1.286  27.352  0.00  0.00    -0.000 A 
ATOM     10  C   UNL A   1     -21.942   1.623  27.473  0.00  0.00    -0.000 A 
ATOM     11  C   UNL A   1     -21.054   0.780  28.345  0.00  0.00    -0.000 A 
ATOM     12  C   UNL A   1     -21.509  -0.341  28.958  0.00  0.00    -0.000 A 
BRANCH   4  13
ATOM     13  C   UNL A   1     -25.345  -3.570  29.271  0.00  0.00    +0.388 C 
ATOM     14  O   UNL A   1     -26.282  -3.697  29.738  0.00  0.00    -0.241 OA
ATOM     15  O   UNL A   1     -24.448  -4.547  29.176  0.00  0.00    -0.241 OA
ENDBRANCH   4  13
ENDBRANCH   2   5
ENDBRANCH   1   2
BRANCH   1  16
ATOM     16  C   UNL A   1     -28.035   0.819  26.949  0.00  0.00    +0.009 C 
BRANCH  16  17
ATOM     17  C   UNL A   1     -28.457   0.889  25.651  0.00  0.00    +0.073 C 
ATOM     18  C   UNL A   1     -28.272   2.212  24.922  0.00  0.00    +0.009 C 
BRANCH  17  19
ATOM     19  C   UNL A   1     -29.285   0.012  24.935  0.00  0.00    +0.230 C 
ATOM     20 CL   UNL A   1     -29.349   0.171  23.328  0.00  0.00    -0.043 Cl
ATOM     21  O   UNL A   1     -30.148  -0.810  25.471  0.00  0.00    -0.279 OA
ENDBRANCH  17  19
ENDBRANCH  16  17
ENDBRANCH   1  16
BRANCH   1  22
ATOM     22  C   UNL A   1     -26.502   2.211  28.149  0.00  0.00    +0.005 C 
BRANCH  22  23
ATOM     23  C   UNL A   1     -26.953   2.034  29.469  0.00  0.00    +0.026 C 
BRANCH  23  24
ATOM     24  C   UNL A   1     -26.092   1.351  30.363  0.00  0.00    -0.022 A 
ATOM     25  C   UNL A   1     -26.442   0.351  30.968  0.00  0.00    -0.004 A 
ATOM     26  C   UNL A   1     -25.534  -0.416  31.818  0.00  0.00    -0.000 A 
ATOM     27  C   UNL A   1     -24.282   0.064  31.991  0.00  0.00    -0.000 A 
ATOM     28  C   UNL A   1     -23.850   1.290  31.437  0.00  0.00    -0.000 A 
ATOM     29  C   UNL A   1     -24.734   1.923  30.539  0.00  0.00    -0.004 A 
ENDBRANCH  23  24
ENDBRANCH  22  23
ENDBRANCH   1  22
TORSDOF 9
ENDMDL
ENDMDL
