REMARK  Name = No_1159-gen_results/8p0m/2024-11-26-14-13-15/
REMARK  4 active torsions:
REMARK  status: ('A' for Active; 'I' for Inactive)
REMARK    1  A    between atoms: C_3  and  C_4
REMARK    2  A    between atoms: C_10  and  C_13
REMARK    3  A    between atoms: C_13  and  O_15
REMARK    4  A    between atoms: O_15  and  C_17
REMARK                            x       y       z     vdW  Elec       q    Type
REMARK                         _______ _______ _______ _____ _____    ______ ____
ROOT
ATOM      1  C   UNL A   1     -28.016  -0.814  28.878  0.00  0.00    +0.006 A 
ATOM      2  C   UNL A   1     -27.064  -0.119  28.608  0.00  0.00    +0.000 A 
ATOM      3  C   UNL A   1     -25.765  -0.390  29.036  0.00  0.00    +0.000 A 
ATOM      4  C   UNL A   1     -27.898  -1.894  29.857  0.00  0.00    +0.076 A 
ATOM      5  C   UNL A   1     -26.655  -2.340  30.274  0.00  0.00    +0.006 A 
ATOM      6  C   UNL A   1     -25.532  -1.559  29.913  0.00  0.00    +0.000 A 
ENDROOT
BRANCH   3   7
ATOM      7  C   UNL A   1     -24.552   0.406  28.765  0.00  0.00    +0.003 A 
ATOM      8  C   UNL A   1     -24.696   1.448  27.799  0.00  0.00    +0.042 A 
ATOM      9  C   UNL A   1     -23.582   2.217  27.463  0.00  0.00    +0.196 A 
ATOM     10  C   UNL A   1     -22.329   1.843  27.966  0.00  0.00    +0.042 A 
ATOM     11  C   UNL A   1     -22.181   0.828  28.881  0.00  0.00    +0.003 A 
ATOM     12  C   UNL A   1     -23.319   0.077  29.247  0.00  0.00    +0.000 A 
ATOM     13  O   UNL A   1     -23.686   3.186  26.549  0.00  0.00    -0.287 OA
ENDBRANCH   3   7
BRANCH   4  14
ATOM     14  C   UNL A   1     -29.061  -2.722  30.244  0.00  0.00    +0.346 C 
ATOM     15  O   UNL A   1     -28.973  -3.929  30.275  0.00  0.00    -0.244 OA
BRANCH  14  16
ATOM     16  O   UNL A   1     -30.131  -2.162  30.601  0.00  0.00    -0.421 OA
BRANCH  16  17
ATOM     17  C   UNL A   1     -30.371  -1.087  30.921  0.00  0.00    +0.149 A 
ATOM     18  C   UNL A   1     -31.193  -0.372  30.195  0.00  0.00    +0.038 A 
ATOM     19  C   UNL A   1     -31.385   1.058  30.440  0.00  0.00    +0.003 A 
ATOM     20  C   UNL A   1     -30.722   1.631  31.534  0.00  0.00    +0.000 A 
ATOM     21  C   UNL A   1     -29.870   0.847  32.315  0.00  0.00    +0.003 A 
ATOM     22  C   UNL A   1     -29.643  -0.426  32.005  0.00  0.00    +0.038 A 
ENDBRANCH  16  17
ENDBRANCH  14  16
ENDBRANCH   4  14
TORSDOF 4
