MODEL 1159
MODEL 1
REMARK VINA RESULT:    -7.166      0.000      0.000
REMARK INTER + INTRA:          -9.715
REMARK INTER:                  -8.841
REMARK INTRA:                  -0.874
REMARK UNBOUND:                -0.874
REMARK  Name = No_1159-gen_results/8p0m/2024-11-26-14-13-15/
REMARK  4 active torsions:
REMARK  status: ('A' for Active; 'I' for Inactive)
REMARK    1  A    between atoms: C_3  and  C_4
REMARK    2  A    between atoms: C_10  and  C_13
REMARK    3  A    between atoms: C_13  and  O_15
REMARK    4  A    between atoms: O_15  and  C_17
REMARK                            x       y       z     vdW  Elec       q    Type
REMARK                         _______ _______ _______ _____ _____    ______ ____
ROOT
ATOM      1  C   UNL A   1     -26.005   2.543  25.582  0.00  0.00    +0.006 A 
ATOM      2  C   UNL A   1     -27.067   2.145  25.161  0.00  0.00    +0.000 A 
ATOM      3  C   UNL A   1     -27.264   0.860  24.657  0.00  0.00    +0.000 A 
ATOM      4  C   UNL A   1     -24.787   1.755  25.400  0.00  0.00    +0.076 A 
ATOM      5  C   UNL A   1     -24.854   0.425  25.017  0.00  0.00    +0.006 A 
ATOM      6  C   UNL A   1     -26.107  -0.060  24.576  0.00  0.00    +0.000 A 
ENDROOT
BRANCH   3   7
ATOM      7  C   UNL A   1     -28.515   0.297  24.114  0.00  0.00    +0.003 A 
ATOM      8  C   UNL A   1     -29.582   1.227  23.920  0.00  0.00    +0.042 A 
ATOM      9  C   UNL A   1     -30.808   0.760  23.447  0.00  0.00    +0.196 A 
ATOM     10  C   UNL A   1     -31.001  -0.622  23.326  0.00  0.00    +0.042 A 
ATOM     11  C   UNL A   1     -29.984  -1.524  23.531  0.00  0.00    +0.003 A 
ATOM     12  C   UNL A   1     -28.733  -1.042  23.973  0.00  0.00    +0.000 A 
ATOM     13  O   UNL A   1     -31.827   1.606  23.274  0.00  0.00    -0.287 OA
ENDBRANCH   3   7
BRANCH   4  14
ATOM     14  C   UNL A   1     -23.469   2.245  25.857  0.00  0.00    +0.346 C 
ATOM     15  O   UNL A   1     -22.678   2.710  25.067  0.00  0.00    -0.244 OA
BRANCH  14  16
ATOM     16  O   UNL A   1     -23.193   2.233  27.086  0.00  0.00    -0.421 OA
BRANCH  16  17
ATOM     17  C   UNL A   1     -22.736   1.431  27.767  0.00  0.00    +0.149 A 
ATOM     18  C   UNL A   1     -21.443   1.227  27.736  0.00  0.00    +0.038 A 
ATOM     19  C   UNL A   1     -20.830   0.095  28.432  0.00  0.00    +0.003 A 
ATOM     20  C   UNL A   1     -21.660  -0.727  29.206  0.00  0.00    +0.000 A 
ATOM     21  C   UNL A   1     -23.034  -0.479  29.250  0.00  0.00    +0.003 A 
ATOM     22  C   UNL A   1     -23.571   0.500  28.528  0.00  0.00    +0.038 A 
ENDBRANCH  16  17
ENDBRANCH  14  16
ENDBRANCH   4  14
TORSDOF 4
ENDMDL
ENDMDL
