MODEL 115
MODEL 1
REMARK VINA RESULT:    -6.909      0.000      0.000
REMARK INTER + INTRA:          -7.584
REMARK INTER:                  -7.313
REMARK INTRA:                  -0.272
REMARK UNBOUND:                -0.272
REMARK  Name = No_115-gen_results/8p0m/2024-11-26-14-13-15/
REMARK  1 active torsions:
REMARK  status: ('A' for Active; 'I' for Inactive)
REMARK    1  A    between atoms: C_1  and  C_2
REMARK                            x       y       z     vdW  Elec       q    Type
REMARK                         _______ _______ _______ _____ _____    ______ ____
ROOT
ATOM      1  C   UNL A   1     -23.106   1.575  26.694  0.00  0.00    +0.071 A 
ATOM      2  C   UNL A   1     -22.074   1.497  27.608  0.00  0.00    +0.004 A 
ATOM      3  C   UNL A   1     -22.070   0.687  28.812  0.00  0.00    +0.007 A 
ATOM      4  C   UNL A   1     -23.209  -0.092  29.111  0.00  0.00    +0.087 A 
ATOM      5  C   UNL A   1     -24.288  -0.030  28.158  0.00  0.00    -0.010 A 
ATOM      6  C   UNL A   1     -24.254   0.717  27.003  0.00  0.00    +0.000 A 
ATOM      7  C   UNL A   1     -23.317  -0.903  30.278  0.00  0.00    +0.421 C 
ATOM      8  N   UNL A   1     -22.591  -0.747  31.264  0.00  0.00    +0.198 NA
ATOM      9  N   UNL A   1     -24.136  -2.019  30.281  0.00  0.00    +0.046 NA
ATOM     10  C   UNL A   1     -24.970  -2.370  29.292  0.00  0.00    +0.406 C 
ATOM     11  C   UNL A   1     -24.924  -1.952  28.186  0.00  0.00    +0.074 C 
ATOM     12  C   UNL A   1     -25.358  -0.989  28.003  0.00  0.00    +0.060 C 
ATOM     13  N   UNL A   1     -25.457  -3.674  29.623  0.00  0.00    +0.214 NA
ENDROOT
BRANCH   1  14
ATOM     14  C   UNL A   1     -23.044   2.212  25.667  0.00  0.00    +0.419 C 
ATOM     15  F   UNL A   1     -23.521   3.374  25.644  0.00  0.00    -0.166 F 
ATOM     16  F   UNL A   1     -21.715   2.315  25.180  0.00  0.00    -0.166 F 
ATOM     17  F   UNL A   1     -23.527   1.495  24.611  0.00  0.00    -0.166 F 
ENDBRANCH   1  14
TORSDOF 1
ENDMDL
ENDMDL
