REMARK  Name = No_116-gen_results/8p0m/2024-11-26-14-13-15/
REMARK  2 active torsions:
REMARK  status: ('A' for Active; 'I' for Inactive)
REMARK    1  A    between atoms: C_2  and  C_10
REMARK    2  A    between atoms: C_5  and  C_7
REMARK                            x       y       z     vdW  Elec       q    Type
REMARK                         _______ _______ _______ _____ _____    ______ ____
ROOT
ATOM      1  C   UNL A   1     -28.016  -0.814  28.878  0.00  0.00    +0.001 A 
ATOM      2  C   UNL A   1     -27.064  -0.119  28.608  0.00  0.00    +0.044 A 
ATOM      3  C   UNL A   1     -26.972   0.714  27.506  0.00  0.00    +0.001 A 
ATOM      4  C   UNL A   1     -28.105   0.774  26.642  0.00  0.00    +0.006 A 
ATOM      5  C   UNL A   1     -29.201   0.104  27.053  0.00  0.00    +0.080 A 
ATOM      6  C   UNL A   1     -29.210  -0.603  28.185  0.00  0.00    +0.006 A 
ENDROOT
BRANCH   5   7
ATOM      7  C   UNL A   1     -30.375   0.223  26.167  0.00  0.00    +0.388 C 
ATOM      8  O   UNL A   1     -31.246  -0.419  26.360  0.00  0.00    -0.241 OA
ATOM      9  O   UNL A   1     -30.334   1.000  25.092  0.00  0.00    -0.241 OA
ENDBRANCH   5   7
BRANCH   2  10
ATOM     10  C   UNL A   1     -25.698  -0.220  29.431  0.00  0.00    +0.341 C 
ATOM     11  F   UNL A   1     -25.468   0.807  30.086  0.00  0.00    -0.193 F 
ATOM     12  F   UNL A   1     -24.924  -1.069  29.250  0.00  0.00    -0.193 F 
ENDBRANCH   2  10
TORSDOF 2
