MODEL 1160
MODEL 1
REMARK VINA RESULT:    -7.162      0.000      0.000
REMARK INTER + INTRA:          -7.162
REMARK INTER:                  -7.162
REMARK INTRA:                   0.000
REMARK UNBOUND:                 0.000
REMARK  Name = No_1160-gen_results/8p0m/2024-11-26-14-13-15/
REMARK  0 active torsions:
REMARK  status: ('A' for Active; 'I' for Inactive)
REMARK                            x       y       z     vdW  Elec       q    Type
REMARK                         _______ _______ _______ _____ _____    ______ ____
ROOT
ATOM      1  C   UNL A   1     -25.799   1.467  31.439  0.00  0.00    -0.000 A 
ATOM      2  C   UNL A   1     -24.816   1.845  31.450  0.00  0.00    -0.000 A 
ATOM      3  C   UNL A   1     -26.005   0.216  30.615  0.00  0.00    -0.004 A 
ATOM      4  C   UNL A   1     -24.886  -0.431  30.050  0.00  0.00    -0.024 A 
ATOM      5  C   UNL A   1     -23.496   1.359  30.989  0.00  0.00    -0.003 A 
ATOM      6  C   UNL A   1     -25.002  -1.610  29.278  0.00  0.00    +0.037 C 
ATOM      7  C   UNL A   1     -23.643   0.169  30.234  0.00  0.00    -0.006 A 
ATOM      8  C   UNL A   1     -25.558  -1.422  27.971  0.00  0.00    +0.010 C 
ATOM      9  C   UNL A   1     -25.310  -0.492  27.130  0.00  0.00    +0.028 C 
ATOM     10  C   UNL A   1     -24.218   0.381  27.344  0.00  0.00    -0.009 A 
ATOM     11  C   UNL A   1     -23.940   1.439  26.361  0.00  0.00    -0.003 A 
ATOM     12  C   UNL A   1     -22.752   2.109  26.301  0.00  0.00    -0.000 A 
ATOM     13  C   UNL A   1     -21.826   1.871  27.350  0.00  0.00    +0.001 A 
ATOM     14  C   UNL A   1     -22.025   0.799  28.178  0.00  0.00    +0.014 A 
ATOM     15  C   UNL A   1     -23.129   0.050  28.118  0.00  0.00    +0.044 A 
ATOM     16  N   UNL A   1     -23.148  -0.917  28.696  0.00  0.00    -0.303 N 
ATOM     17  C   UNL A   1     -22.600  -0.453  29.649  0.00  0.00    +0.117 C 
ATOM     18  C   UNL A   1     -23.553  -2.148  29.133  0.00  0.00    +0.095 C 
ATOM     19  C   UNL A   1     -25.749  -2.682  30.143  0.00  0.00    +0.006 C 
ENDROOT
TORSDOF 0
ENDMDL
ENDMDL
