REMARK  Name = No_1160-gen_results/8p0m/2024-11-26-14-13-15/
REMARK  0 active torsions:
REMARK  status: ('A' for Active; 'I' for Inactive)
REMARK                            x       y       z     vdW  Elec       q    Type
REMARK                         _______ _______ _______ _____ _____    ______ ____
ROOT
ATOM      1  C   UNL A   1     -28.016  -0.814  28.878  0.00  0.00    -0.000 A 
ATOM      2  C   UNL A   1     -28.469  -0.785  29.829  0.00  0.00    -0.000 A 
ATOM      3  C   UNL A   1     -26.504  -0.778  28.877  0.00  0.00    -0.004 A 
ATOM      4  C   UNL A   1     -25.810  -0.853  30.103  0.00  0.00    -0.024 A 
ATOM      5  C   UNL A   1     -27.991  -0.892  31.226  0.00  0.00    -0.003 A 
ATOM      6  C   UNL A   1     -24.398  -0.836  30.177  0.00  0.00    +0.037 C 
ATOM      7  C   UNL A   1     -26.575  -0.890  31.266  0.00  0.00    -0.006 A 
ATOM      8  C   UNL A   1     -23.796   0.436  29.909  0.00  0.00    +0.010 C 
ATOM      9  C   UNL A   1     -24.169   1.590  30.314  0.00  0.00    +0.028 C 
ATOM     10  C   UNL A   1     -25.158   1.702  31.318  0.00  0.00    -0.009 A 
ATOM     11  C   UNL A   1     -25.567   3.037  31.779  0.00  0.00    -0.003 A 
ATOM     12  C   UNL A   1     -26.255   3.248  32.940  0.00  0.00    -0.000 A 
ATOM     13  C   UNL A   1     -26.728   2.098  33.625  0.00  0.00    +0.001 A 
ATOM     14  C   UNL A   1     -26.236   0.869  33.274  0.00  0.00    +0.014 A 
ATOM     15  C   UNL A   1     -25.430   0.701  32.223  0.00  0.00    +0.044 A 
ATOM     16  N   UNL A   1     -24.918  -0.296  32.099  0.00  0.00    -0.303 N 
ATOM     17  C   UNL A   1     -25.881  -0.922  32.422  0.00  0.00    +0.117 C 
ATOM     18  C   UNL A   1     -24.060  -1.254  31.633  0.00  0.00    +0.095 C 
ATOM     19  C   UNL A   1     -23.854  -2.002  29.283  0.00  0.00    +0.006 C 
ENDROOT
TORSDOF 0
