REMARK  Name = No_1161-gen_results/8p0m/2024-11-26-14-13-15/
REMARK  6 active torsions:
REMARK  status: ('A' for Active; 'I' for Inactive)
REMARK    1  A    between atoms: C_1  and  O_16
REMARK    2  A    between atoms: C_2  and  C_8
REMARK    3  A    between atoms: O_16  and  C_17
REMARK    4  A    between atoms: C_17  and  C_18
REMARK    5  A    between atoms: C_17  and  C_23
REMARK    6  A    between atoms: C_18  and  C_20
REMARK                            x       y       z     vdW  Elec       q    Type
REMARK                         _______ _______ _______ _____ _____    ______ ____
ROOT
ATOM      1  C   UNL A   1     -28.016  -0.814  28.878  0.00  0.00    +0.141 A 
ATOM      2  C   UNL A   1     -27.064  -0.119  28.608  0.00  0.00    +0.037 A 
ATOM      3  C   UNL A   1     -26.972   0.714  27.506  0.00  0.00    +0.017 A 
ATOM      4  C   UNL A   1     -28.105   0.774  26.642  0.00  0.00    +0.085 A 
ATOM      5  C   UNL A   1     -29.201   0.104  27.053  0.00  0.00    +0.154 A 
ATOM      6  C   UNL A   1     -29.210  -0.603  28.185  0.00  0.00    +0.067 A 
ATOM      7  F   UNL A   1     -30.389   0.216  26.431  0.00  0.00    -0.203 F 
ATOM      8 CL   UNL A   1     -28.055   1.780  25.262  0.00  0.00    -0.080 Cl
ENDROOT
BRANCH   2   9
ATOM      9  C   UNL A   1     -25.700  -0.232  29.379  0.00  0.00    +0.030 A 
ATOM     10  C   UNL A   1     -25.349  -1.131  29.936  0.00  0.00    +0.002 A 
ATOM     11  C   UNL A   1     -24.081  -1.256  30.676  0.00  0.00    +0.000 A 
ATOM     12  C   UNL A   1     -23.189  -0.188  30.627  0.00  0.00    +0.002 A 
ATOM     13  C   UNL A   1     -23.591   0.955  29.846  0.00  0.00    +0.030 A 
ATOM     14  C   UNL A   1     -24.864   0.984  29.190  0.00  0.00    +0.140 A 
ATOM     15  F   UNL A   1     -25.045   2.032  28.479  0.00  0.00    -0.204 F 
ENDBRANCH   2   9
BRANCH   1  16
ATOM     16  O   UNL A   1     -28.080  -1.595  29.988  0.00  0.00    -0.469 OA
BRANCH  16  17
ATOM     17  C   UNL A   1     -28.854  -1.336  31.025  0.00  0.00    +0.255 C 
BRANCH  17  18
ATOM     18  C   UNL A   1     -30.189  -1.426  30.956  0.00  0.00    +0.230 C 
ATOM     19 CL   UNL A   1     -30.980  -0.933  31.341  0.00  0.00    -0.099 Cl
BRANCH  18  20
ATOM     20  C   UNL A   1     -30.283  -3.016  30.674  0.00  0.00    +0.383 C 
ATOM     21  O   UNL A   1     -30.918  -3.559  31.565  0.00  0.00    -0.244 OA
ATOM     22  O   UNL A   1     -30.009  -3.595  29.627  0.00  0.00    -0.244 OA
ENDBRANCH  18  20
ENDBRANCH  17  18
BRANCH  17  23
ATOM     23  C   UNL A   1     -28.249  -1.992  32.302  0.00  0.00    +0.253 C 
ATOM     24  O   UNL A   1     -28.490  -1.319  33.432  0.00  0.00    -0.284 OA
ENDBRANCH  17  23
ENDBRANCH  16  17
ENDBRANCH   1  16
TORSDOF 6
