REMARK  Name = No_1162-gen_results/8p0m/2024-11-26-14-13-15/
REMARK  1 active torsions:
REMARK  status: ('A' for Active; 'I' for Inactive)
REMARK    1  A    between atoms: C_10  and  C_11
REMARK                            x       y       z     vdW  Elec       q    Type
REMARK                         _______ _______ _______ _____ _____    ______ ____
ROOT
ATOM      1  C   UNL A   1     -28.016  -0.814  28.878  0.00  0.00    +0.037 A 
ATOM      2  C   UNL A   1     -28.469  -0.785  29.829  0.00  0.00    +0.003 A 
ATOM      3  C   UNL A   1     -28.196   0.348  28.055  0.00  0.00    +0.135 A 
ATOM      4  C   UNL A   1     -29.019   1.350  28.378  0.00  0.00    +0.016 A 
ATOM      5  C   UNL A   1     -29.411   0.180  30.378  0.00  0.00    -0.000 A 
ATOM      6  C   UNL A   1     -29.606   1.250  29.619  0.00  0.00    -0.001 A 
ATOM      7  O   UNL A   1     -27.500   0.358  26.816  0.00  0.00    -0.475 OA
ATOM      8  C   UNL A   1     -26.498   1.339  26.660  0.00  0.00    +0.166 C 
ATOM      9  C   UNL A   1     -25.229   0.728  26.610  0.00  0.00    +0.008 C 
ATOM     10  C   UNL A   1     -24.088   1.553  26.623  0.00  0.00    -0.043 C 
ATOM     11  C   UNL A   1     -24.422   2.847  26.163  0.00  0.00    +0.026 C 
ATOM     12  C   UNL A   1     -26.727   2.416  27.550  0.00  0.00    -0.004 C 
ATOM     13  C   UNL A   1     -26.867   1.790  25.145  0.00  0.00    +0.053 C 
ATOM     14  C   UNL A   1     -26.161   3.244  28.092  0.00  0.00    -0.030 C 
ATOM     15  C   UNL A   1     -24.829   3.699  27.389  0.00  0.00    +0.030 C 
ATOM     16  C   UNL A   1     -28.245   2.465  28.077  0.00  0.00    +0.055 C 
ENDROOT
BRANCH  10  17
ATOM     17  C   UNL A   1     -22.791   1.098  26.897  0.00  0.00    +0.048 C 
ATOM     18  C   UNL A   1     -21.770   2.126  27.016  0.00  0.00    +0.130 C 
ATOM     19  N   UNL A   1     -20.638   1.702  27.682  0.00  0.00    -0.273 NA
ATOM     20  C   UNL A   1     -20.786   0.463  28.277  0.00  0.00    +0.067 C 
ATOM     21  C   UNL A   1     -22.456   0.154  27.961  0.00  0.00    +0.053 C 
ENDBRANCH  10  17
TORSDOF 1
