MODEL 1162
MODEL 1
REMARK VINA RESULT:    -6.963      0.000      0.000
REMARK INTER + INTRA:          -7.617
REMARK INTER:                  -7.370
REMARK INTRA:                  -0.248
REMARK UNBOUND:                -0.248
REMARK  Name = No_1162-gen_results/8p0m/2024-11-26-14-13-15/
REMARK  1 active torsions:
REMARK  status: ('A' for Active; 'I' for Inactive)
REMARK    1  A    between atoms: C_10  and  C_11
REMARK                            x       y       z     vdW  Elec       q    Type
REMARK                         _______ _______ _______ _____ _____    ______ ____
ROOT
ATOM      1  C   UNL A   1     -26.092   0.350  24.843  0.00  0.00    +0.037 A 
ATOM      2  C   UNL A   1     -27.014   0.721  24.493  0.00  0.00    +0.003 A 
ATOM      3  C   UNL A   1     -25.396   1.175  25.790  0.00  0.00    +0.135 A 
ATOM      4  C   UNL A   1     -25.783   2.415  26.100  0.00  0.00    +0.016 A 
ATOM      5  C   UNL A   1     -27.615   2.034  24.677  0.00  0.00    -0.000 A 
ATOM      6  C   UNL A   1     -26.971   2.818  25.532  0.00  0.00    -0.001 A 
ATOM      7  O   UNL A   1     -24.206   0.631  26.345  0.00  0.00    -0.475 OA
ATOM      8  C   UNL A   1     -24.216   0.369  27.731  0.00  0.00    +0.166 C 
ATOM      9  C   UNL A   1     -24.168  -1.021  27.959  0.00  0.00    +0.008 C 
ATOM     10  C   UNL A   1     -24.336  -1.490  29.276  0.00  0.00    -0.043 C 
ATOM     11  C   UNL A   1     -24.006  -0.470  30.198  0.00  0.00    +0.026 C 
ATOM     12  C   UNL A   1     -25.207   1.153  28.369  0.00  0.00    -0.004 C 
ATOM     13  C   UNL A   1     -22.743   0.957  28.077  0.00  0.00    +0.053 C 
ATOM     14  C   UNL A   1     -25.869   1.149  29.297  0.00  0.00    -0.030 C 
ATOM     15  C   UNL A   1     -25.296   0.326  30.510  0.00  0.00    +0.030 C 
ATOM     16  C   UNL A   1     -25.652   2.419  27.484  0.00  0.00    +0.055 C 
ENDROOT
BRANCH  10  17
ATOM     17  C   UNL A   1     -24.628  -2.820  29.607  0.00  0.00    +0.048 C 
ATOM     18  C   UNL A   1     -26.036  -3.135  29.786  0.00  0.00    +0.130 C 
ATOM     19  N   UNL A   1     -26.315  -4.483  29.691  0.00  0.00    -0.273 NA
ATOM     20  C   UNL A   1     -25.243  -5.232  29.242  0.00  0.00    +0.067 C 
ATOM     21  C   UNL A   1     -24.104  -3.982  28.892  0.00  0.00    +0.053 C 
ENDBRANCH  10  17
TORSDOF 1
ENDMDL
ENDMDL
