MODEL 1163
MODEL 1
REMARK VINA RESULT:    -5.775      0.000      0.000
REMARK INTER + INTRA:         -14.817
REMARK INTER:                  -9.151
REMARK INTRA:                  -5.666
REMARK UNBOUND:                -5.666
REMARK  Name = No_1163-gen_results/8p0m/2024-11-26-14-13-15/
REMARK  10 active torsions:
REMARK  status: ('A' for Active; 'I' for Inactive)
REMARK    1  A    between atoms: N_1  and  C_2
REMARK    2  A    between atoms: C_8  and  C_9
REMARK    3  A    between atoms: C_9  and  C_10
REMARK    4  A    between atoms: N_11  and  C_17
REMARK    5  A    between atoms: C_17  and  C_18
REMARK    6  A    between atoms: C_18  and  C_19
REMARK    7  A    between atoms: C_22  and  C_26
REMARK    8  A    between atoms: C_26  and  C_27
REMARK    9  A    between atoms: C_26  and  C_33
REMARK   10  A    between atoms: C_33  and  C_34
REMARK                            x       y       z     vdW  Elec       q    Type
REMARK                         _______ _______ _______ _____ _____    ______ ____
ROOT
ATOM      1  C   UNL A   1     -25.151 -13.371   4.749  0.00  0.00    +0.130 C 
ENDROOT
BRANCH   1   3
ATOM      2  C   UNL A   1     -25.653 -15.328   4.861  0.00  0.00    +0.140 C 
ATOM      3  N   UNL A   1     -25.093 -14.460   4.623  0.00  0.00    -0.265 NA
BRANCH   2   4
ATOM      4  C   UNL A   1     -25.765 -15.829   6.122  0.00  0.00    +0.269 C 
ATOM      5  O   UNL A   1     -24.748 -16.228   6.820  0.00  0.00    -0.280 OA
BRANCH   4   7
ATOM      6  N   UNL A   1     -27.281 -15.210   7.891  0.00  0.00    -0.173 NA
ATOM      7  C   UNL A   1     -27.034 -15.947   6.717  0.00  0.00    +0.310 C 
ATOM      8  O   UNL A   1     -27.749 -16.986   6.390  0.00  0.00    -0.264 OA
BRANCH   6   9
ATOM      9  C   UNL A   1     -28.449 -15.144   8.278  0.00  0.00    +0.074 A 
ATOM     10  C   UNL A   1     -29.305 -14.193   7.877  0.00  0.00    +0.017 A 
ATOM     11  C   UNL A   1     -30.545 -13.922   8.493  0.00  0.00    +0.001 A 
ATOM     12  C   UNL A   1     -30.994 -14.771   9.572  0.00  0.00    +0.000 A 
ATOM     13  C   UNL A   1     -30.072 -15.759  10.021  0.00  0.00    +0.001 A 
ATOM     14  C   UNL A   1     -28.839 -15.922   9.460  0.00  0.00    +0.017 A 
ATOM     15  C   UNL A   1     -32.268 -14.570  10.215  0.00  0.00    +0.000 A 
ATOM     16  C   UNL A   1     -33.066 -13.456   9.838  0.00  0.00    +0.000 A 
ATOM     17  C   UNL A   1     -32.708 -12.693   8.716  0.00  0.00    +0.000 A 
ATOM     18  C   UNL A   1     -31.443 -12.900   8.060  0.00  0.00    +0.000 A 
ENDBRANCH   6   9
ENDBRANCH   4   7
ENDBRANCH   2   4
ENDBRANCH   1   3
BRANCH   1  19
ATOM     19  C   UNL A   1     -26.434 -12.838   4.521  0.00  0.00    +0.053 C 
BRANCH  19  20
ATOM     20  C   UNL A   1     -27.040 -12.055   5.655  0.00  0.00    -0.020 A 
ATOM     21  C   UNL A   1     -28.260 -11.521   5.482  0.00  0.00    -0.004 A 
ATOM     22  C   UNL A   1     -28.831 -10.727   6.594  0.00  0.00    -0.004 A 
ATOM     23  C   UNL A   1     -28.103 -10.607   7.788  0.00  0.00    -0.018 A 
ATOM     24  C   UNL A   1     -26.833 -11.217   7.871  0.00  0.00    -0.004 A 
ATOM     25  C   UNL A   1     -26.288 -11.945   6.857  0.00  0.00    -0.004 A 
BRANCH  23  26
ATOM     26  C   UNL A   1     -28.603  -9.855   8.925  0.00  0.00    +0.049 C 
BRANCH  26  27
ATOM     27  C   UNL A   1     -29.112 -10.525   9.934  0.00  0.00    -0.018 A 
ATOM     28  C   UNL A   1     -28.843 -11.415  10.441  0.00  0.00    -0.004 A 
ATOM     29  C   UNL A   1     -29.539 -12.125  11.594  0.00  0.00    -0.000 A 
ATOM     30  C   UNL A   1     -30.799 -11.598  11.908  0.00  0.00    -0.000 A 
ATOM     31  C   UNL A   1     -30.523 -10.056  10.403  0.00  0.00    -0.004 A 
ATOM     32  C   UNL A   1     -31.230 -10.549  11.305  0.00  0.00    -0.000 A 
ENDBRANCH  26  27
BRANCH  26  33
ATOM     33  C   UNL A   1     -27.629  -8.936   9.680  0.00  0.00    +0.035 C 
BRANCH  33  34
ATOM     34  C   UNL A   1     -27.539  -7.699   9.006  0.00  0.00    -0.025 C 
ATOM     35  C   UNL A   1     -28.747  -7.168   8.596  0.00  0.00    -0.005 C 
ENDBRANCH  33  34
ENDBRANCH  26  33
ENDBRANCH  23  26
ENDBRANCH  19  20
ENDBRANCH   1  19
TORSDOF 10
ENDMDL
ENDMDL
