MODEL 1164
MODEL 1
REMARK VINA RESULT:    -7.734      0.000      0.000
REMARK INTER + INTRA:          -9.969
REMARK INTER:                  -9.090
REMARK INTRA:                  -0.879
REMARK UNBOUND:                -0.879
REMARK  Name = No_1164-gen_results/8p0m/2024-11-26-14-13-15/
REMARK  3 active torsions:
REMARK  status: ('A' for Active; 'I' for Inactive)
REMARK    1  A    between atoms: C_2  and  C_7
REMARK    2  A    between atoms: C_7  and  N_9
REMARK    3  A    between atoms: C_13  and  C_14
REMARK                            x       y       z     vdW  Elec       q    Type
REMARK                         _______ _______ _______ _____ _____    ______ ____
ROOT
ATOM      1  N   UNL A   1     -22.814   0.577  28.943  0.00  0.00    -0.244 NA
ATOM      2  C   UNL A   1     -22.854  -0.844  28.966  0.00  0.00    +0.079 C 
ATOM      3  C   UNL A   1     -23.422   1.272  30.069  0.00  0.00    +0.075 C 
ATOM      4  C   UNL A   1     -24.602   0.993  30.257  0.00  0.00    +0.018 C 
ATOM      5  C   UNL A   1     -24.163  -1.270  29.451  0.00  0.00    +0.038 C 
ATOM      6  C   UNL A   1     -24.983  -0.408  30.182  0.00  0.00    +0.007 C 
ENDROOT
BRANCH   5   7
ATOM      7  C   UNL A   1     -24.400  -2.687  29.443  0.00  0.00    -0.021 A 
ATOM      8  C   UNL A   1     -23.825  -3.474  28.703  0.00  0.00    -0.004 A 
ATOM      9  C   UNL A   1     -24.159  -4.895  28.614  0.00  0.00    -0.000 A 
ATOM     10  C   UNL A   1     -25.711  -3.055  29.730  0.00  0.00    -0.004 A 
ATOM     11  C   UNL A   1     -26.159  -4.370  29.730  0.00  0.00    -0.000 A 
ATOM     12  C   UNL A   1     -25.325  -5.279  29.115  0.00  0.00    -0.000 A 
ENDBRANCH   5   7
BRANCH   1  13
ATOM     13  C   UNL A   1     -22.417   1.187  27.770  0.00  0.00    +0.236 C 
ATOM     14  O   UNL A   1     -21.348   1.437  27.576  0.00  0.00    -0.200 OA
BRANCH  13  16
ATOM     15  C   UNL A   1     -23.900   2.775  27.049  0.00  0.00    -0.001 A 
ATOM     16  C   UNL A   1     -23.671   1.750  26.962  0.00  0.00    +0.023 A 
ATOM     17  C   UNL A   1     -25.074   3.254  26.303  0.00  0.00    -0.000 A 
ATOM     18  C   UNL A   1     -25.925   2.336  25.622  0.00  0.00    -0.000 A 
ATOM     19  C   UNL A   1     -24.407   0.595  26.378  0.00  0.00    -0.001 A 
ATOM     20  C   UNL A   1     -25.498   1.001  25.669  0.00  0.00    -0.000 A 
ENDBRANCH  13  16
ENDBRANCH   1  13
TORSDOF 3
ENDMDL
ENDMDL
