REMARK  Name = No_1164-gen_results/8p0m/2024-11-26-14-13-15/
REMARK  3 active torsions:
REMARK  status: ('A' for Active; 'I' for Inactive)
REMARK    1  A    between atoms: C_2  and  C_7
REMARK    2  A    between atoms: C_7  and  N_9
REMARK    3  A    between atoms: C_13  and  C_14
REMARK                            x       y       z     vdW  Elec       q    Type
REMARK                         _______ _______ _______ _____ _____    ______ ____
ROOT
ATOM      1  N   UNL A   1     -30.529   0.551  29.735  0.00  0.00    -0.244 NA
ATOM      2  C   UNL A   1     -31.937   0.737  29.667  0.00  0.00    +0.079 C 
ATOM      3  C   UNL A   1     -29.695   1.691  29.381  0.00  0.00    +0.075 C 
ATOM      4  C   UNL A   1     -29.900   2.137  28.257  0.00  0.00    +0.018 C 
ATOM      5  C   UNL A   1     -32.252   1.515  28.472  0.00  0.00    +0.038 C 
ATOM      6  C   UNL A   1     -31.283   2.293  27.836  0.00  0.00    +0.007 C 
ENDROOT
BRANCH   5   7
ATOM      7  C   UNL A   1     -33.650   1.709  28.206  0.00  0.00    -0.021 A 
ATOM      8  C   UNL A   1     -34.541   1.465  29.008  0.00  0.00    -0.004 A 
ATOM      9  C   UNL A   1     -35.966   1.548  28.688  0.00  0.00    -0.000 A 
ATOM     10  C   UNL A   1     -34.022   1.488  26.883  0.00  0.00    -0.004 A 
ATOM     11  C   UNL A   1     -35.330   1.579  26.426  0.00  0.00    -0.000 A 
ATOM     12  C   UNL A   1     -36.300   1.580  27.405  0.00  0.00    -0.000 A 
ENDBRANCH   5   7
BRANCH   1  13
ATOM     13  C   UNL A   1     -30.061  -0.737  29.902  0.00  0.00    +0.236 C 
ATOM     14  O   UNL A   1     -30.725  -1.554  30.270  0.00  0.00    -0.200 OA
BRANCH  13  16
ATOM     15  C   UNL A   1     -28.016  -0.814  28.878  0.00  0.00    -0.001 A 
ATOM     16  C   UNL A   1     -28.469  -0.785  29.829  0.00  0.00    +0.023 A 
ATOM     17  C   UNL A   1     -26.546  -0.876  28.850  0.00  0.00    -0.000 A 
ATOM     18  C   UNL A   1     -25.804  -1.032  30.057  0.00  0.00    -0.000 A 
ATOM     19  C   UNL A   1     -27.944  -0.987  31.207  0.00  0.00    -0.001 A 
ATOM     20  C   UNL A   1     -26.582  -1.039  31.223  0.00  0.00    -0.000 A 
ENDBRANCH  13  16
ENDBRANCH   1  13
TORSDOF 3
