MODEL 1165
MODEL 1
REMARK VINA RESULT:    -6.137      0.000      0.000
REMARK INTER + INTRA:          -7.207
REMARK INTER:                  -6.854
REMARK INTRA:                  -0.353
REMARK UNBOUND:                -0.353
REMARK  Name = No_1165-gen_results/8p0m/2024-11-26-14-13-15/
REMARK  2 active torsions:
REMARK  status: ('A' for Active; 'I' for Inactive)
REMARK    1  A    between atoms: C_2  and  O_7
REMARK    2  A    between atoms: O_7  and  C_8
REMARK                            x       y       z     vdW  Elec       q    Type
REMARK                         _______ _______ _______ _____ _____    ______ ____
ROOT
ATOM      1  O   UNL A   1     -24.855  -1.254  29.265  0.00  0.00    -0.454 OA
ENDROOT
BRANCH   1   3
ATOM      2  C   UNL A   1     -24.000  -3.249  28.588  0.00  0.00    +0.037 A 
ATOM      3  C   UNL A   1     -24.907  -2.677  29.147  0.00  0.00    +0.145 A 
ATOM      4  C   UNL A   1     -25.970  -3.200  29.689  0.00  0.00    +0.037 A 
ATOM      5  C   UNL A   1     -26.127  -4.618  29.625  0.00  0.00    +0.003 A 
ATOM      6  C   UNL A   1     -24.032  -4.699  28.585  0.00  0.00    +0.003 A 
ATOM      7  C   UNL A   1     -25.095  -5.315  29.103  0.00  0.00    +0.000 A 
ENDBRANCH   1   3
BRANCH   1   8
ATOM      8  C   UNL A   1     -24.544  -0.462  28.098  0.00  0.00    +0.145 A 
ATOM      9  C   UNL A   1     -23.468   0.448  28.214  0.00  0.00    +0.037 A 
ATOM     10  C   UNL A   1     -23.177   1.200  27.114  0.00  0.00    +0.003 A 
ATOM     11  C   UNL A   1     -24.094   1.239  26.008  0.00  0.00    +0.000 A 
ATOM     12  C   UNL A   1     -25.363  -0.440  27.000  0.00  0.00    +0.037 A 
ATOM     13  C   UNL A   1     -25.177   0.389  25.982  0.00  0.00    +0.003 A 
ENDBRANCH   1   8
TORSDOF 2
ENDMDL
ENDMDL
