REMARK  Name = No_1165-gen_results/8p0m/2024-11-26-14-13-15/
REMARK  2 active torsions:
REMARK  status: ('A' for Active; 'I' for Inactive)
REMARK    1  A    between atoms: C_2  and  O_7
REMARK    2  A    between atoms: O_7  and  C_8
REMARK                            x       y       z     vdW  Elec       q    Type
REMARK                         _______ _______ _______ _____ _____    ______ ____
ROOT
ATOM      1  O   UNL A   1     -25.980  -0.691  27.875  0.00  0.00    -0.454 OA
ENDROOT
BRANCH   1   3
ATOM      2  C   UNL A   1     -28.016  -0.814  28.878  0.00  0.00    +0.037 A 
ATOM      3  C   UNL A   1     -27.064  -0.119  28.608  0.00  0.00    +0.145 A 
ATOM      4  C   UNL A   1     -26.876   1.133  28.913  0.00  0.00    +0.037 A 
ATOM      5  C   UNL A   1     -27.901   1.807  29.644  0.00  0.00    +0.003 A 
ATOM      6  C   UNL A   1     -29.046  -0.232  29.718  0.00  0.00    +0.003 A 
ATOM      7  C   UNL A   1     -28.940   1.052  30.060  0.00  0.00    +0.000 A 
ENDBRANCH   1   3
BRANCH   1   8
ATOM      8  C   UNL A   1     -24.627  -0.470  28.331  0.00  0.00    +0.145 A 
ATOM      9  C   UNL A   1     -23.934   0.622  27.761  0.00  0.00    +0.037 A 
ATOM     10  C   UNL A   1     -22.655   0.829  28.187  0.00  0.00    +0.003 A 
ATOM     11  C   UNL A   1     -21.987  -0.176  28.967  0.00  0.00    +0.000 A 
ATOM     12  C   UNL A   1     -23.973  -1.377  29.122  0.00  0.00    +0.037 A 
ATOM     13  C   UNL A   1     -22.689  -1.267  29.429  0.00  0.00    +0.003 A 
ENDBRANCH   1   8
TORSDOF 2
