MODEL 1166
MODEL 1
REMARK VINA RESULT:    -4.256      0.000      0.000
REMARK INTER + INTRA:          -4.256
REMARK INTER:                  -4.256
REMARK INTRA:                   0.000
REMARK UNBOUND:                 0.000
REMARK  Name = No_1166-gen_results/8p0m/2024-11-26-14-13-15/
REMARK  0 active torsions:
REMARK  status: ('A' for Active; 'I' for Inactive)
REMARK                            x       y       z     vdW  Elec       q    Type
REMARK                         _______ _______ _______ _____ _____    ______ ____
ROOT
ATOM      1  C   UNL A   1     -25.024  -5.388  28.943  0.00  0.00    +0.000 A 
ATOM      2  C   UNL A   1     -24.073  -4.700  28.647  0.00  0.00    +0.000 A 
ATOM      3  C   UNL A   1     -24.063  -3.323  28.754  0.00  0.00    +0.000 A 
ATOM      4  C   UNL A   1     -25.223  -2.686  29.277  0.00  0.00    +0.000 A 
ATOM      5  C   UNL A   1     -26.190  -3.506  29.750  0.00  0.00    +0.000 A 
ATOM      6  C   UNL A   1     -26.097  -4.818  29.643  0.00  0.00    +0.000 A 
ENDROOT
TORSDOF 0
ENDMDL
ENDMDL
