REMARK  Name = No_1167-gen_results/8p0m/2024-11-26-14-13-15/
REMARK  2 active torsions:
REMARK  status: ('A' for Active; 'I' for Inactive)
REMARK    1  A    between atoms: C_2  and  C_5
REMARK    2  A    between atoms: C_13  and  C_14
REMARK                            x       y       z     vdW  Elec       q    Type
REMARK                         _______ _______ _______ _____ _____    ______ ____
ROOT
ATOM      1  C   UNL A   1     -30.014  -0.841  29.851  0.00  0.00    +0.249 C 
ATOM      2  O   UNL A   1     -30.656  -1.692  30.181  0.00  0.00    -0.270 OA
ATOM      3  N   UNL A   1     -30.600   0.312  29.288  0.00  0.00    -0.276 N 
ATOM      4  C   UNL A   1     -32.012   0.363  29.107  0.00  0.00    +0.103 C 
ATOM      5  C   UNL A   1     -29.837   1.476  28.867  0.00  0.00    +0.094 C 
ATOM      6  C   UNL A   1     -30.022   1.794  27.645  0.00  0.00    +0.022 C 
ATOM      7  C   UNL A   1     -32.295   0.922  27.778  0.00  0.00    +0.098 C 
ATOM      8  C   UNL A   1     -31.350   1.692  27.102  0.00  0.00    +0.013 C 
ENDROOT
BRANCH   1  10
ATOM      9  C   UNL A   1     -28.016  -0.814  28.878  0.00  0.00    +0.004 A 
ATOM     10  C   UNL A   1     -28.469  -0.785  29.829  0.00  0.00    +0.054 A 
ATOM     11  C   UNL A   1     -26.504  -0.778  28.877  0.00  0.00    +0.000 A 
ATOM     12  C   UNL A   1     -25.810  -0.853  30.103  0.00  0.00    -0.000 A 
ATOM     13  C   UNL A   1     -26.567  -0.885  31.252  0.00  0.00    +0.000 A 
ATOM     14  C   UNL A   1     -27.941  -0.907  31.185  0.00  0.00    +0.004 A 
ATOM     15  C   UNL A   1     -25.645  -0.676  27.656  0.00  0.00    -0.000 A 
ATOM     16  C   UNL A   1     -24.337  -0.222  27.775  0.00  0.00    -0.004 A 
ATOM     17  C   UNL A   1     -23.681  -0.458  29.038  0.00  0.00    -0.022 A 
ATOM     18  C   UNL A   1     -24.395  -0.648  30.161  0.00  0.00    -0.004 A 
ATOM     19  C   UNL A   1     -22.199  -0.228  29.082  0.00  0.00    +0.031 C 
ENDBRANCH   1  10
BRANCH   7  20
ATOM     20  C   UNL A   1     -33.672   0.910  27.362  0.00  0.00    +0.243 C 
ATOM     21  N   UNL A   1     -34.557   0.581  28.055  0.00  0.00    -0.203 NA
ATOM     22  O   UNL A   1     -33.921   1.192  26.131  0.00  0.00    -0.273 OA
ATOM     23  C   UNL A   1     -35.721   0.392  27.992  0.00  0.00    +0.139 C 
ENDBRANCH   7  20
TORSDOF 2
