REMARK  Name = No_1168-gen_results/8p0m/2024-11-26-14-13-15/
REMARK  3 active torsions:
REMARK  status: ('A' for Active; 'I' for Inactive)
REMARK    1  A    between atoms: C_2  and  C_11
REMARK    2  A    between atoms: C_4  and  C_7
REMARK    3  A    between atoms: N_13  and  C_14
REMARK                            x       y       z     vdW  Elec       q    Type
REMARK                         _______ _______ _______ _____ _____    ______ ____
ROOT
ATOM      1  C   UNL A   1     -28.016  -0.814  28.878  0.00  0.00    +0.004 A 
ATOM      2  C   UNL A   1     -28.469  -0.785  29.829  0.00  0.00    +0.055 A 
ATOM      3  C   UNL A   1     -26.546  -0.876  28.850  0.00  0.00    -0.003 A 
ATOM      4  C   UNL A   1     -25.804  -1.032  30.057  0.00  0.00    -0.009 A 
ATOM      5  C   UNL A   1     -27.944  -0.987  31.207  0.00  0.00    +0.004 A 
ATOM      6  C   UNL A   1     -26.582  -1.039  31.223  0.00  0.00    -0.003 A 
ENDROOT
BRANCH   4   7
ATOM      7  C   UNL A   1     -24.381  -1.108  30.085  0.00  0.00    +0.086 C 
ATOM      8 CL   UNL A   1     -23.467   0.056  29.556  0.00  0.00    -0.112 Cl
ATOM      9  C   UNL A   1     -23.857  -2.437  29.425  0.00  0.00    +0.021 C 
ATOM     10  C   UNL A   1     -23.926  -1.436  31.640  0.00  0.00    +0.021 C 
ENDBRANCH   4   7
BRANCH   2  11
ATOM     11  C   UNL A   1     -30.078  -0.666  29.853  0.00  0.00    +0.269 C 
ATOM     12  O   UNL A   1     -30.509  -0.203  28.926  0.00  0.00    -0.268 OA
ATOM     13  N   UNL A   1     -30.791  -1.052  30.934  0.00  0.00    -0.175 NA
BRANCH  13  14
ATOM     14  C   UNL A   1     -32.222  -0.934  30.929  0.00  0.00    +0.074 A 
ATOM     15  C   UNL A   1     -32.891  -0.241  30.477  0.00  0.00    +0.017 A 
ATOM     16  C   UNL A   1     -34.331  -0.183  30.527  0.00  0.00    +0.001 A 
ATOM     17  C   UNL A   1     -32.778  -2.312  30.969  0.00  0.00    +0.017 A 
ATOM     18  C   UNL A   1     -34.164  -2.428  31.008  0.00  0.00    +0.001 A 
ATOM     19  C   UNL A   1     -34.912  -1.360  30.746  0.00  0.00    +0.000 A 
ENDBRANCH  13  14
ENDBRANCH   2  11
TORSDOF 3
