MODEL 1168
MODEL 1
REMARK VINA RESULT:    -6.461      0.000      0.000
REMARK INTER + INTRA:          -8.102
REMARK INTER:                  -7.594
REMARK INTRA:                  -0.508
REMARK UNBOUND:                -0.508
REMARK  Name = No_1168-gen_results/8p0m/2024-11-26-14-13-15/
REMARK  3 active torsions:
REMARK  status: ('A' for Active; 'I' for Inactive)
REMARK    1  A    between atoms: C_2  and  C_11
REMARK    2  A    between atoms: C_4  and  C_7
REMARK    3  A    between atoms: N_13  and  C_14
REMARK                            x       y       z     vdW  Elec       q    Type
REMARK                         _______ _______ _______ _____ _____    ______ ____
ROOT
ATOM      1  C   UNL A   1      -7.181  -1.310  34.687  0.00  0.00    +0.004 A 
ATOM      2  C   UNL A   1      -7.278  -0.269  34.816  0.00  0.00    +0.055 A 
ATOM      3  C   UNL A   1      -5.822  -1.820  34.442  0.00  0.00    -0.003 A 
ATOM      4  C   UNL A   1      -4.696  -0.949  34.522  0.00  0.00    -0.009 A 
ATOM      5  C   UNL A   1      -6.286   0.826  34.997  0.00  0.00    +0.004 A 
ATOM      6  C   UNL A   1      -5.014   0.394  34.767  0.00  0.00    -0.003 A 
ENDROOT
BRANCH   4   7
ATOM      7  C   UNL A   1      -3.360  -1.393  34.304  0.00  0.00    +0.086 C 
ATOM      8 CL   UNL A   1      -3.025  -2.648  33.418  0.00  0.00    -0.112 Cl
ATOM      9  C   UNL A   1      -2.577  -1.567  35.658  0.00  0.00    +0.021 C 
ATOM     10  C   UNL A   1      -2.496  -0.115  33.709  0.00  0.00    +0.021 C 
ENDBRANCH   4   7
BRANCH   2  11
ATOM     11  C   UNL A   1      -8.776   0.290  35.033  0.00  0.00    +0.269 C 
ATOM     12  O   UNL A   1      -9.255  -0.065  35.984  0.00  0.00    -0.268 OA
ATOM     13  N   UNL A   1      -9.375   1.065  34.103  0.00  0.00    -0.175 NA
BRANCH  13  14
ATOM     14  C   UNL A   1     -10.709   1.548  34.322  0.00  0.00    +0.074 A 
ATOM     15  C   UNL A   1     -11.096   2.451  34.730  0.00  0.00    +0.017 A 
ATOM     16  C   UNL A   1     -12.464   2.862  34.927  0.00  0.00    +0.001 A 
ATOM     17  C   UNL A   1     -11.556   1.017  33.221  0.00  0.00    +0.017 A 
ATOM     18  C   UNL A   1     -12.909   1.337  33.261  0.00  0.00    +0.001 A 
ATOM     19  C   UNL A   1     -13.327   2.287  34.093  0.00  0.00    +0.000 A 
ENDBRANCH  13  14
ENDBRANCH   2  11
TORSDOF 3
ENDMDL
ENDMDL
