REMARK  Name = No_1169-gen_results/8p0m/2024-11-26-14-13-15/
REMARK  3 active torsions:
REMARK  status: ('A' for Active; 'I' for Inactive)
REMARK    1  A    between atoms: C_6  and  C_8
REMARK    2  A    between atoms: C_8  and  N_9
REMARK    3  A    between atoms: C_11  and  C_12
REMARK                            x       y       z     vdW  Elec       q    Type
REMARK                         _______ _______ _______ _____ _____    ______ ____
ROOT
ATOM      1  C   UNL A   1     -28.016  -0.814  28.878  0.00  0.00    +0.011 A 
ATOM      2  C   UNL A   1     -27.064  -0.119  28.608  0.00  0.00    +0.058 A 
ATOM      3  C   UNL A   1     -26.929   1.171  29.008  0.00  0.00    +0.011 A 
ATOM      4  C   UNL A   1     -27.956   1.741  29.784  0.00  0.00    +0.005 A 
ATOM      5  C   UNL A   1     -29.057  -0.327  29.747  0.00  0.00    +0.005 A 
ATOM      6  C   UNL A   1     -28.983   0.972  30.152  0.00  0.00    +0.055 A 
ATOM      7 CL   UNL A   1     -25.735  -0.730  27.663  0.00  0.00    -0.082 Cl
ENDROOT
BRANCH   6   8
ATOM      8  C   UNL A   1     -30.081   1.511  31.011  0.00  0.00    +0.269 C 
ATOM      9  O   UNL A   1     -31.203   0.970  30.901  0.00  0.00    -0.268 OA
BRANCH   8  10
ATOM     10  N   UNL A   1     -29.816   2.416  31.783  0.00  0.00    -0.174 NA
ATOM     11  C   UNL A   1     -30.450   3.020  32.588  0.00  0.00    +0.089 C 
BRANCH  11  12
ATOM     12  C   UNL A   1     -30.049   4.029  33.318  0.00  0.00    +0.013 C 
ATOM     13  C   UNL A   1     -28.675   4.516  33.203  0.00  0.00    -0.024 C 
ATOM     14  C   UNL A   1     -27.855   3.789  32.276  0.00  0.00    +0.031 C 
ENDBRANCH  11  12
ENDBRANCH   8  10
ENDBRANCH   6   8
TORSDOF 3
