MODEL 1169
MODEL 1
REMARK VINA RESULT:    -6.036      0.000      0.000
REMARK INTER + INTRA:          -7.367
REMARK INTER:                  -7.095
REMARK INTRA:                  -0.272
REMARK UNBOUND:                -0.272
REMARK  Name = No_1169-gen_results/8p0m/2024-11-26-14-13-15/
REMARK  3 active torsions:
REMARK  status: ('A' for Active; 'I' for Inactive)
REMARK    1  A    between atoms: C_6  and  C_8
REMARK    2  A    between atoms: C_8  and  N_9
REMARK    3  A    between atoms: C_11  and  C_12
REMARK                            x       y       z     vdW  Elec       q    Type
REMARK                         _______ _______ _______ _____ _____    ______ ____
ROOT
ATOM      1  C   UNL A   1     -24.137   1.306  26.087  0.00  0.00    +0.011 A 
ATOM      2  C   UNL A   1     -23.057   1.848  26.126  0.00  0.00    +0.058 A 
ATOM      3  C   UNL A   1     -22.154   1.669  27.125  0.00  0.00    +0.011 A 
ATOM      4  C   UNL A   1     -22.490   0.802  28.181  0.00  0.00    +0.005 A 
ATOM      5  C   UNL A   1     -24.506   0.333  27.084  0.00  0.00    +0.005 A 
ATOM      6  C   UNL A   1     -23.647   0.140  28.124  0.00  0.00    +0.055 A 
ATOM      7 CL   UNL A   1     -22.540   2.931  24.864  0.00  0.00    -0.082 Cl
ENDROOT
BRANCH   6   8
ATOM      8  C   UNL A   1     -24.037  -0.826  29.196  0.00  0.00    +0.269 C 
ATOM      9  O   UNL A   1     -24.639  -0.359  30.187  0.00  0.00    -0.268 OA
BRANCH   8  10
ATOM     10  N   UNL A   1     -23.777  -2.005  29.031  0.00  0.00    -0.174 NA
ATOM     11  C   UNL A   1     -24.429  -2.957  28.745  0.00  0.00    +0.089 C 
BRANCH  11  12
ATOM     12  C   UNL A   1     -24.025  -4.199  28.661  0.00  0.00    +0.013 C 
ATOM     13  C   UNL A   1     -24.893  -5.284  29.117  0.00  0.00    -0.024 C 
ATOM     14  C   UNL A   1     -26.151  -4.859  29.661  0.00  0.00    +0.031 C 
ENDBRANCH  11  12
ENDBRANCH   8  10
ENDBRANCH   6   8
TORSDOF 3
ENDMDL
ENDMDL
