MODEL 116
MODEL 1
REMARK VINA RESULT:    -5.650      0.000      0.000
REMARK INTER + INTRA:          -6.476
REMARK INTER:                  -6.311
REMARK INTRA:                  -0.166
REMARK UNBOUND:                -0.166
REMARK  Name = No_116-gen_results/8p0m/2024-11-26-14-13-15/
REMARK  2 active torsions:
REMARK  status: ('A' for Active; 'I' for Inactive)
REMARK    1  A    between atoms: C_2  and  C_10
REMARK    2  A    between atoms: C_5  and  C_7
REMARK                            x       y       z     vdW  Elec       q    Type
REMARK                         _______ _______ _______ _____ _____    ______ ____
ROOT
ATOM      1  C   UNL A   1     -29.665 -10.117  31.449  0.00  0.00    +0.001 A 
ATOM      2  C   UNL A   1     -29.518 -10.821  30.477  0.00  0.00    +0.044 A 
ATOM      3  C   UNL A   1     -28.589 -11.842  30.364  0.00  0.00    +0.001 A 
ATOM      4  C   UNL A   1     -27.765 -12.097  31.500  0.00  0.00    +0.006 A 
ATOM      5  C   UNL A   1     -28.057 -11.396  32.614  0.00  0.00    +0.080 A 
ATOM      6  C   UNL A   1     -29.037 -10.490  32.639  0.00  0.00    +0.006 A 
ENDROOT
BRANCH   5   7
ATOM      7  C   UNL A   1     -27.222 -11.714  33.789  0.00  0.00    +0.388 C 
ATOM      8  O   UNL A   1     -26.817 -12.731  33.885  0.00  0.00    -0.241 OA
ATOM      9  O   UNL A   1     -27.064 -10.829  34.765  0.00  0.00    -0.241 OA
ENDBRANCH   5   7
BRANCH   2  10
ATOM     10  C   UNL A   1     -30.291 -10.527  29.110  0.00  0.00    +0.341 C 
ATOM     11  F   UNL A   1     -29.664 -10.930  28.119  0.00  0.00    -0.193 F 
ATOM     12  F   UNL A   1     -31.218  -9.825  29.058  0.00  0.00    -0.193 F 
ENDBRANCH   2  10
TORSDOF 2
ENDMDL
ENDMDL
