REMARK  Name = No_1170-gen_results/8p0m/2024-11-26-14-13-15/
REMARK  3 active torsions:
REMARK  status: ('A' for Active; 'I' for Inactive)
REMARK    1  A    between atoms: C_4  and  C_12
REMARK    2  A    between atoms: C_12  and  C_13
REMARK    3  A    between atoms: C_12  and  C_19
REMARK                            x       y       z     vdW  Elec       q    Type
REMARK                         _______ _______ _______ _____ _____    ______ ____
ROOT
ATOM      1  C   UNL A   1     -28.016  -0.814  28.878  0.00  0.00    +0.004 C 
ATOM      2  C   UNL A   1     -28.469  -0.785  29.829  0.00  0.00    +0.045 C 
ATOM      3  C   UNL A   1     -27.087   0.290  28.638  0.00  0.00    +0.005 C 
ATOM      4  C   UNL A   1     -26.024   0.364  29.253  0.00  0.00    +0.030 C 
ATOM      5  C   UNL A   1     -26.246   0.433  30.799  0.00  0.00    -0.030 C 
ATOM      6  C   UNL A   1     -29.574  -1.627  30.332  0.00  0.00    +0.171 C 
ATOM      7  C   UNL A   1     -27.266   0.380  31.136  0.00  0.00    -0.028 C 
ATOM      8  C   UNL A   1     -28.174  -0.672  31.031  0.00  0.00    +0.054 C 
ATOM      9 BR   UNL A   1     -30.822  -2.001  29.185  0.00  0.00    -0.049 Br
ATOM     10  O   UNL A   1     -29.315  -2.770  31.221  0.00  0.00    -0.344 OA
ATOM     11  C   UNL A   1     -28.908  -1.374  32.180  0.00  0.00    +0.148 C 
ENDROOT
BRANCH   4  12
ATOM     12  C   UNL A   1     -24.682   0.709  28.702  0.00  0.00    +0.048 C 
BRANCH  12  13
ATOM     13  C   UNL A   1     -24.539   1.482  27.695  0.00  0.00    -0.018 A 
ATOM     14  C   UNL A   1     -25.120   2.084  27.065  0.00  0.00    -0.004 A 
ATOM     15  C   UNL A   1     -24.608   2.983  25.966  0.00  0.00    -0.000 A 
ATOM     16  C   UNL A   1     -23.387   3.069  25.855  0.00  0.00    -0.000 A 
ATOM     17  C   UNL A   1     -22.936   1.756  27.440  0.00  0.00    -0.004 A 
ATOM     18  C   UNL A   1     -22.473   2.499  26.600  0.00  0.00    -0.000 A 
ENDBRANCH  12  13
BRANCH  12  19
ATOM     19  C   UNL A   1     -23.582  -0.252  29.294  0.00  0.00    -0.022 C 
ATOM     20  C   UNL A   1     -22.652   0.302  30.082  0.00  0.00    -0.005 C 
ENDBRANCH  12  19
ENDBRANCH   4  12
TORSDOF 3
