MODEL 1170
MODEL 1
REMARK VINA RESULT:    -7.391      0.000      0.000
REMARK INTER + INTRA:          -9.903
REMARK INTER:                  -8.687
REMARK INTRA:                  -1.216
REMARK UNBOUND:                -1.216
REMARK  Name = No_1170-gen_results/8p0m/2024-11-26-14-13-15/
REMARK  3 active torsions:
REMARK  status: ('A' for Active; 'I' for Inactive)
REMARK    1  A    between atoms: C_4  and  C_12
REMARK    2  A    between atoms: C_12  and  C_13
REMARK    3  A    between atoms: C_12  and  C_19
REMARK                            x       y       z     vdW  Elec       q    Type
REMARK                         _______ _______ _______ _____ _____    ______ ____
ROOT
ATOM      1  C   UNL A   1     -25.822   0.296  32.139  0.00  0.00    +0.004 C 
ATOM      2  C   UNL A   1     -25.334   0.153  33.061  0.00  0.00    +0.045 C 
ATOM      3  C   UNL A   1     -24.930   0.202  30.983  0.00  0.00    +0.005 C 
ATOM      4  C   UNL A   1     -24.425  -0.873  30.663  0.00  0.00    +0.030 C 
ATOM      5  C   UNL A   1     -23.559  -1.479  31.815  0.00  0.00    -0.030 C 
ATOM      6  C   UNL A   1     -25.885   0.353  34.418  0.00  0.00    +0.171 C 
ATOM      7  C   UNL A   1     -23.530  -0.919  32.733  0.00  0.00    -0.028 C 
ATOM      8  C   UNL A   1     -24.562  -0.640  33.627  0.00  0.00    +0.054 C 
ATOM      9 BR   UNL A   1     -26.946   1.713  34.610  0.00  0.00    -0.049 Br
ATOM     10  O   UNL A   1     -26.334  -0.786  35.232  0.00  0.00    -0.344 OA
ATOM     11  C   UNL A   1     -24.608  -0.989  35.120  0.00  0.00    +0.148 C 
ENDROOT
BRANCH   4  12
ATOM     12  C   UNL A   1     -24.291  -1.437  29.289  0.00  0.00    +0.048 C 
BRANCH  12  13
ATOM     13  C   UNL A   1     -24.396  -2.688  29.055  0.00  0.00    -0.018 A 
ATOM     14  C   UNL A   1     -23.811  -3.485  28.709  0.00  0.00    -0.004 A 
ATOM     15  C   UNL A   1     -24.231  -4.932  28.626  0.00  0.00    -0.000 A 
ATOM     16  C   UNL A   1     -25.340  -5.206  29.078  0.00  0.00    -0.000 A 
ATOM     17  C   UNL A   1     -25.824  -3.240  29.661  0.00  0.00    -0.004 A 
ATOM     18  C   UNL A   1     -26.191  -4.396  29.657  0.00  0.00    -0.000 A 
ENDBRANCH  12  13
BRANCH  12  19
ATOM     19  C   UNL A   1     -23.685  -0.360  28.311  0.00  0.00    -0.022 C 
ATOM     20  C   UNL A   1     -22.420   0.018  28.533  0.00  0.00    -0.005 C 
ENDBRANCH  12  19
ENDBRANCH   4  12
TORSDOF 3
ENDMDL
ENDMDL
