REMARK  Name = No_1172-gen_results/8p0m/2024-11-26-14-13-15/
REMARK  8 active torsions:
REMARK  status: ('A' for Active; 'I' for Inactive)
REMARK    1  A    between atoms: C_2  and  C_24
REMARK    2  A    between atoms: C_9  and  C_11
REMARK    3  A    between atoms: C_14  and  C_15
REMARK    4  A    between atoms: C_19  and  C_21
REMARK    5  A    between atoms: C_21  and  O_23
REMARK    6  A    between atoms: O_23  and  C_29
REMARK    7  A    between atoms: C_29  and  C_30
REMARK    8  A    between atoms: N_32  and  C_33
REMARK                            x       y       z     vdW  Elec       q    Type
REMARK                         _______ _______ _______ _____ _____    ______ ____
ROOT
ATOM      1  C   UNL A   1     -24.604   3.647  27.444  0.00  0.00    +0.255 C 
ATOM      2  N   UNL A   1     -24.515   4.630  28.236  0.00  0.00    -0.141 NA
ATOM      3  O   UNL A   1     -23.994   3.602  26.324  0.00  0.00    -0.272 OA
ATOM      4  C   UNL A   1     -24.367   6.058  27.763  0.00  0.00    +0.271 C 
ATOM      5  O   UNL A   1     -24.181   6.252  26.576  0.00  0.00    -0.268 OA
ENDROOT
BRANCH   1  14
ATOM      6  C   UNL A   1     -28.016  -0.814  28.878  0.00  0.00    +0.002 A 
ATOM      7  C   UNL A   1     -28.469  -0.785  29.829  0.00  0.00    +0.080 A 
ATOM      8  C   UNL A   1     -27.136   0.236  28.535  0.00  0.00    -0.019 A 
ATOM      9  C   UNL A   1     -26.875   1.282  29.398  0.00  0.00    +0.031 A 
ATOM     10  C   UNL A   1     -27.507   1.238  30.630  0.00  0.00    +0.003 A 
ATOM     11  C   UNL A   1     -28.329   0.174  30.935  0.00  0.00    +0.007 A 
ATOM     12  C   UNL A   1     -26.408   0.307  27.226  0.00  0.00    +0.027 C 
ATOM     13  C   UNL A   1     -25.713   1.490  26.921  0.00  0.00    +0.022 C 
ATOM     14  C   UNL A   1     -25.455   2.491  27.886  0.00  0.00    +0.141 C 
ATOM     15  C   UNL A   1     -26.093   2.442  29.108  0.00  0.00    +0.181 C 
ATOM     16  O   UNL A   1     -25.949   3.374  30.025  0.00  0.00    -0.291 OA
BRANCH   7  17
ATOM     17  C   UNL A   1     -29.371  -2.043  30.372  0.00  0.00    +0.388 C 
ATOM     18  O   UNL A   1     -30.102  -1.899  31.149  0.00  0.00    -0.241 OA
ATOM     19  O   UNL A   1     -28.958  -3.168  29.901  0.00  0.00    -0.241 OA
ENDBRANCH   7  17
ENDBRANCH   1  14
BRANCH   4  20
ATOM     20  C   UNL A   1     -25.027   7.083  28.586  0.00  0.00    +0.056 A 
ATOM     21  C   UNL A   1     -24.519   8.347  28.462  0.00  0.00    +0.005 A 
ATOM     22  C   UNL A   1     -24.893   9.399  29.345  0.00  0.00    +0.000 A 
ATOM     23  C   UNL A   1     -25.904   9.104  30.270  0.00  0.00    +0.006 A 
ATOM     24  C   UNL A   1     -26.416   7.848  30.338  0.00  0.00    +0.076 A 
ATOM     25  C   UNL A   1     -25.975   6.824  29.527  0.00  0.00    +0.011 A 
BRANCH  24  26
ATOM     26  C   UNL A   1     -27.448   7.516  31.386  0.00  0.00    +0.342 C 
ATOM     27  O   UNL A   1     -28.175   6.614  31.297  0.00  0.00    -0.245 OA
BRANCH  26  28
ATOM     28  O   UNL A   1     -27.511   8.305  32.466  0.00  0.00    -0.435 OA
BRANCH  28  29
ATOM     29  C   UNL A   1     -28.078   7.907  33.561  0.00  0.00    +0.295 C 
BRANCH  29  30
ATOM     30  C   UNL A   1     -29.341   8.318  33.791  0.00  0.00    +0.290 C 
ATOM     31  O   UNL A   1     -29.702   9.295  33.327  0.00  0.00    -0.269 OA
ATOM     32  N   UNL A   1     -30.188   7.506  34.498  0.00  0.00    -0.175 NA
BRANCH  32  33
ATOM     33  C   UNL A   1     -31.598   7.815  34.697  0.00  0.00    +0.084 C 
ATOM     34  C   UNL A   1     -32.316   7.138  35.102  0.00  0.00    -0.008 C 
ATOM     35  C   UNL A   1     -33.806   7.437  35.258  0.00  0.00    +0.032 C 
ENDBRANCH  32  33
ENDBRANCH  29  30
ENDBRANCH  28  29
ENDBRANCH  26  28
ENDBRANCH  24  26
ENDBRANCH   4  20
TORSDOF 8
