MODEL 1172
MODEL 1
REMARK VINA RESULT:    -8.172      0.000      0.000
REMARK INTER + INTRA:         -13.154
REMARK INTER:                 -11.994
REMARK INTRA:                  -1.161
REMARK UNBOUND:                -1.161
REMARK  Name = No_1172-gen_results/8p0m/2024-11-26-14-13-15/
REMARK  8 active torsions:
REMARK  status: ('A' for Active; 'I' for Inactive)
REMARK    1  A    between atoms: C_2  and  C_24
REMARK    2  A    between atoms: C_9  and  C_11
REMARK    3  A    between atoms: C_14  and  C_15
REMARK    4  A    between atoms: C_19  and  C_21
REMARK    5  A    between atoms: C_21  and  O_23
REMARK    6  A    between atoms: O_23  and  C_29
REMARK    7  A    between atoms: C_29  and  C_30
REMARK    8  A    between atoms: N_32  and  C_33
REMARK                            x       y       z     vdW  Elec       q    Type
REMARK                         _______ _______ _______ _____ _____    ______ ____
ROOT
ATOM      1  C   UNL A   1     -28.864  -4.818  30.532  0.00  0.00    +0.255 C 
ATOM      2  N   UNL A   1     -29.047  -5.108  31.750  0.00  0.00    -0.141 NA
ATOM      3  O   UNL A   1     -29.721  -5.076  29.622  0.00  0.00    -0.272 OA
ATOM      4  C   UNL A   1     -29.803  -6.337  32.200  0.00  0.00    +0.271 C 
ATOM      5  O   UNL A   1     -30.382  -6.995  31.355  0.00  0.00    -0.268 OA
ENDROOT
BRANCH   1  14
ATOM      6  C   UNL A   1     -23.763  -2.352  29.308  0.00  0.00    +0.002 A 
ATOM      7  C   UNL A   1     -23.673  -1.319  29.496  0.00  0.00    +0.080 A 
ATOM      8  C   UNL A   1     -25.017  -2.957  29.546  0.00  0.00    -0.019 A 
ATOM      9  C   UNL A   1     -26.097  -2.240  30.022  0.00  0.00    +0.031 A 
ATOM     10  C   UNL A   1     -25.892  -0.886  30.236  0.00  0.00    +0.003 A 
ATOM     11  C   UNL A   1     -24.662  -0.332  29.954  0.00  0.00    +0.007 A 
ATOM     12  C   UNL A   1     -25.290  -4.411  29.300  0.00  0.00    +0.027 C 
ATOM     13  C   UNL A   1     -26.512  -4.939  29.753  0.00  0.00    +0.022 C 
ATOM     14  C   UNL A   1     -27.581  -4.120  30.183  0.00  0.00    +0.141 C 
ATOM     15  C   UNL A   1     -27.367  -2.774  30.398  0.00  0.00    +0.181 C 
ATOM     16  O   UNL A   1     -28.299  -1.969  30.860  0.00  0.00    -0.291 OA
BRANCH   7  17
ATOM     17  C   UNL A   1     -22.307  -0.505  29.092  0.00  0.00    +0.388 C 
ATOM     18  O   UNL A   1     -21.422  -0.582  29.700  0.00  0.00    -0.241 OA
ATOM     19  O   UNL A   1     -22.510   0.324  28.128  0.00  0.00    -0.241 OA
ENDBRANCH   7  17
ENDBRANCH   1  14
BRANCH   4  20
ATOM     20  C   UNL A   1     -29.322  -6.976  33.434  0.00  0.00    +0.056 A 
ATOM     21  C   UNL A   1     -29.338  -6.181  34.547  0.00  0.00    +0.005 A 
ATOM     22  C   UNL A   1     -28.703  -6.571  35.760  0.00  0.00    +0.000 A 
ATOM     23  C   UNL A   1     -28.169  -7.866  35.794  0.00  0.00    +0.006 A 
ATOM     24  C   UNL A   1     -28.207  -8.645  34.682  0.00  0.00    +0.076 A 
ATOM     25  C   UNL A   1     -28.753  -8.210  33.492  0.00  0.00    +0.011 A 
BRANCH  24  26
ATOM     26  C   UNL A   1     -27.562 -10.008  34.699  0.00  0.00    +0.342 C 
ATOM     27  O   UNL A   1     -26.431 -10.172  34.908  0.00  0.00    -0.245 OA
BRANCH  26  28
ATOM     28  O   UNL A   1     -28.347 -11.068  34.468  0.00  0.00    -0.435 OA
BRANCH  28  29
ATOM     29  C   UNL A   1     -27.868 -12.169  33.980  0.00  0.00    +0.295 C 
BRANCH  29  30
ATOM     30  C   UNL A   1     -27.692 -12.231  32.645  0.00  0.00    +0.290 C 
ATOM     31  O   UNL A   1     -26.678 -12.547  32.231  0.00  0.00    -0.269 OA
ATOM     32  N   UNL A   1     -28.763 -12.006  31.820  0.00  0.00    -0.175 NA
BRANCH  32  33
ATOM     33  C   UNL A   1     -28.694 -12.163  30.373  0.00  0.00    +0.084 C 
ATOM     34  C   UNL A   1     -29.164 -11.515  29.669  0.00  0.00    -0.008 C 
ATOM     35  C   UNL A   1     -29.144 -11.709  28.154  0.00  0.00    +0.032 C 
ENDBRANCH  32  33
ENDBRANCH  29  30
ENDBRANCH  28  29
ENDBRANCH  26  28
ENDBRANCH  24  26
ENDBRANCH   4  20
TORSDOF 8
ENDMDL
ENDMDL
