REMARK  Name = No_1173-gen_results/8p0m/2024-11-26-14-13-15/
REMARK  10 active torsions:
REMARK  status: ('A' for Active; 'I' for Inactive)
REMARK    1  A    between atoms: C_2  and  N_7
REMARK    2  A    between atoms: C_3  and  C_17
REMARK    3  A    between atoms: C_10  and  N_11
REMARK    4  A    between atoms: N_11  and  C_14
REMARK    5  A    between atoms: C_14  and  C_15
REMARK    6  A    between atoms: C_17  and  C_18
REMARK    7  A    between atoms: C_18  and  C_19
REMARK    8  A    between atoms: C_20  and  C_21
REMARK    9  A    between atoms: C_22  and  C_23
REMARK   10  A    between atoms: C_23  and  C_24
REMARK                            x       y       z     vdW  Elec       q    Type
REMARK                         _______ _______ _______ _____ _____    ______ ____
ROOT
ATOM      1  C   UNL A   1     -28.016  -0.814  28.878  0.00  0.00    +0.010 A 
ATOM      2  C   UNL A   1     -28.469  -0.785  29.829  0.00  0.00    +0.048 A 
ATOM      3  C   UNL A   1     -26.546  -0.876  28.850  0.00  0.00    -0.021 A 
ATOM      4  C   UNL A   1     -25.804  -1.032  30.057  0.00  0.00    -0.004 A 
ATOM      5  C   UNL A   1     -27.944  -0.987  31.207  0.00  0.00    +0.015 A 
ATOM      6  C   UNL A   1     -26.582  -1.039  31.223  0.00  0.00    +0.001 A 
ENDROOT
BRANCH   2   7
ATOM      7  N   UNL A   1     -29.965  -0.735  29.890  0.00  0.00    -0.295 N 
ATOM      8  C   UNL A   1     -30.771  -1.535  30.355  0.00  0.00    +0.092 C 
ATOM      9  C   UNL A   1     -32.141  -1.374  30.145  0.00  0.00    +0.022 C 
ATOM     10  C   UNL A   1     -30.523   0.329  29.151  0.00  0.00    +0.150 C 
ATOM     11  C   UNL A   1     -31.843   0.473  29.051  0.00  0.00    +0.038 C 
ATOM     12  C   UNL A   1     -32.679  -0.396  29.517  0.00  0.00    +0.005 C 
BRANCH  10  13
ATOM     13  N   UNL A   1     -29.679   1.284  28.565  0.00  0.00    -0.165 NA
BRANCH  13  14
ATOM     14  C   UNL A   1     -29.480   1.954  27.773  0.00  0.00    +0.259 C 
ATOM     15  F   UNL A   1     -30.479   1.920  26.861  0.00  0.00    -0.213 F 
BRANCH  14  16
ATOM     16  C   UNL A   1     -28.367   2.777  27.470  0.00  0.00    +0.027 A 
ATOM     17  C   UNL A   1     -28.153   3.833  26.759  0.00  0.00    -0.000 A 
ATOM     18  C   UNL A   1     -27.859   4.928  27.352  0.00  0.00    -0.000 A 
ATOM     19  C   UNL A   1     -26.980   5.046  28.443  0.00  0.00    -0.000 A 
ATOM     20  C   UNL A   1     -26.864   3.829  29.195  0.00  0.00    -0.000 A 
ATOM     21  C   UNL A   1     -27.650   2.728  28.784  0.00  0.00    -0.000 A 
ENDBRANCH  14  16
ENDBRANCH  13  14
ENDBRANCH  10  13
ENDBRANCH   2   7
BRANCH   3  22
ATOM     22  C   UNL A   1     -25.706  -0.755  27.602  0.00  0.00    +0.031 C 
BRANCH  22  23
ATOM     23  C   UNL A   1     -25.289   0.612  27.305  0.00  0.00    +0.031 C 
BRANCH  23  24
ATOM     24  C   UNL A   1     -25.216   0.996  26.006  0.00  0.00    -0.026 C 
ATOM     25  C   UNL A   1     -25.712   0.219  24.976  0.00  0.00    -0.005 C 
BRANCH  25  26
ATOM     26  C   UNL A   1     -26.747  -0.217  24.803  0.00  0.00    -0.005 C 
ATOM     27  C   UNL A   1     -27.879   0.203  24.350  0.00  0.00    -0.026 C 
BRANCH  27  28
ATOM     28  C   UNL A   1     -28.105   1.639  24.222  0.00  0.00    +0.026 C 
BRANCH  28  29
ATOM     29  C   UNL A   1     -29.319   2.225  23.776  0.00  0.00    +0.004 C 
ATOM     30  C   UNL A   1     -29.531   3.579  23.837  0.00  0.00    +0.000 C 
ATOM     31  C   UNL A   1     -29.982   1.406  22.764  0.00  0.00    +0.000 C 
ENDBRANCH  28  29
ENDBRANCH  27  28
ENDBRANCH  25  26
ENDBRANCH  23  24
ENDBRANCH  22  23
ENDBRANCH   3  22
TORSDOF 10
