MODEL 1173
MODEL 1
REMARK VINA RESULT:    -6.261      0.000      0.000
REMARK INTER + INTRA:         -14.970
REMARK INTER:                  -9.921
REMARK INTRA:                  -5.050
REMARK UNBOUND:                -5.050
REMARK  Name = No_1173-gen_results/8p0m/2024-11-26-14-13-15/
REMARK  10 active torsions:
REMARK  status: ('A' for Active; 'I' for Inactive)
REMARK    1  A    between atoms: C_2  and  N_7
REMARK    2  A    between atoms: C_3  and  C_17
REMARK    3  A    between atoms: C_10  and  N_11
REMARK    4  A    between atoms: N_11  and  C_14
REMARK    5  A    between atoms: C_14  and  C_15
REMARK    6  A    between atoms: C_17  and  C_18
REMARK    7  A    between atoms: C_18  and  C_19
REMARK    8  A    between atoms: C_20  and  C_21
REMARK    9  A    between atoms: C_22  and  C_23
REMARK   10  A    between atoms: C_23  and  C_24
REMARK                            x       y       z     vdW  Elec       q    Type
REMARK                         _______ _______ _______ _____ _____    ______ ____
ROOT
ATOM      1  C   UNL A   1     -26.088  -0.770  28.631  0.00  0.00    +0.010 A 
ATOM      2  C   UNL A   1     -25.475  -1.179  29.385  0.00  0.00    +0.048 A 
ATOM      3  C   UNL A   1     -26.444   0.651  28.770  0.00  0.00    -0.021 A 
ATOM      4  C   UNL A   1     -25.862   1.447  29.799  0.00  0.00    -0.004 A 
ATOM      5  C   UNL A   1     -24.706  -0.570  30.505  0.00  0.00    +0.015 A 
ATOM      6  C   UNL A   1     -25.018   0.746  30.671  0.00  0.00    +0.001 A 
ENDROOT
BRANCH   2   7
ATOM      7  N   UNL A   1     -25.085  -2.620  29.265  0.00  0.00    -0.295 N 
ATOM      8  C   UNL A   1     -24.072  -3.135  28.802  0.00  0.00    +0.092 C 
ATOM      9  C   UNL A   1     -23.989  -4.517  28.625  0.00  0.00    +0.022 C 
ATOM     10  C   UNL A   1     -26.125  -3.514  29.594  0.00  0.00    +0.150 C 
ATOM     11  C   UNL A   1     -25.958  -4.830  29.475  0.00  0.00    +0.038 C 
ATOM     12  C   UNL A   1     -24.899  -5.356  28.955  0.00  0.00    +0.005 C 
BRANCH  10  13
ATOM     13  N   UNL A   1     -27.330  -3.016  30.112  0.00  0.00    -0.165 NA
BRANCH  13  14
ATOM     14  C   UNL A   1     -28.044  -2.999  30.890  0.00  0.00    +0.259 C 
ATOM     15  F   UNL A   1     -28.494  -4.248  31.147  0.00  0.00    -0.213 F 
BRANCH  14  16
ATOM     16  C   UNL A   1     -28.646  -1.941  31.616  0.00  0.00    +0.027 A 
ATOM     17  C   UNL A   1     -28.304  -1.164  32.589  0.00  0.00    -0.000 A 
ATOM     18  C   UNL A   1     -28.138   0.083  32.355  0.00  0.00    -0.000 A 
ATOM     19  C   UNL A   1     -28.971   0.871  31.542  0.00  0.00    -0.000 A 
ATOM     20  C   UNL A   1     -29.682   0.099  30.563  0.00  0.00    -0.000 A 
ATOM     21  C   UNL A   1     -29.429  -1.292  30.517  0.00  0.00    -0.000 A 
ENDBRANCH  14  16
ENDBRANCH  13  14
ENDBRANCH  10  13
ENDBRANCH   2   7
BRANCH   3  22
ATOM     22  C   UNL A   1     -27.440   1.375  27.897  0.00  0.00    +0.031 C 
BRANCH  22  23
ATOM     23  C   UNL A   1     -28.215   0.490  27.033  0.00  0.00    +0.031 C 
BRANCH  23  24
ATOM     24  C   UNL A   1     -28.199   0.719  25.696  0.00  0.00    -0.026 C 
ATOM     25  C   UNL A   1     -27.024   0.801  24.973  0.00  0.00    -0.005 C 
BRANCH  25  26
ATOM     26  C   UNL A   1     -26.159   0.071  24.872  0.00  0.00    -0.005 C 
ATOM     27  C   UNL A   1     -24.897   0.069  25.139  0.00  0.00    -0.026 C 
BRANCH  27  28
ATOM     28  C   UNL A   1     -24.225   1.335  25.412  0.00  0.00    +0.026 C 
BRANCH  28  29
ATOM     29  C   UNL A   1     -23.867   1.792  26.708  0.00  0.00    +0.004 C 
ATOM     30  C   UNL A   1     -22.877   1.186  27.439  0.00  0.00    +0.000 C 
ATOM     31  C   UNL A   1     -24.177   3.208  26.893  0.00  0.00    +0.000 C 
ENDBRANCH  28  29
ENDBRANCH  27  28
ENDBRANCH  25  26
ENDBRANCH  23  24
ENDBRANCH  22  23
ENDBRANCH   3  22
TORSDOF 10
ENDMDL
ENDMDL
