MODEL 1174
MODEL 1
REMARK VINA RESULT:    -7.555      0.000      0.000
REMARK INTER + INTRA:         -15.079
REMARK INTER:                 -12.414
REMARK INTRA:                  -2.666
REMARK UNBOUND:                -2.666
REMARK  Name = No_1174-gen_results/8p0m/2024-11-26-14-13-15/
REMARK  11 active torsions:
REMARK  status: ('A' for Active; 'I' for Inactive)
REMARK    1  A    between atoms: C_2  and  O_12
REMARK    2  A    between atoms: O_12  and  C_13
REMARK    3  A    between atoms: C_13  and  C_14
REMARK    4  A    between atoms: C_13  and  C_17
REMARK    5  A    between atoms: C_14  and  O_16
REMARK    6  A    between atoms: O_16  and  C_24
REMARK    7  A    between atoms: C_17  and  C_18
REMARK    8  A    between atoms: C_22  and  C_25
REMARK    9  A    between atoms: C_24  and  C_31
REMARK   10  A    between atoms: C_31  and  O_32
REMARK   11  A    between atoms: O_32  and  C_33
REMARK                            x       y       z     vdW  Elec       q    Type
REMARK                         _______ _______ _______ _____ _____    ______ ____
ROOT
ATOM      1  C   UNL A   1     -24.912   2.200  27.907  0.00  0.00    +0.197 C 
ENDROOT
BRANCH   1   2
ATOM      2  C   UNL A   1     -25.492   3.367  28.424  0.00  0.00    +0.155 C 
ATOM      3  C   UNL A   1     -25.021   4.533  27.721  0.00  0.00    +0.036 C 
BRANCH   2   4
ATOM      4  O   UNL A   1     -25.276   3.562  29.831  0.00  0.00    -0.349 OA
BRANCH   4   5
ATOM      5  C   UNL A   1     -26.310   3.913  30.584  0.00  0.00    +0.189 C 
BRANCH   5   6
ATOM      6  C   UNL A   1     -26.934   2.811  31.293  0.00  0.00    +0.237 C 
BRANCH   6   7
ATOM      7  O   UNL A   1     -26.171   1.932  31.725  0.00  0.00    -0.470 OA
BRANCH   7   8
ATOM      8  C   UNL A   1     -25.826   1.570  32.778  0.00  0.00    +0.168 C 
ATOM      9  C   UNL A   1     -25.917   0.149  33.176  0.00  0.00    +0.014 C 
ATOM     10  C   UNL A   1     -25.371  -0.349  34.402  0.00  0.00    +0.034 C 
ENDBRANCH   7   8
ENDBRANCH   6   7
ENDBRANCH   5   6
ENDBRANCH   4   5
ENDBRANCH   2   4
ENDBRANCH   1   2
BRANCH   1  11
ATOM     11  O   UNL A   1     -24.776   2.238  26.458  0.00  0.00    -0.476 OA
BRANCH  11  13
ATOM     12  C   UNL A   1     -26.582   2.317  25.414  0.00  0.00    +0.037 A 
ATOM     13  C   UNL A   1     -25.860   1.588  25.656  0.00  0.00    +0.139 A 
ATOM     14  C   UNL A   1     -27.752   1.775  24.723  0.00  0.00    +0.004 A 
ATOM     15  C   UNL A   1     -28.944   2.579  24.373  0.00  0.00    +0.000 A 
ATOM     16  C   UNL A   1     -25.745   0.149  25.464  0.00  0.00    +0.037 A 
ATOM     17  C   UNL A   1     -26.825  -0.398  24.802  0.00  0.00    +0.004 A 
ATOM     18  C   UNL A   1     -27.867   0.384  24.466  0.00  0.00    +0.011 A 
ATOM     19  C   UNL A   1     -29.836   1.982  23.463  0.00  0.00    +0.001 A 
ATOM     20  C   UNL A   1     -29.932   0.629  23.263  0.00  0.00    +0.011 A 
ATOM     21  C   UNL A   1     -28.870  -0.170  23.638  0.00  0.00    +0.058 A 
ATOM     22 CL   UNL A   1     -28.980  -1.835  23.247  0.00  0.00    -0.082 Cl
ENDBRANCH  11  13
ENDBRANCH   1  11
BRANCH   1  23
ATOM     23  C   UNL A   1     -23.578   1.868  28.504  0.00  0.00    +0.072 C 
BRANCH  23  24
ATOM     24  C   UNL A   1     -23.531   0.837  29.391  0.00  0.00    -0.018 A 
ATOM     25  C   UNL A   1     -23.060   0.793  30.379  0.00  0.00    -0.004 A 
ATOM     26  C   UNL A   1     -22.989  -0.397  31.301  0.00  0.00    -0.000 A 
ATOM     27  C   UNL A   1     -23.561  -1.564  30.840  0.00  0.00    -0.000 A 
ATOM     28  C   UNL A   1     -24.191  -1.571  29.624  0.00  0.00    -0.000 A 
ATOM     29  C   UNL A   1     -24.226  -0.435  28.895  0.00  0.00    -0.004 A 
BRANCH  28  30
ATOM     30  C   UNL A   1     -24.871  -2.828  29.182  0.00  0.00    -0.000 A 
ATOM     31  C   UNL A   1     -24.274  -3.691  28.308  0.00  0.00    -0.000 A 
ATOM     32  C   UNL A   1     -26.243  -3.004  29.577  0.00  0.00    -0.000 A 
ATOM     33  C   UNL A   1     -24.223  -4.922  28.585  0.00  0.00    -0.000 A 
ATOM     34  C   UNL A   1     -26.533  -4.428  29.698  0.00  0.00    -0.000 A 
ATOM     35  C   UNL A   1     -24.960  -5.501  29.321  0.00  0.00    +0.000 A 
ENDBRANCH  28  30
ENDBRANCH  23  24
ENDBRANCH   1  23
TORSDOF 11
ENDMDL
ENDMDL
