REMARK  Name = No_1174-gen_results/8p0m/2024-11-26-14-13-15/
REMARK  11 active torsions:
REMARK  status: ('A' for Active; 'I' for Inactive)
REMARK    1  A    between atoms: C_2  and  O_12
REMARK    2  A    between atoms: O_12  and  C_13
REMARK    3  A    between atoms: C_13  and  C_14
REMARK    4  A    between atoms: C_13  and  C_17
REMARK    5  A    between atoms: C_14  and  O_16
REMARK    6  A    between atoms: O_16  and  C_24
REMARK    7  A    between atoms: C_17  and  C_18
REMARK    8  A    between atoms: C_22  and  C_25
REMARK    9  A    between atoms: C_24  and  C_31
REMARK   10  A    between atoms: C_31  and  O_32
REMARK   11  A    between atoms: O_32  and  C_33
REMARK                            x       y       z     vdW  Elec       q    Type
REMARK                         _______ _______ _______ _____ _____    ______ ____
ROOT
ATOM      1  C   UNL A   1     -29.586  -2.440  31.363  0.00  0.00    +0.197 C 
ENDROOT
BRANCH   1   2
ATOM      2  C   UNL A   1     -29.040  -3.696  31.664  0.00  0.00    +0.155 C 
ATOM      3  C   UNL A   1     -28.479  -4.311  30.488  0.00  0.00    +0.036 C 
BRANCH   2   4
ATOM      4  O   UNL A   1     -29.967  -4.616  32.264  0.00  0.00    -0.349 OA
BRANCH   4   5
ATOM      5  C   UNL A   1     -29.966  -5.874  31.844  0.00  0.00    +0.189 C 
BRANCH   5   6
ATOM      6  C   UNL A   1     -31.269  -6.370  31.440  0.00  0.00    +0.237 C 
BRANCH   6   7
ATOM      7  O   UNL A   1     -31.273  -7.319  30.640  0.00  0.00    -0.470 OA
BRANCH   7   8
ATOM      8  C   UNL A   1     -31.229  -8.481  30.722  0.00  0.00    +0.168 C 
ATOM      9  C   UNL A   1     -31.148  -9.340  29.522  0.00  0.00    +0.014 C 
ATOM     10  C   UNL A   1     -30.949 -10.756  29.594  0.00  0.00    +0.034 C 
ENDBRANCH   7   8
ENDBRANCH   6   7
ENDBRANCH   5   6
ENDBRANCH   4   5
ENDBRANCH   2   4
ENDBRANCH   1   2
BRANCH   1  11
ATOM     11  O   UNL A   1     -29.299  -2.019  30.000  0.00  0.00    -0.476 OA
BRANCH  11  13
ATOM     12  C   UNL A   1     -28.016  -0.814  28.878  0.00  0.00    +0.037 A 
ATOM     13  C   UNL A   1     -28.469  -0.785  29.829  0.00  0.00    +0.139 A 
ATOM     14  C   UNL A   1     -27.087   0.290  28.638  0.00  0.00    +0.004 A 
ATOM     15  C   UNL A   1     -26.252   0.411  27.422  0.00  0.00    +0.000 A 
ATOM     16  C   UNL A   1     -28.391   0.104  30.980  0.00  0.00    +0.037 A 
ATOM     17  C   UNL A   1     -27.533   1.167  30.787  0.00  0.00    +0.004 A 
ATOM     18  C   UNL A   1     -26.828   1.256  29.645  0.00  0.00    +0.011 A 
ATOM     19  C   UNL A   1     -25.645   1.665  27.222  0.00  0.00    +0.001 A 
ATOM     20  C   UNL A   1     -25.391   2.560  28.229  0.00  0.00    +0.011 A 
ATOM     21  C   UNL A   1     -26.098   2.444  29.409  0.00  0.00    +0.058 A 
ATOM     22 CL   UNL A   1     -25.843   3.663  30.586  0.00  0.00    -0.082 Cl
ENDBRANCH  11  13
ENDBRANCH   1  11
BRANCH   1  23
ATOM     23  C   UNL A   1     -31.064  -2.349  31.592  0.00  0.00    +0.072 C 
BRANCH  23  24
ATOM     24  C   UNL A   1     -31.687  -1.206  31.198  0.00  0.00    -0.018 A 
ATOM     25  C   UNL A   1     -32.516  -1.075  30.494  0.00  0.00    -0.004 A 
ATOM     26  C   UNL A   1     -33.135   0.225  30.048  0.00  0.00    -0.000 A 
ATOM     27  C   UNL A   1     -32.581   1.376  30.567  0.00  0.00    -0.000 A 
ATOM     28  C   UNL A   1     -31.559   1.283  31.473  0.00  0.00    -0.000 A 
ATOM     29  C   UNL A   1     -31.105   0.063  31.829  0.00  0.00    -0.004 A 
BRANCH  28  30
ATOM     30  C   UNL A   1     -31.028   2.544  32.079  0.00  0.00    -0.000 A 
ATOM     31  C   UNL A   1     -30.602   3.583  31.302  0.00  0.00    -0.000 A 
ATOM     32  C   UNL A   1     -30.824   2.550  33.503  0.00  0.00    -0.000 A 
ATOM     33  C   UNL A   1     -31.023   4.750  31.537  0.00  0.00    -0.000 A 
ATOM     34  C   UNL A   1     -30.984   3.909  34.009  0.00  0.00    -0.000 A 
ATOM     35  C   UNL A   1     -31.442   5.142  32.581  0.00  0.00    +0.000 A 
ENDBRANCH  28  30
ENDBRANCH  23  24
ENDBRANCH   1  23
TORSDOF 11
