MODEL 1175
MODEL 1
REMARK VINA RESULT:    -6.662      0.000      0.000
REMARK INTER + INTRA:          -7.271
REMARK INTER:                  -7.051
REMARK INTRA:                  -0.220
REMARK UNBOUND:                -0.220
REMARK  Name = No_1175-gen_results/8p0m/2024-11-26-14-13-15/
REMARK  1 active torsions:
REMARK  status: ('A' for Active; 'I' for Inactive)
REMARK    1  A    between atoms: C_1  and  C_12
REMARK                            x       y       z     vdW  Elec       q    Type
REMARK                         _______ _______ _______ _____ _____    ______ ____
ROOT
ATOM      1  C   UNL A   1     -24.073  -2.802  29.775  0.00  0.00    +0.037 C 
ATOM      2  C   UNL A   1     -23.681  -1.838  29.160  0.00  0.00    -0.038 C 
ATOM      3  C   UNL A   1     -22.632  -1.020  29.544  0.00  0.00    +0.027 C 
ATOM      4  C   UNL A   1     -22.195   0.181  28.873  0.00  0.00    +0.030 C 
ATOM      5  C   UNL A   1     -22.790   0.621  28.075  0.00  0.00    -0.025 A 
ATOM      6  C   UNL A   1     -22.438   1.859  27.255  0.00  0.00    -0.005 A 
ATOM      7  C   UNL A   1     -23.190   2.299  26.141  0.00  0.00    -0.000 A 
ATOM      8  C   UNL A   1     -24.353   1.569  25.830  0.00  0.00    -0.000 A 
ATOM      9  C   UNL A   1     -24.687   0.424  26.466  0.00  0.00    -0.004 A 
ATOM     10  C   UNL A   1     -24.006  -0.008  27.514  0.00  0.00    -0.022 A 
ATOM     11  C   UNL A   1     -24.434  -1.197  28.097  0.00  0.00    +0.048 C 
ENDROOT
BRANCH   1  12
ATOM     12  C   UNL A   1     -24.999  -3.724  28.978  0.00  0.00    +0.340 C 
ATOM     13  F   UNL A   1     -25.887  -4.462  29.709  0.00  0.00    -0.193 F 
ATOM     14  F   UNL A   1     -24.224  -4.630  28.195  0.00  0.00    -0.193 F 
ENDBRANCH   1  12
TORSDOF 1
ENDMDL
ENDMDL
