REMARK  Name = No_1176-gen_results/8p0m/2024-11-26-14-13-15/
REMARK  6 active torsions:
REMARK  status: ('A' for Active; 'I' for Inactive)
REMARK    1  A    between atoms: C_3  and  C_12
REMARK    2  A    between atoms: C_5  and  C_15
REMARK    3  A    between atoms: C_15  and  C_16
REMARK    4  A    between atoms: C_16  and  C_17
REMARK    5  A    between atoms: C_20  and  C_21
REMARK    6  A    between atoms: C_21  and  C_25
REMARK                            x       y       z     vdW  Elec       q    Type
REMARK                         _______ _______ _______ _____ _____    ______ ____
ROOT
ATOM      1  C   UNL A   1     -24.535   1.433  25.528  0.00  0.00    +0.031 C 
ENDROOT
BRANCH   1   2
ATOM      2  C   UNL A   1     -23.733   1.813  26.602  0.00  0.00    -0.025 A 
ATOM      3  C   UNL A   1     -22.412   1.598  26.674  0.00  0.00    -0.005 A 
ATOM      4  C   UNL A   1     -21.674   1.902  27.934  0.00  0.00    -0.000 A 
ATOM      5  C   UNL A   1     -24.325   2.814  27.517  0.00  0.00    -0.022 A 
ATOM      6  C   UNL A   1     -22.439   2.485  28.941  0.00  0.00    -0.000 A 
ATOM      7  C   UNL A   1     -23.691   3.030  28.774  0.00  0.00    -0.004 A 
BRANCH   5   8
ATOM      8  C   UNL A   1     -25.568   3.374  27.276  0.00  0.00    +0.044 C 
ATOM      9  C   UNL A   1     -25.814   4.446  26.522  0.00  0.00    +0.009 C 
BRANCH   8  10
ATOM     10  C   UNL A   1     -26.252   3.766  28.741  0.00  0.00    -0.019 A 
ATOM     11  C   UNL A   1     -27.544   4.344  28.608  0.00  0.00    -0.008 A 
ATOM     12  C   UNL A   1     -28.136   4.600  29.905  0.00  0.00    -0.022 A 
ATOM     13  C   UNL A   1     -29.313   5.251  29.978  0.00  0.00    +0.031 C 
ATOM     14  C   UNL A   1     -27.551   3.968  31.041  0.00  0.00    -0.004 A 
ATOM     15  C   UNL A   1     -26.392   3.224  31.046  0.00  0.00    -0.001 A 
ATOM     16  C   UNL A   1     -25.759   3.135  29.871  0.00  0.00    -0.004 A 
ENDBRANCH   8  10
ENDBRANCH   5   8
ENDBRANCH   1   2
BRANCH   1  17
ATOM     17  C   UNL A   1     -25.291   0.205  25.580  0.00  0.00    +0.031 C 
BRANCH  17  22
ATOM     18  C   UNL A   1     -28.016  -0.814  28.878  0.00  0.00    +0.007 A 
ATOM     19  C   UNL A   1     -28.469  -0.785  29.829  0.00  0.00    +0.000 A 
ATOM     20  C   UNL A   1     -28.196   0.348  28.055  0.00  0.00    +0.080 A 
ATOM     21  C   UNL A   1     -27.442   0.510  26.795  0.00  0.00    +0.002 A 
ATOM     22  C   UNL A   1     -26.169  -0.079  26.679  0.00  0.00    -0.022 A 
ATOM     23  C   UNL A   1     -25.731  -0.961  27.688  0.00  0.00    -0.003 A 
ATOM     24  C   UNL A   1     -26.504  -1.222  28.758  0.00  0.00    +0.011 A 
ATOM     25  C   UNL A   1     -28.343  -2.004  30.779  0.00  0.00    +0.001 A 
ATOM     26  C   UNL A   1     -27.102  -2.690  30.680  0.00  0.00    +0.011 A 
ATOM     27  C   UNL A   1     -26.120  -2.355  29.651  0.00  0.00    +0.058 A 
ATOM     28 CL   UNL A   1     -24.781  -3.257  29.411  0.00  0.00    -0.082 Cl
BRANCH  20  29
ATOM     29  C   UNL A   1     -29.506   0.985  27.994  0.00  0.00    +0.388 C 
ATOM     30  O   UNL A   1     -29.742   1.929  27.171  0.00  0.00    -0.241 OA
ATOM     31  O   UNL A   1     -30.357   0.718  28.880  0.00  0.00    -0.241 OA
ENDBRANCH  20  29
ENDBRANCH  17  22
ENDBRANCH   1  17
TORSDOF 6
