MODEL 1176
MODEL 1
REMARK VINA RESULT:    -7.182      0.000      0.000
REMARK INTER + INTRA:         -13.448
REMARK INTER:                  -9.702
REMARK INTRA:                  -3.746
REMARK UNBOUND:                -3.746
REMARK  Name = No_1176-gen_results/8p0m/2024-11-26-14-13-15/
REMARK  6 active torsions:
REMARK  status: ('A' for Active; 'I' for Inactive)
REMARK    1  A    between atoms: C_3  and  C_12
REMARK    2  A    between atoms: C_5  and  C_15
REMARK    3  A    between atoms: C_15  and  C_16
REMARK    4  A    between atoms: C_16  and  C_17
REMARK    5  A    between atoms: C_20  and  C_21
REMARK    6  A    between atoms: C_21  and  C_25
REMARK                            x       y       z     vdW  Elec       q    Type
REMARK                         _______ _______ _______ _____ _____    ______ ____
ROOT
ATOM      1  C   UNL A   1     -25.966  -0.600  30.702  0.00  0.00    +0.031 C 
ENDROOT
BRANCH   1   2
ATOM      2  C   UNL A   1     -25.732  -1.851  30.134  0.00  0.00    -0.025 A 
ATOM      3  C   UNL A   1     -26.657  -2.814  30.017  0.00  0.00    -0.005 A 
ATOM      4  C   UNL A   1     -26.265  -4.171  29.538  0.00  0.00    -0.000 A 
ATOM      5  C   UNL A   1     -24.509  -1.958  29.309  0.00  0.00    -0.022 A 
ATOM      6  C   UNL A   1     -24.931  -4.301  29.161  0.00  0.00    -0.000 A 
ATOM      7  C   UNL A   1     -24.060  -3.259  28.942  0.00  0.00    -0.004 A 
BRANCH   5   8
ATOM      8  C   UNL A   1     -23.693  -0.864  29.073  0.00  0.00    +0.044 C 
ATOM      9  C   UNL A   1     -23.458   0.138  29.921  0.00  0.00    +0.009 C 
BRANCH   8  10
ATOM     10  C   UNL A   1     -24.242  -0.094  27.705  0.00  0.00    -0.019 A 
ATOM     11  C   UNL A   1     -23.360   0.926  27.256  0.00  0.00    -0.008 A 
ATOM     12  C   UNL A   1     -23.834   1.520  26.023  0.00  0.00    -0.022 A 
ATOM     13  C   UNL A   1     -23.186   2.582  25.508  0.00  0.00    +0.031 C 
ATOM     14  C   UNL A   1     -24.844   0.825  25.294  0.00  0.00    -0.004 A 
ATOM     15  C   UNL A   1     -25.507  -0.308  25.710  0.00  0.00    -0.001 A 
ATOM     16  C   UNL A   1     -25.181  -0.752  26.929  0.00  0.00    -0.004 A 
ENDBRANCH   8  10
ENDBRANCH   5   8
ENDBRANCH   1   2
BRANCH   1  17
ATOM     17  C   UNL A   1     -27.168   0.133  30.384  0.00  0.00    +0.031 C 
BRANCH  17  22
ATOM     18  C   UNL A   1     -27.140   2.981  27.034  0.00  0.00    +0.007 A 
ATOM     19  C   UNL A   1     -27.430   3.789  26.422  0.00  0.00    +0.000 A 
ATOM     20  C   UNL A   1     -26.659   3.320  28.343  0.00  0.00    +0.080 A 
ATOM     21  C   UNL A   1     -26.421   2.274  29.359  0.00  0.00    +0.002 A 
ATOM     22  C   UNL A   1     -27.190   1.096  29.321  0.00  0.00    -0.022 A 
ATOM     23  C   UNL A   1     -28.028   0.864  28.211  0.00  0.00    -0.003 A 
ATOM     24  C   UNL A   1     -28.113   1.762  27.212  0.00  0.00    +0.011 A 
ATOM     25  C   UNL A   1     -27.944   3.518  24.984  0.00  0.00    +0.001 A 
ATOM     26  C   UNL A   1     -28.685   2.313  24.851  0.00  0.00    +0.011 A 
ATOM     27  C   UNL A   1     -28.794   1.354  25.948  0.00  0.00    +0.058 A 
ATOM     28 CL   UNL A   1     -29.481  -0.113  25.746  0.00  0.00    -0.082 Cl
BRANCH  20  29
ATOM     29  C   UNL A   1     -25.755   4.453  28.502  0.00  0.00    +0.388 C 
ATOM     30  O   UNL A   1     -26.108   5.493  29.148  0.00  0.00    -0.241 OA
ATOM     31  O   UNL A   1     -24.681   4.473  27.849  0.00  0.00    -0.241 OA
ENDBRANCH  20  29
ENDBRANCH  17  22
ENDBRANCH   1  17
TORSDOF 6
ENDMDL
ENDMDL
