MODEL 1178
MODEL 1
REMARK VINA RESULT:    -5.126      0.000      0.000
REMARK INTER + INTRA:          -5.466
REMARK INTER:                  -5.425
REMARK INTRA:                  -0.041
REMARK UNBOUND:                -0.041
REMARK  Name = No_1178-gen_results/8p0m/2024-11-26-14-13-15/
REMARK  1 active torsions:
REMARK  status: ('A' for Active; 'I' for Inactive)
REMARK    1  A    between atoms: C_2  and  C_8
REMARK                            x       y       z     vdW  Elec       q    Type
REMARK                         _______ _______ _______ _____ _____    ______ ____
ROOT
ATOM      1  C   UNL A   1     -27.940 -12.015  31.537  0.00  0.00    +0.009 A 
ATOM      2  C   UNL A   1     -28.125 -11.447  32.405  0.00  0.00    +0.080 A 
ATOM      3  C   UNL A   1     -28.737 -11.614  30.316  0.00  0.00    +0.030 A 
ATOM      4  C   UNL A   1     -29.560 -10.737  30.409  0.00  0.00    +0.140 A 
ATOM      5  C   UNL A   1     -28.996 -10.312  32.726  0.00  0.00    +0.009 A 
ATOM      6  C   UNL A   1     -29.765  -9.975  31.622  0.00  0.00    +0.030 A 
ATOM      7  F   UNL A   1     -30.342 -10.566  29.332  0.00  0.00    -0.204 F 
ENDROOT
BRANCH   2   8
ATOM      8  C   UNL A   1     -27.221 -11.746  33.738  0.00  0.00    +0.388 C 
ATOM      9  O   UNL A   1     -27.095 -10.757  34.675  0.00  0.00    -0.241 OA
ATOM     10  O   UNL A   1     -26.755 -12.829  33.884  0.00  0.00    -0.241 OA
ENDBRANCH   2   8
TORSDOF 1
ENDMDL
ENDMDL
