REMARK  Name = No_1179-gen_results/8p0m/2024-11-26-14-13-15/
REMARK  7 active torsions:
REMARK  status: ('A' for Active; 'I' for Inactive)
REMARK    1  A    between atoms: C_3  and  C_4
REMARK    2  A    between atoms: C_6  and  C_13
REMARK    3  A    between atoms: C_13  and  O_15
REMARK    4  A    between atoms: O_15  and  C_17
REMARK    5  A    between atoms: C_17  and  C_18
REMARK    6  A    between atoms: C_17  and  C_30
REMARK    7  A    between atoms: C_21  and  C_24
REMARK                            x       y       z     vdW  Elec       q    Type
REMARK                         _______ _______ _______ _____ _____    ______ ____
ROOT
ATOM      1  O   UNL A   1     -30.109  -2.131  30.713  0.00  0.00    -0.433 OA
ENDROOT
BRANCH   1   2
ATOM      2  C   UNL A   1     -29.068  -2.720  30.298  0.00  0.00    +0.342 C 
ATOM      3  O   UNL A   1     -29.009  -3.928  30.279  0.00  0.00    -0.245 OA
BRANCH   2   7
ATOM      4  C   UNL A   1     -28.016  -0.814  28.878  0.00  0.00    +0.006 A 
ATOM      5  C   UNL A   1     -27.064  -0.119  28.608  0.00  0.00    +0.000 A 
ATOM      6  C   UNL A   1     -25.792  -0.430  29.076  0.00  0.00    +0.000 A 
ATOM      7  C   UNL A   1     -27.882  -1.899  29.863  0.00  0.00    +0.076 A 
ATOM      8  C   UNL A   1     -26.671  -2.327  30.321  0.00  0.00    +0.006 A 
ATOM      9  C   UNL A   1     -25.543  -1.585  29.932  0.00  0.00    +0.000 A 
BRANCH   6  10
ATOM     10  C   UNL A   1     -24.546   0.349  28.823  0.00  0.00    +0.002 A 
ATOM     11  C   UNL A   1     -23.241   0.022  29.332  0.00  0.00    +0.000 A 
ATOM     12  C   UNL A   1     -22.192   0.830  29.000  0.00  0.00    +0.002 A 
ATOM     13  C   UNL A   1     -22.147   1.778  28.029  0.00  0.00    +0.030 A 
ATOM     14  C   UNL A   1     -24.532   1.399  27.816  0.00  0.00    +0.030 A 
ATOM     15  C   UNL A   1     -23.362   2.069  27.461  0.00  0.00    +0.140 A 
ATOM     16  F   UNL A   1     -23.485   3.011  26.515  0.00  0.00    -0.204 F 
ENDBRANCH   6  10
ENDBRANCH   2   7
ENDBRANCH   1   2
BRANCH   1  17
ATOM     17  C   UNL A   1     -31.065  -2.537  31.238  0.00  0.00    +0.293 C 
BRANCH  17  18
ATOM     18  C   UNL A   1     -32.185  -2.925  30.510  0.00  0.00    +0.029 A 
ATOM     19  C   UNL A   1     -32.779  -3.949  30.647  0.00  0.00    -0.000 A 
ATOM     20  C   UNL A   1     -32.541  -2.016  29.407  0.00  0.00    -0.000 A 
ATOM     21  C   UNL A   1     -33.508  -2.379  28.476  0.00  0.00    -0.000 A 
ATOM     22  C   UNL A   1     -33.886  -4.385  29.739  0.00  0.00    -0.000 A 
ATOM     23  C   UNL A   1     -34.246  -3.525  28.707  0.00  0.00    -0.000 A 
BRANCH  21  24
ATOM     24  C   UNL A   1     -33.893  -1.466  27.393  0.00  0.00    -0.000 A 
ATOM     25  C   UNL A   1     -34.019  -0.205  27.660  0.00  0.00    -0.000 A 
ATOM     26  C   UNL A   1     -34.226   0.757  26.586  0.00  0.00    -0.000 A 
ATOM     27  C   UNL A   1     -34.334   0.226  25.300  0.00  0.00    +0.000 A 
ATOM     28  C   UNL A   1     -33.905  -1.904  26.093  0.00  0.00    -0.000 A 
ATOM     29  C   UNL A   1     -34.148  -1.087  25.044  0.00  0.00    -0.000 A 
ENDBRANCH  21  24
ENDBRANCH  17  18
BRANCH  17  30
ATOM     30  C   UNL A   1     -31.503  -1.449  32.349  0.00  0.00    +0.408 C 
ATOM     31  O   UNL A   1     -30.764  -0.994  33.049  0.00  0.00    -0.241 OA
ATOM     32  O   UNL A   1     -32.773  -1.148  32.398  0.00  0.00    -0.241 OA
ENDBRANCH  17  30
ENDBRANCH   1  17
TORSDOF 7
