MODEL 117
MODEL 1
REMARK VINA RESULT:    -4.563      0.000      0.000
REMARK INTER + INTRA:          -4.563
REMARK INTER:                  -4.563
REMARK INTRA:                   0.000
REMARK UNBOUND:                 0.000
REMARK  Name = No_117-gen_results/8p0m/2024-11-26-14-13-15/
REMARK  0 active torsions:
REMARK  status: ('A' for Active; 'I' for Inactive)
REMARK                            x       y       z     vdW  Elec       q    Type
REMARK                         _______ _______ _______ _____ _____    ______ ____
ROOT
ATOM      1  C   UNL A   1     -24.088  -3.166  29.127  0.00  0.00    +0.196 A 
ATOM      2  C   UNL A   1     -24.040  -4.326  28.790  0.00  0.00    +0.042 A 
ATOM      3  C   UNL A   1     -25.054  -5.234  29.025  0.00  0.00    +0.003 A 
ATOM      4  C   UNL A   1     -26.235  -4.763  29.665  0.00  0.00    +0.000 A 
ATOM      5  C   UNL A   1     -26.310  -3.427  29.868  0.00  0.00    +0.003 A 
ATOM      6  C   UNL A   1     -25.304  -2.626  29.573  0.00  0.00    +0.042 A 
ATOM      7  O   UNL A   1     -23.050  -2.294  28.821  0.00  0.00    -0.287 OA
ENDROOT
TORSDOF 0
ENDMDL
ENDMDL
