REMARK  Name = No_1180-gen_results/8p0m/2024-11-26-14-13-15/
REMARK  1 active torsions:
REMARK  status: ('A' for Active; 'I' for Inactive)
REMARK    1  A    between atoms: C_5  and  C_8
REMARK                            x       y       z     vdW  Elec       q    Type
REMARK                         _______ _______ _______ _____ _____    ______ ____
ROOT
ATOM      1  C   UNL A   1     -29.065   0.100  32.228  0.00  0.00    +0.249 C 
ATOM      2  N   UNL A   1     -30.134   0.309  32.340  0.00  0.00    -0.276 N 
ATOM      3  C   UNL A   1     -30.870   1.088  31.640  0.00  0.00    +0.096 C 
ATOM      4  C   UNL A   1     -32.296   1.239  31.989  0.00  0.00    +0.054 C 
ATOM      5  C   UNL A   1     -30.900  -0.388  33.437  0.00  0.00    +0.096 C 
ATOM      6  C   UNL A   1     -32.211  -0.239  33.714  0.00  0.00    +0.054 C 
ATOM      7  C   UNL A   1     -32.900   0.663  32.961  0.00  0.00    +0.155 C 
ATOM      8  O   UNL A   1     -28.180  -0.309  33.135  0.00  0.00    -0.270 OA
ATOM      9  O   UNL A   1     -34.198   0.920  33.149  0.00  0.00    -0.223 OA
ENDROOT
BRANCH   1  14
ATOM     10  C   UNL A   1     -28.016  -0.814  28.878  0.00  0.00    +0.030 A 
ATOM     11  C   UNL A   1     -28.469  -0.785  29.829  0.00  0.00    +0.007 A 
ATOM     12  C   UNL A   1     -27.136   0.236  28.535  0.00  0.00    +0.140 A 
ATOM     13  C   UNL A   1     -26.875   1.282  29.398  0.00  0.00    +0.030 A 
ATOM     14  C   UNL A   1     -28.361   0.199  30.924  0.00  0.00    +0.054 A 
ATOM     15  C   UNL A   1     -27.528   1.223  30.636  0.00  0.00    +0.007 A 
ATOM     16  F   UNL A   1     -26.488   0.257  27.353  0.00  0.00    -0.204 F 
ENDBRANCH   1  14
TORSDOF 1
