MODEL 1180
MODEL 1
REMARK VINA RESULT:    -6.537      0.000      0.000
REMARK INTER + INTRA:          -6.914
REMARK INTER:                  -6.920
REMARK INTRA:                   0.005
REMARK UNBOUND:                 0.005
REMARK  Name = No_1180-gen_results/8p0m/2024-11-26-14-13-15/
REMARK  1 active torsions:
REMARK  status: ('A' for Active; 'I' for Inactive)
REMARK    1  A    between atoms: C_5  and  C_8
REMARK                            x       y       z     vdW  Elec       q    Type
REMARK                         _______ _______ _______ _____ _____    ______ ____
ROOT
ATOM      1  C   UNL A   1     -23.242  -1.041  28.640  0.00  0.00    +0.249 C 
ATOM      2  N   UNL A   1     -23.505  -0.182  28.014  0.00  0.00    -0.276 N 
ATOM      3  C   UNL A   1     -24.439  -0.088  27.144  0.00  0.00    +0.096 C 
ATOM      4  C   UNL A   1     -24.597   1.171  26.390  0.00  0.00    +0.054 C 
ATOM      5  C   UNL A   1     -22.708   1.091  28.155  0.00  0.00    +0.096 C 
ATOM      6  C   UNL A   1     -22.896   2.231  27.460  0.00  0.00    +0.054 C 
ATOM      7  C   UNL A   1     -23.868   2.217  26.506  0.00  0.00    +0.155 C 
ATOM      8  O   UNL A   1     -22.075  -1.359  29.199  0.00  0.00    -0.270 OA
ATOM      9  O   UNL A   1     -24.138   3.274  25.734  0.00  0.00    -0.223 OA
ENDROOT
BRANCH   1  14
ATOM     10  C   UNL A   1     -24.782  -4.308  28.972  0.00  0.00    +0.030 A 
ATOM     11  C   UNL A   1     -24.141  -3.506  28.736  0.00  0.00    +0.007 A 
ATOM     12  C   UNL A   1     -25.954  -4.022  29.706  0.00  0.00    +0.140 A 
ATOM     13  C   UNL A   1     -26.260  -2.741  30.123  0.00  0.00    +0.030 A 
ATOM     14  C   UNL A   1     -24.234  -2.067  29.052  0.00  0.00    +0.054 A 
ATOM     15  C   UNL A   1     -25.342  -1.749  29.757  0.00  0.00    +0.007 A 
ATOM     16  F   UNL A   1     -26.845  -4.984  30.019  0.00  0.00    -0.204 F 
ENDBRANCH   1  14
TORSDOF 1
ENDMDL
ENDMDL
