REMARK  Name = No_1181-gen_results/8p0m/2024-11-26-14-13-15/
REMARK  4 active torsions:
REMARK  status: ('A' for Active; 'I' for Inactive)
REMARK    1  A    between atoms: C_2  and  O_7
REMARK    2  A    between atoms: C_6  and  O_9
REMARK    3  A    between atoms: O_9  and  C_10
REMARK    4  A    between atoms: C_10  and  C_11
REMARK                            x       y       z     vdW  Elec       q    Type
REMARK                         _______ _______ _______ _____ _____    ______ ____
ROOT
ATOM      1  C   UNL A   1     -28.016  -0.814  28.878  0.00  0.00    +0.074 A 
ATOM      2  C   UNL A   1     -27.064  -0.119  28.608  0.00  0.00    +0.142 A 
ATOM      3  C   UNL A   1     -25.792  -0.430  29.076  0.00  0.00    +0.037 A 
ATOM      4  C   UNL A   1     -25.576  -1.565  29.936  0.00  0.00    +0.006 A 
ATOM      5  C   UNL A   1     -26.735  -2.300  30.217  0.00  0.00    +0.037 A 
ATOM      6  C   UNL A   1     -27.918  -1.954  29.763  0.00  0.00    +0.142 A 
ENDROOT
BRANCH   2   7
ATOM      7  O   UNL A   1     -27.123   1.023  27.850  0.00  0.00    -0.471 OA
ATOM      8  C   UNL A   1     -26.938   0.951  26.527  0.00  0.00    +0.253 C 
ENDBRANCH   2   7
BRANCH   6   9
ATOM      9  O   UNL A   1     -28.977  -2.719  30.147  0.00  0.00    -0.471 OA
BRANCH   9  10
ATOM     10  C   UNL A   1     -30.128  -2.145  30.544  0.00  0.00    +0.228 C 
BRANCH  10  11
ATOM     11  C   UNL A   1     -30.641  -2.799  31.656  0.00  0.00    -0.001 C 
ATOM     12  C   UNL A   1     -31.792  -2.243  32.142  0.00  0.00    -0.005 C 
ATOM     13  C   UNL A   1     -30.857  -4.285  31.527  0.00  0.00    +0.030 C 
ENDBRANCH  10  11
ENDBRANCH   9  10
ENDBRANCH   6   9
TORSDOF 4
