MODEL 1181
MODEL 1
REMARK VINA RESULT:    -5.546      0.000      0.000
REMARK INTER + INTRA:          -7.170
REMARK INTER:                  -6.843
REMARK INTRA:                  -0.326
REMARK UNBOUND:                -0.326
REMARK  Name = No_1181-gen_results/8p0m/2024-11-26-14-13-15/
REMARK  4 active torsions:
REMARK  status: ('A' for Active; 'I' for Inactive)
REMARK    1  A    between atoms: C_2  and  O_7
REMARK    2  A    between atoms: C_6  and  O_9
REMARK    3  A    between atoms: O_9  and  C_10
REMARK    4  A    between atoms: C_10  and  C_11
REMARK                            x       y       z     vdW  Elec       q    Type
REMARK                         _______ _______ _______ _____ _____    ______ ____
ROOT
ATOM      1  C   UNL A   1     -25.514  -2.653  29.674  0.00  0.00    +0.074 A 
ATOM      2  C   UNL A   1     -26.354  -3.513  29.799  0.00  0.00    +0.142 A 
ATOM      3  C   UNL A   1     -26.081  -4.837  29.473  0.00  0.00    +0.037 A 
ATOM      4  C   UNL A   1     -24.801  -5.218  28.933  0.00  0.00    +0.006 A 
ATOM      5  C   UNL A   1     -23.896  -4.157  28.800  0.00  0.00    +0.037 A 
ATOM      6  C   UNL A   1     -24.210  -2.919  29.107  0.00  0.00    +0.142 A 
ENDROOT
BRANCH   2   7
ATOM      7  O   UNL A   1     -27.633  -3.294  30.245  0.00  0.00    -0.471 OA
ATOM      8  C   UNL A   1     -28.390  -4.330  30.623  0.00  0.00    +0.253 C 
ENDBRANCH   2   7
BRANCH   6   9
ATOM      9  O   UNL A   1     -23.262  -1.966  28.885  0.00  0.00    -0.471 OA
BRANCH   9  10
ATOM     10  C   UNL A   1     -23.617  -0.710  28.555  0.00  0.00    +0.228 C 
BRANCH  10  11
ATOM     11  C   UNL A   1     -22.575   0.173  28.804  0.00  0.00    -0.001 C 
ATOM     12  C   UNL A   1     -21.356  -0.434  28.931  0.00  0.00    -0.005 C 
ATOM     13  C   UNL A   1     -22.426   1.329  27.848  0.00  0.00    +0.030 C 
ENDBRANCH  10  11
ENDBRANCH   9  10
ENDBRANCH   6   9
TORSDOF 4
ENDMDL
ENDMDL
