REMARK  Name = No_1182-gen_results/8p0m/2024-11-26-14-13-15/
REMARK  2 active torsions:
REMARK  status: ('A' for Active; 'I' for Inactive)
REMARK    1  A    between atoms: C_2  and  C_3
REMARK    2  A    between atoms: C_3  and  C_5
REMARK                            x       y       z     vdW  Elec       q    Type
REMARK                         _______ _______ _______ _____ _____    ______ ____
ROOT
ATOM      1  O   UNL A   1     -28.123  -1.335  28.487  0.00  0.00    -0.279 OA
ATOM      2  C   UNL A   1     -27.481  -0.404  28.709  0.00  0.00    +0.231 C 
ATOM      3 CL   UNL A   1     -26.519   0.058  27.089  0.00  0.00    -0.043 Cl
ENDROOT
BRANCH   2   4
ATOM      4  C   UNL A   1     -27.190   0.246  29.527  0.00  0.00    +0.082 C 
BRANCH   4   5
ATOM      5  C   UNL A   1     -26.226   1.319  29.685  0.00  0.00    +0.009 C 
ATOM      6  C   UNL A   1     -25.587   1.711  28.504  0.00  0.00    +0.001 C 
ENDBRANCH   4   5
ENDBRANCH   2   4
TORSDOF 2
