MODEL 1182
MODEL 1
REMARK VINA RESULT:    -4.067      0.000      0.000
REMARK INTER + INTRA:          -4.666
REMARK INTER:                  -4.542
REMARK INTRA:                  -0.124
REMARK UNBOUND:                -0.124
REMARK  Name = No_1182-gen_results/8p0m/2024-11-26-14-13-15/
REMARK  2 active torsions:
REMARK  status: ('A' for Active; 'I' for Inactive)
REMARK    1  A    between atoms: C_2  and  C_3
REMARK    2  A    between atoms: C_3  and  C_5
REMARK                            x       y       z     vdW  Elec       q    Type
REMARK                         _______ _______ _______ _____ _____    ______ ____
ROOT
ATOM      1  O   UNL A   1      -7.330 -10.343  20.408  0.00  0.00    -0.279 OA
ATOM      2  C   UNL A   1      -8.025  -9.570  19.911  0.00  0.00    +0.231 C 
ATOM      3 CL   UNL A   1      -6.992  -7.961  19.585  0.00  0.00    -0.043 Cl
ENDROOT
BRANCH   2   4
ATOM      4  C   UNL A   1      -9.063  -9.422  19.632  0.00  0.00    +0.082 C 
BRANCH   4   5
ATOM      5  C   UNL A   1      -9.872  -9.779  18.482  0.00  0.00    +0.009 C 
ATOM      6  C   UNL A   1      -9.257 -10.657  17.583  0.00  0.00    +0.001 C 
ENDBRANCH   4   5
ENDBRANCH   2   4
TORSDOF 2
ENDMDL
ENDMDL
