MODEL 1183
MODEL 1
REMARK VINA RESULT:    -5.834      0.000      0.000
REMARK INTER + INTRA:          -6.782
REMARK INTER:                  -6.516
REMARK INTRA:                  -0.265
REMARK UNBOUND:                -0.265
REMARK  Name = No_1183-gen_results/8p0m/2024-11-26-14-13-15/
REMARK  2 active torsions:
REMARK  status: ('A' for Active; 'I' for Inactive)
REMARK    1  A    between atoms: C_2  and  C_11
REMARK    2  A    between atoms: C_3  and  C_7
REMARK                            x       y       z     vdW  Elec       q    Type
REMARK                         _______ _______ _______ _____ _____    ______ ____
ROOT
ATOM      1  C   UNL A   1     -28.406 -11.860  31.247  0.00  0.00    +0.010 A 
ATOM      2  C   UNL A   1     -28.335 -11.488  32.231  0.00  0.00    +0.080 A 
ATOM      3  C   UNL A   1     -29.243 -11.170  30.342  0.00  0.00    +0.072 A 
ATOM      4  C   UNL A   1     -29.962 -10.053  30.717  0.00  0.00    +0.004 A 
ATOM      5  C   UNL A   1     -28.984 -10.332  32.880  0.00  0.00    +0.007 A 
ATOM      6  C   UNL A   1     -29.796  -9.644  32.047  0.00  0.00    +0.000 A 
ENDROOT
BRANCH   3   7
ATOM      7  C   UNL A   1     -29.403 -11.573  28.904  0.00  0.00    +0.419 C 
ATOM      8  F   UNL A   1     -28.452 -11.877  28.333  0.00  0.00    -0.166 F 
ATOM      9  F   UNL A   1     -30.377 -12.596  28.756  0.00  0.00    -0.166 F 
ATOM     10  F   UNL A   1     -30.109 -10.473  28.209  0.00  0.00    -0.166 F 
ENDBRANCH   3   7
BRANCH   2  11
ATOM     11  C   UNL A   1     -27.252 -12.248  33.118  0.00  0.00    +0.388 C 
ATOM     12  O   UNL A   1     -27.084 -12.242  34.318  0.00  0.00    -0.241 OA
ATOM     13  O   UNL A   1     -26.295 -12.949  32.458  0.00  0.00    -0.241 OA
ENDBRANCH   2  11
TORSDOF 2
ENDMDL
ENDMDL
