REMARK  Name = No_1184-gen_results/8p0m/2024-11-26-14-13-15/
REMARK  4 active torsions:
REMARK  status: ('A' for Active; 'I' for Inactive)
REMARK    1  A    between atoms: C_3  and  O_14
REMARK    2  A    between atoms: C_4  and  C_10
REMARK    3  A    between atoms: O_14  and  C_15
REMARK    4  A    between atoms: C_15  and  C_16
REMARK                            x       y       z     vdW  Elec       q    Type
REMARK                         _______ _______ _______ _____ _____    ______ ____
ROOT
ATOM      1 CL   UNL A   1     -28.149  -0.820  28.908  0.00  0.00    -0.077 Cl
ATOM      2  C   UNL A   1     -26.912  -0.080  28.945  0.00  0.00    +0.121 A 
ATOM      3  C   UNL A   1     -25.966  -0.212  29.623  0.00  0.00    +0.169 A 
ATOM      4  C   UNL A   1     -24.704   0.553  29.622  0.00  0.00    +0.127 A 
ATOM      5  C   UNL A   1     -24.601   1.544  28.621  0.00  0.00    +0.080 A 
ATOM      6  C   UNL A   1     -25.667   1.716  27.803  0.00  0.00    +0.097 A 
ATOM      7  C   UNL A   1     -26.761   0.962  27.884  0.00  0.00    +0.165 A 
ATOM      8 CL   UNL A   1     -23.165   2.458  28.557  0.00  0.00    -0.081 Cl
ATOM      9  F   UNL A   1     -27.759   1.162  27.036  0.00  0.00    -0.202 F 
ATOM     10 CL   UNL A   1     -25.517   2.947  26.589  0.00  0.00    -0.079 Cl
ENDROOT
BRANCH   4  11
ATOM     11  C   UNL A   1     -23.558   0.326  30.560  0.00  0.00    +0.392 C 
ATOM     12  O   UNL A   1     -23.515  -0.415  31.412  0.00  0.00    -0.240 OA
ATOM     13  O   UNL A   1     -22.447   1.071  30.351  0.00  0.00    -0.240 OA
ENDBRANCH   4  11
BRANCH   3  14
ATOM     14  O   UNL A   1     -25.908  -1.197  30.609  0.00  0.00    -0.417 OA
BRANCH  14  15
ATOM     15  C   UNL A   1     -25.870  -2.469  30.074  0.00  0.00    +0.418 C 
ATOM     16  O   UNL A   1     -24.784  -2.899  29.627  0.00  0.00    -0.240 OA
BRANCH  15  17
ATOM     17  C   UNL A   1     -27.152  -3.263  30.188  0.00  0.00    +0.491 C 
ATOM     18  F   UNL A   1     -28.064  -2.674  30.693  0.00  0.00    -0.161 F 
ATOM     19  F   UNL A   1     -26.769  -4.392  30.967  0.00  0.00    -0.161 F 
ATOM     20  F   UNL A   1     -27.442  -3.723  28.985  0.00  0.00    -0.161 F 
ENDBRANCH  15  17
ENDBRANCH  14  15
ENDBRANCH   3  14
TORSDOF 4
