MODEL 1185
MODEL 1
REMARK VINA RESULT:    -4.966      0.000      0.000
REMARK INTER + INTRA:          -5.329
REMARK INTER:                  -5.256
REMARK INTRA:                  -0.073
REMARK UNBOUND:                -0.073
REMARK  Name = No_1185-gen_results/8p0m/2024-11-26-14-13-15/
REMARK  1 active torsions:
REMARK  status: ('A' for Active; 'I' for Inactive)
REMARK    1  A    between atoms: C_3  and  C_7
REMARK                            x       y       z     vdW  Elec       q    Type
REMARK                         _______ _______ _______ _____ _____    ______ ____
ROOT
ATOM      1  C   UNL A   1     -25.682  -2.603  29.710  0.00  0.00    -0.000 A 
ATOM      2  C   UNL A   1     -26.193  -3.514  29.846  0.00  0.00    -0.000 A 
ATOM      3  C   UNL A   1     -24.368  -2.654  29.195  0.00  0.00    -0.000 A 
ATOM      4  C   UNL A   1     -23.875  -3.621  28.815  0.00  0.00    -0.000 A 
ATOM      5  C   UNL A   1     -25.778  -4.866  29.471  0.00  0.00    -0.000 A 
ATOM      6  C   UNL A   1     -24.535  -4.897  28.931  0.00  0.00    -0.000 A 
ENDROOT
BRANCH   3   7
ATOM      7  C   UNL A   1     -23.437  -1.415  28.942  0.00  0.00    -0.005 C 
ATOM      8  C   UNL A   1     -22.739  -0.879  29.801  0.00  0.00    -0.026 C 
ATOM      9  C   UNL A   1     -23.185  -0.988  31.178  0.00  0.00    +0.031 C 
ENDBRANCH   3   7
TORSDOF 1
ENDMDL
ENDMDL
