REMARK  Name = No_1185-gen_results/8p0m/2024-11-26-14-13-15/
REMARK  1 active torsions:
REMARK  status: ('A' for Active; 'I' for Inactive)
REMARK    1  A    between atoms: C_3  and  C_7
REMARK                            x       y       z     vdW  Elec       q    Type
REMARK                         _______ _______ _______ _____ _____    ______ ____
ROOT
ATOM      1  C   UNL A   1     -28.016  -0.814  28.878  0.00  0.00    -0.000 A 
ATOM      2  C   UNL A   1     -28.469  -0.785  29.829  0.00  0.00    -0.000 A 
ATOM      3  C   UNL A   1     -27.136   0.236  28.535  0.00  0.00    -0.000 A 
ATOM      4  C   UNL A   1     -26.805   1.051  29.276  0.00  0.00    -0.000 A 
ATOM      5  C   UNL A   1     -28.237   0.150  30.930  0.00  0.00    -0.000 A 
ATOM      6  C   UNL A   1     -27.352   1.124  30.607  0.00  0.00    -0.000 A 
ENDROOT
BRANCH   3   7
ATOM      7  C   UNL A   1     -26.383   0.386  27.165  0.00  0.00    -0.005 C 
ATOM      8  C   UNL A   1     -25.247   0.841  27.039  0.00  0.00    -0.026 C 
ATOM      9  C   UNL A   1     -24.797   1.784  28.046  0.00  0.00    +0.031 C 
ENDBRANCH   3   7
TORSDOF 1
