MODEL 1186
MODEL 1
REMARK VINA RESULT:    -7.930      0.000      0.000
REMARK INTER + INTRA:         -14.007
REMARK INTER:                 -11.638
REMARK INTRA:                  -2.369
REMARK UNBOUND:                -2.369
REMARK  Name = No_1186-gen_results/8p0m/2024-11-26-14-13-15/
REMARK  8 active torsions:
REMARK  status: ('A' for Active; 'I' for Inactive)
REMARK    1  A    between atoms: C_2  and  C_28
REMARK    2  A    between atoms: C_3  and  C_7
REMARK    3  A    between atoms: C_7  and  C_8
REMARK    4  A    between atoms: C_7  and  C_14
REMARK    5  A    between atoms: C_12  and  C_16
REMARK    6  A    between atoms: C_16  and  C_18
REMARK    7  A    between atoms: C_23  and  C_25
REMARK    8  A    between atoms: C_28  and  N_29
REMARK                            x       y       z     vdW  Elec       q    Type
REMARK                         _______ _______ _______ _____ _____    ______ ____
ROOT
ATOM      1  C   UNL A   1     -23.480   0.959  27.136  0.00  0.00    -0.018 A 
ATOM      2  C   UNL A   1     -22.189   1.303  27.242  0.00  0.00    -0.004 A 
ATOM      3  C   UNL A   1     -21.366   0.667  28.170  0.00  0.00    -0.001 A 
ATOM      4  C   UNL A   1     -21.931  -0.033  29.248  0.00  0.00    -0.004 A 
ATOM      5  C   UNL A   1     -23.319  -0.254  29.245  0.00  0.00    -0.019 A 
ATOM      6  C   UNL A   1     -24.104   0.254  28.253  0.00  0.00    -0.008 A 
ENDROOT
BRANCH   5   7
ATOM      7  C   UNL A   1     -23.891  -0.997  30.408  0.00  0.00    +0.038 C 
ATOM      8  C   UNL A   1     -22.994  -1.194  31.328  0.00  0.00    +0.009 C 
ATOM      9  C   UNL A   1     -25.102  -0.124  30.991  0.00  0.00    +0.009 C 
BRANCH   7  10
ATOM     10  C   UNL A   1     -24.480  -2.324  30.028  0.00  0.00    -0.019 A 
ATOM     11  C   UNL A   1     -23.910  -3.290  29.380  0.00  0.00    -0.004 A 
ATOM     12  C   UNL A   1     -24.521  -4.461  28.991  0.00  0.00    -0.000 A 
ATOM     13  C   UNL A   1     -25.900  -4.645  29.349  0.00  0.00    +0.007 A 
ATOM     14  C   UNL A   1     -26.597  -3.650  30.041  0.00  0.00    +0.080 A 
ATOM     15  C   UNL A   1     -25.926  -2.508  30.441  0.00  0.00    +0.003 A 
BRANCH  14  16
ATOM     16  C   UNL A   1     -27.971  -3.936  30.426  0.00  0.00    +0.388 C 
ATOM     17  O   UNL A   1     -28.324  -4.966  30.775  0.00  0.00    -0.241 OA
ATOM     18  O   UNL A   1     -28.930  -2.997  30.118  0.00  0.00    -0.241 OA
ENDBRANCH  14  16
ENDBRANCH   7  10
ENDBRANCH   5   7
BRANCH   1  19
ATOM     19  C   UNL A   1     -24.380   1.672  26.247  0.00  0.00    +0.056 C 
BRANCH  19  22
ATOM     20  C   UNL A   1     -25.345   3.498  27.720  0.00  0.00    +0.001 A 
ATOM     21  C   UNL A   1     -25.445   4.527  27.927  0.00  0.00    +0.058 A 
ATOM     22  C   UNL A   1     -24.635   3.160  26.520  0.00  0.00    -0.017 A 
ATOM     23  C   UNL A   1     -24.257   4.068  25.616  0.00  0.00    -0.004 A 
ATOM     24  C   UNL A   1     -25.133   5.676  27.089  0.00  0.00    +0.005 A 
ATOM     25  C   UNL A   1     -24.495   5.378  25.965  0.00  0.00    -0.000 A 
BRANCH  21  26
ATOM     26  C   UNL A   1     -26.177   5.036  29.278  0.00  0.00    +0.306 C 
ATOM     27  O   UNL A   1     -27.403   5.147  29.331  0.00  0.00    -0.265 OA
BRANCH  26  28
ATOM     28  N   UNL A   1     -25.422   5.220  30.209  0.00  0.00    +0.043 NA
ATOM     29  O   UNL A   1     -25.110   6.301  30.876  0.00  0.00    -0.153 OA
ENDBRANCH  26  28
ENDBRANCH  21  26
ENDBRANCH  19  22
BRANCH  19  30
ATOM     30  C   UNL A   1     -25.088   1.013  25.265  0.00  0.00    +0.076 C 
ATOM     31 BR   UNL A   1     -25.468   0.049  24.922  0.00  0.00    -0.080 Br
ENDBRANCH  19  30
ENDBRANCH   1  19
TORSDOF 8
ENDMDL
ENDMDL
