MODEL 1187
MODEL 1
REMARK VINA RESULT:    -4.357      0.000      0.000
REMARK INTER + INTRA:          -4.357
REMARK INTER:                  -4.357
REMARK INTRA:                   0.000
REMARK UNBOUND:                 0.000
REMARK  Name = No_1187-gen_results/8p0m/2024-11-26-14-13-15/
REMARK  0 active torsions:
REMARK  status: ('A' for Active; 'I' for Inactive)
REMARK                            x       y       z     vdW  Elec       q    Type
REMARK                         _______ _______ _______ _____ _____    ______ ____
ROOT
ATOM      1 CL   UNL A   1     -10.438 -10.431  16.939  0.00  0.00    -0.082 Cl
ATOM      2  C   UNL A   1      -9.669 -10.174  18.131  0.00  0.00    +0.058 A 
ATOM      3  C   UNL A   1      -8.563 -10.453  18.398  0.00  0.00    +0.011 A 
ATOM      4  C   UNL A   1      -7.863 -10.194  19.648  0.00  0.00    +0.001 A 
ATOM      5  C   UNL A   1      -8.560  -9.418  20.608  0.00  0.00    +0.000 A 
ATOM      6  C   UNL A   1      -9.820  -9.051  20.313  0.00  0.00    +0.001 A 
ATOM      7  C   UNL A   1     -10.380  -9.347  19.146  0.00  0.00    +0.011 A 
ENDROOT
TORSDOF 0
ENDMDL
ENDMDL
