REMARK  Name = No_1188-gen_results/8p0m/2024-11-26-14-13-15/
REMARK  0 active torsions:
REMARK  status: ('A' for Active; 'I' for Inactive)
REMARK                            x       y       z     vdW  Elec       q    Type
REMARK                         _______ _______ _______ _____ _____    ______ ____
ROOT
ATOM      1  C   UNL A   1     -28.016  -0.814  28.878  0.00  0.00    +0.001 A 
ATOM      2  C   UNL A   1     -27.064  -0.119  28.608  0.00  0.00    -0.000 A 
ATOM      3  C   UNL A   1     -25.792  -0.430  29.076  0.00  0.00    -0.004 A 
ATOM      4  C   UNL A   1     -24.546   0.349  28.823  0.00  0.00    -0.016 A 
ATOM      5  C   UNL A   1     -24.659   1.420  27.888  0.00  0.00    +0.051 A 
ATOM      6  C   UNL A   1     -25.947   1.681  27.379  0.00  0.00    +0.004 A 
ATOM      7  C   UNL A   1     -27.044   0.974  27.687  0.00  0.00    +0.001 A 
ATOM      8  C   UNL A   1     -29.236  -0.061  29.267  0.00  0.00    +0.011 A 
ATOM      9  C   UNL A   1     -29.500   0.992  28.343  0.00  0.00    +0.058 A 
ATOM     10  C   UNL A   1     -28.380   1.678  27.743  0.00  0.00    +0.011 A 
ATOM     11  C   UNL A   1     -23.430   2.086  27.498  0.00  0.00    +0.265 C 
ATOM     12  N   UNL A   1     -22.245   1.693  28.030  0.00  0.00    -0.201 NA
ATOM     13  C   UNL A   1     -22.149   0.673  28.890  0.00  0.00    +0.120 C 
ATOM     14  C   UNL A   1     -23.270  -0.086  29.282  0.00  0.00    +0.050 C 
ATOM     15  O   UNL A   1     -23.435   3.104  26.753  0.00  0.00    -0.268 OA
ATOM     16 CL   UNL A   1     -31.039   1.701  28.228  0.00  0.00    -0.082 Cl
ENDROOT
TORSDOF 0
