MODEL 1188
MODEL 1
REMARK VINA RESULT:    -7.111      0.000      0.000
REMARK INTER + INTRA:          -7.111
REMARK INTER:                  -7.111
REMARK INTRA:                   0.000
REMARK UNBOUND:                 0.000
REMARK  Name = No_1188-gen_results/8p0m/2024-11-26-14-13-15/
REMARK  0 active torsions:
REMARK  status: ('A' for Active; 'I' for Inactive)
REMARK                            x       y       z     vdW  Elec       q    Type
REMARK                         _______ _______ _______ _____ _____    ______ ____
ROOT
ATOM      1  C   UNL A   1     -30.976 -10.122  29.553  0.00  0.00    +0.001 A 
ATOM      2  C   UNL A   1     -30.130 -10.469  30.345  0.00  0.00    -0.000 A 
ATOM      3  C   UNL A   1     -29.948  -9.789  31.544  0.00  0.00    -0.004 A 
ATOM      4  C   UNL A   1     -28.937 -10.110  32.593  0.00  0.00    -0.016 A 
ATOM      5  C   UNL A   1     -28.204 -11.318  32.403  0.00  0.00    +0.051 A 
ATOM      6  C   UNL A   1     -28.447 -12.025  31.208  0.00  0.00    +0.004 A 
ATOM      7  C   UNL A   1     -29.336 -11.655  30.274  0.00  0.00    +0.001 A 
ATOM      8  C   UNL A   1     -30.524 -10.107  28.138  0.00  0.00    +0.011 A 
ATOM      9  C   UNL A   1     -29.847 -11.317  27.807  0.00  0.00    +0.058 A 
ATOM     10  C   UNL A   1     -29.043 -11.955  28.822  0.00  0.00    +0.011 A 
ATOM     11  C   UNL A   1     -27.336 -11.739  33.488  0.00  0.00    +0.265 C 
ATOM     12  N   UNL A   1     -27.238 -10.985  34.612  0.00  0.00    -0.201 NA
ATOM     13  C   UNL A   1     -27.948  -9.865  34.787  0.00  0.00    +0.120 C 
ATOM     14  C   UNL A   1     -28.871  -9.403  33.827  0.00  0.00    +0.050 C 
ATOM     15  O   UNL A   1     -26.575 -12.739  33.379  0.00  0.00    -0.268 OA
ATOM     16 CL   UNL A   1     -29.649 -11.804  26.192  0.00  0.00    -0.082 Cl
ENDROOT
TORSDOF 0
ENDMDL
ENDMDL
