MODEL 1189
MODEL 1
REMARK VINA RESULT:    -6.836      0.000      0.000
REMARK INTER + INTRA:          -7.562
REMARK INTER:                  -7.635
REMARK INTRA:                   0.073
REMARK UNBOUND:                 0.073
REMARK  Name = No_1189-gen_results/8p0m/2024-11-26-14-13-15/
REMARK  2 active torsions:
REMARK  status: ('A' for Active; 'I' for Inactive)
REMARK    1  A    between atoms: C_5  and  C_10
REMARK    2  A    between atoms: C_13  and  C_20
REMARK                            x       y       z     vdW  Elec       q    Type
REMARK                         _______ _______ _______ _____ _____    ______ ____
ROOT
ATOM      1  C   UNL A   1      -7.215   1.132  10.838  0.00  0.00    +0.071 A 
ATOM      2  C   UNL A   1      -6.372   0.426  10.335  0.00  0.00    +0.043 A 
ATOM      3  C   UNL A   1      -5.231   0.009  10.994  0.00  0.00    +0.141 A 
ATOM      4  C   UNL A   1      -4.156  -0.771  10.411  0.00  0.00    +0.034 A 
ATOM      5  C   UNL A   1      -4.256  -1.166   9.059  0.00  0.00    +0.059 A 
ATOM      6  C   UNL A   1      -5.435  -0.725   8.357  0.00  0.00    +0.005 A 
ATOM      7  C   UNL A   1      -6.425   0.046   8.919  0.00  0.00    +0.004 A 
ATOM      8  N   UNL A   1      -7.792   0.663  11.984  0.00  0.00    -0.179 NA
ATOM      9  C   UNL A   1      -8.955   1.180  12.426  0.00  0.00    +0.249 C 
ATOM     10  C   UNL A   1      -9.648   2.022  11.591  0.00  0.00    +0.104 C 
ATOM     11  C   UNL A   1      -9.508   2.003  10.593  0.00  0.00    +0.041 C 
ATOM     12  C   UNL A   1      -8.257   1.603   9.861  0.00  0.00    -0.006 A 
ATOM     13  O   UNL A   1      -9.235   0.997  13.692  0.00  0.00    -0.273 OA
ATOM     14  C   UNL A   1      -7.958   1.754   8.519  0.00  0.00    -0.003 A 
ATOM     15  C   UNL A   1      -7.233   0.724   8.000  0.00  0.00    -0.000 A 
ATOM     16  F   UNL A   1      -5.087   0.301  12.228  0.00  0.00    -0.204 F 
ENDROOT
BRANCH   5  17
ATOM     17  C   UNL A   1      -3.246  -1.937   8.408  0.00  0.00    +0.284 C 
ATOM     18  N   UNL A   1      -3.219  -1.956   7.068  0.00  0.00    -0.084 NA
ATOM     19  O   UNL A   1      -2.820  -3.080   8.921  0.00  0.00    -0.267 OA
ENDBRANCH   5  17
BRANCH  10  20
ATOM     20  C   UNL A   1     -10.903   2.646  12.249  0.00  0.00    -0.021 C 
ATOM     21  C   UNL A   1     -10.704   3.772  12.783  0.00  0.00    -0.030 C 
ATOM     22  C   UNL A   1      -9.471   4.564  12.583  0.00  0.00    +0.030 C 
ENDBRANCH  10  20
TORSDOF 2
ENDMDL
ENDMDL
