REMARK  Name = No_1189-gen_results/8p0m/2024-11-26-14-13-15/
REMARK  2 active torsions:
REMARK  status: ('A' for Active; 'I' for Inactive)
REMARK    1  A    between atoms: C_5  and  C_10
REMARK    2  A    between atoms: C_13  and  C_20
REMARK                            x       y       z     vdW  Elec       q    Type
REMARK                         _______ _______ _______ _____ _____    ______ ____
ROOT
ATOM      1  C   UNL A   1     -28.016  -0.814  28.878  0.00  0.00    +0.071 A 
ATOM      2  C   UNL A   1     -27.064  -0.119  28.608  0.00  0.00    +0.043 A 
ATOM      3  C   UNL A   1     -27.001   0.691  27.491  0.00  0.00    +0.141 A 
ATOM      4  C   UNL A   1     -25.855   1.482  27.083  0.00  0.00    +0.034 A 
ATOM      5  C   UNL A   1     -24.690   1.453  27.881  0.00  0.00    +0.059 A 
ATOM      6  C   UNL A   1     -24.738   0.601  29.042  0.00  0.00    +0.005 A 
ATOM      7  C   UNL A   1     -25.823  -0.169  29.389  0.00  0.00    +0.004 A 
ATOM      8  N   UNL A   1     -29.215  -0.173  29.013  0.00  0.00    -0.179 NA
ATOM      9  C   UNL A   1     -30.246  -0.774  29.639  0.00  0.00    +0.249 C 
ATOM     10  C   UNL A   1     -29.998  -1.939  30.322  0.00  0.00    +0.104 C 
ATOM     11  C   UNL A   1     -29.072  -2.172  30.644  0.00  0.00    +0.041 C 
ATOM     12  C   UNL A   1     -27.766  -1.743  30.034  0.00  0.00    -0.006 A 
ATOM     13  O   UNL A   1     -31.441  -0.306  29.382  0.00  0.00    -0.273 OA
ATOM     14  C   UNL A   1     -26.491  -2.198  30.318  0.00  0.00    -0.003 A 
ATOM     15  C   UNL A   1     -25.537  -1.228  30.257  0.00  0.00    -0.000 A 
ATOM     16  F   UNL A   1     -28.029   0.792  26.740  0.00  0.00    -0.204 F 
ENDROOT
BRANCH   5  17
ATOM     17  C   UNL A   1     -23.519   2.203  27.555  0.00  0.00    +0.284 C 
ATOM     18  N   UNL A   1     -23.433   2.758  26.338  0.00  0.00    -0.084 NA
ATOM     19  O   UNL A   1     -22.330   1.852  28.016  0.00  0.00    -0.267 OA
ENDBRANCH   5  17
BRANCH  10  20
ATOM     20  C   UNL A   1     -31.275  -2.599  30.897  0.00  0.00    -0.021 C 
ATOM     21  C   UNL A   1     -31.064  -3.655  31.555  0.00  0.00    -0.030 C 
ATOM     22  C   UNL A   1     -29.717  -4.097  31.979  0.00  0.00    +0.030 C 
ENDBRANCH  10  20
TORSDOF 2
