MODEL 118
MODEL 1
REMARK VINA RESULT:    -4.293      0.000      0.000
REMARK INTER + INTRA:          -4.293
REMARK INTER:                  -4.293
REMARK INTRA:                   0.000
REMARK UNBOUND:                 0.000
REMARK  Name = No_118-gen_results/8p0m/2024-11-26-14-13-15/
REMARK  0 active torsions:
REMARK  status: ('A' for Active; 'I' for Inactive)
REMARK                            x       y       z     vdW  Elec       q    Type
REMARK                         _______ _______ _______ _____ _____    ______ ____
ROOT
ATOM      1  C   UNL A   1     -24.970  -5.366  28.992  0.00  0.00    +0.000 A 
ATOM      2  C   UNL A   1     -24.201  -4.687  28.747  0.00  0.00    +0.000 A 
ATOM      3  C   UNL A   1     -26.132  -4.733  29.616  0.00  0.00    +0.000 A 
ATOM      4  C   UNL A   1     -26.198  -3.379  29.831  0.00  0.00    +0.000 A 
ATOM      5  C   UNL A   1     -24.000  -3.242  28.851  0.00  0.00    +0.000 A 
ATOM      6  C   UNL A   1     -25.120  -2.621  29.453  0.00  0.00    +0.000 A 
ENDROOT
TORSDOF 0
ENDMDL
ENDMDL
