REMARK  Name = No_1190-gen_results/8p0m/2024-11-26-14-13-15/
REMARK  5 active torsions:
REMARK  status: ('A' for Active; 'I' for Inactive)
REMARK    1  A    between atoms: C_2  and  C_7
REMARK    2  A    between atoms: C_3  and  C_10
REMARK    3  A    between atoms: C_10  and  C_11
REMARK    4  A    between atoms: C_12  and  C_17
REMARK    5  A    between atoms: C_17  and  C_18
REMARK                            x       y       z     vdW  Elec       q    Type
REMARK                         _______ _______ _______ _____ _____    ______ ____
ROOT
ATOM      1  C   UNL A   1     -25.283   0.652  27.319  0.00  0.00    -0.021 A 
ATOM      2  C   UNL A   1     -25.413   1.048  26.026  0.00  0.00    -0.021 A 
ATOM      3  C   UNL A   1     -24.774   1.592  28.232  0.00  0.00    -0.004 A 
ATOM      4  C   UNL A   1     -24.257   2.787  27.745  0.00  0.00    -0.000 A 
ATOM      5  C   UNL A   1     -24.972   2.261  25.523  0.00  0.00    -0.004 A 
ATOM      6  C   UNL A   1     -24.385   3.192  26.413  0.00  0.00    -0.000 A 
ENDROOT
BRANCH   1   7
ATOM      7  C   UNL A   1     -25.646  -0.724  27.686  0.00  0.00    +0.052 C 
BRANCH   7  10
ATOM      8  C   UNL A   1     -28.016  -0.814  28.878  0.00  0.00    +0.003 A 
ATOM      9  C   UNL A   1     -28.469  -0.785  29.829  0.00  0.00    +0.080 A 
ATOM     10  C   UNL A   1     -26.504  -0.778  28.877  0.00  0.00    -0.018 A 
ATOM     11  C   UNL A   1     -25.810  -0.853  30.103  0.00  0.00    -0.004 A 
ATOM     12  C   UNL A   1     -27.991  -0.892  31.226  0.00  0.00    +0.007 A 
ATOM     13  C   UNL A   1     -26.604  -0.868  31.265  0.00  0.00    -0.000 A 
BRANCH   9  14
ATOM     14  C   UNL A   1     -30.074  -0.836  29.861  0.00  0.00    +0.388 C 
ATOM     15  O   UNL A   1     -30.683  -0.070  30.692  0.00  0.00    -0.241 OA
ATOM     16  O   UNL A   1     -30.623  -1.529  29.013  0.00  0.00    -0.241 OA
ENDBRANCH   9  14
ENDBRANCH   7  10
ENDBRANCH   1   7
BRANCH   2  17
ATOM     17  C   UNL A   1     -25.955   0.125  25.009  0.00  0.00    +0.052 C 
BRANCH  17  18
ATOM     18  C   UNL A   1     -27.389  -0.057  24.964  0.00  0.00    -0.018 A 
ATOM     19  C   UNL A   1     -28.072  -0.559  23.908  0.00  0.00    -0.004 A 
ATOM     20  C   UNL A   1     -29.433  -0.905  24.074  0.00  0.00    -0.000 A 
ATOM     21  C   UNL A   1     -30.270  -0.341  25.042  0.00  0.00    -0.000 A 
ATOM     22  C   UNL A   1     -29.552   0.466  26.024  0.00  0.00    -0.000 A 
ATOM     23  C   UNL A   1     -28.187   0.650  26.045  0.00  0.00    -0.004 A 
ENDBRANCH  17  18
ENDBRANCH   2  17
TORSDOF 5
