MODEL 1190
MODEL 1
REMARK VINA RESULT:    -8.032      0.000      0.000
REMARK INTER + INTRA:         -11.560
REMARK INTER:                 -10.380
REMARK INTRA:                  -1.180
REMARK UNBOUND:                -1.180
REMARK  Name = No_1190-gen_results/8p0m/2024-11-26-14-13-15/
REMARK  5 active torsions:
REMARK  status: ('A' for Active; 'I' for Inactive)
REMARK    1  A    between atoms: C_2  and  C_7
REMARK    2  A    between atoms: C_3  and  C_10
REMARK    3  A    between atoms: C_10  and  C_11
REMARK    4  A    between atoms: C_12  and  C_17
REMARK    5  A    between atoms: C_17  and  C_18
REMARK                            x       y       z     vdW  Elec       q    Type
REMARK                         _______ _______ _______ _____ _____    ______ ____
ROOT
ATOM      1  C   UNL A   1     -23.750   0.692  28.210  0.00  0.00    -0.021 A 
ATOM      2  C   UNL A   1     -23.381  -0.339  29.013  0.00  0.00    -0.021 A 
ATOM      3  C   UNL A   1     -22.734   1.340  27.486  0.00  0.00    -0.004 A 
ATOM      4  C   UNL A   1     -21.408   1.031  27.769  0.00  0.00    -0.000 A 
ATOM      5  C   UNL A   1     -22.072  -0.718  29.261  0.00  0.00    -0.004 A 
ATOM      6  C   UNL A   1     -21.028  -0.026  28.601  0.00  0.00    -0.000 A 
ENDROOT
BRANCH   1   7
ATOM      7  C   UNL A   1     -25.164   1.091  28.161  0.00  0.00    +0.052 C 
BRANCH   7  10
ATOM      8  C   UNL A   1     -26.715   1.843  26.142  0.00  0.00    +0.003 A 
ATOM      9  C   UNL A   1     -27.089   1.512  25.215  0.00  0.00    +0.080 A 
ATOM     10  C   UNL A   1     -25.755   0.898  26.830  0.00  0.00    -0.018 A 
ATOM     11  C   UNL A   1     -25.319  -0.259  26.152  0.00  0.00    -0.004 A 
ATOM     12  C   UNL A   1     -26.780   0.395  24.293  0.00  0.00    +0.007 A 
ATOM     13  C   UNL A   1     -25.895  -0.492  24.889  0.00  0.00    -0.000 A 
BRANCH   9  14
ATOM     14  C   UNL A   1     -28.101   2.501  24.455  0.00  0.00    +0.388 C 
ATOM     15  O   UNL A   1     -28.867   2.002  23.554  0.00  0.00    -0.241 OA
ATOM     16  O   UNL A   1     -28.152   3.657  24.858  0.00  0.00    -0.241 OA
ENDBRANCH   9  14
ENDBRANCH   7  10
ENDBRANCH   1   7
BRANCH   2  17
ATOM     17  C   UNL A   1     -24.391  -1.081  29.794  0.00  0.00    +0.052 C 
BRANCH  17  18
ATOM     18  C   UNL A   1     -24.595  -2.476  29.474  0.00  0.00    -0.018 A 
ATOM     19  C   UNL A   1     -23.843  -3.187  28.600  0.00  0.00    -0.004 A 
ATOM     20  C   UNL A   1     -23.993  -4.592  28.551  0.00  0.00    -0.000 A 
ATOM     21  C   UNL A   1     -25.154  -5.267  28.941  0.00  0.00    -0.000 A 
ATOM     22  C   UNL A   1     -26.115  -4.410  29.628  0.00  0.00    -0.000 A 
ATOM     23  C   UNL A   1     -25.920  -3.076  29.910  0.00  0.00    -0.004 A 
ENDBRANCH  17  18
ENDBRANCH   2  17
TORSDOF 5
ENDMDL
ENDMDL
