MODEL 1191
MODEL 1
REMARK VINA RESULT:    -5.837      0.000      0.000
REMARK INTER + INTRA:          -6.800
REMARK INTER:                  -6.519
REMARK INTRA:                  -0.281
REMARK UNBOUND:                -0.281
REMARK  Name = No_1191-gen_results/8p0m/2024-11-26-14-13-15/
REMARK  2 active torsions:
REMARK  status: ('A' for Active; 'I' for Inactive)
REMARK    1  A    between atoms: C_2  and  C_11
REMARK    2  A    between atoms: C_3  and  C_7
REMARK                            x       y       z     vdW  Elec       q    Type
REMARK                         _______ _______ _______ _____ _____    ______ ____
ROOT
ATOM      1  C   UNL A   1     -28.406 -11.836  31.168  0.00  0.00    +0.010 A 
ATOM      2  C   UNL A   1     -28.295 -11.522  32.167  0.00  0.00    +0.080 A 
ATOM      3  C   UNL A   1     -29.297 -11.112  30.345  0.00  0.00    +0.072 A 
ATOM      4  C   UNL A   1     -30.017 -10.034  30.820  0.00  0.00    +0.004 A 
ATOM      5  C   UNL A   1     -28.932 -10.419  32.913  0.00  0.00    +0.007 A 
ATOM      6  C   UNL A   1     -29.794  -9.700  32.162  0.00  0.00    +0.000 A 
ENDROOT
BRANCH   3   7
ATOM      7  C   UNL A   1     -29.519 -11.433  28.895  0.00  0.00    +0.419 C 
ATOM      8  F   UNL A   1     -28.549 -11.734  28.385  0.00  0.00    -0.166 F 
ATOM      9  F   UNL A   1     -30.077 -10.375  28.187  0.00  0.00    -0.166 F 
ATOM     10  F   UNL A   1     -30.528 -12.399  28.776  0.00  0.00    -0.166 F 
ENDBRANCH   3   7
BRANCH   2  11
ATOM     11  C   UNL A   1     -27.217 -12.231  33.131  0.00  0.00    +0.388 C 
ATOM     12  O   UNL A   1     -26.373 -12.993  32.594  0.00  0.00    -0.241 OA
ATOM     13  O   UNL A   1     -27.381 -12.184  34.338  0.00  0.00    -0.241 OA
ENDBRANCH   2  11
TORSDOF 2
ENDMDL
ENDMDL
