MODEL 1192
MODEL 1
REMARK VINA RESULT:    -3.799      0.000      0.000
REMARK INTER + INTRA:          -4.736
REMARK INTER:                  -4.688
REMARK INTRA:                  -0.048
REMARK UNBOUND:                -0.048
REMARK  Name = No_1192-gen_results/8p0m/2024-11-26-14-13-15/
REMARK  4 active torsions:
REMARK  status: ('A' for Active; 'I' for Inactive)
REMARK    1  A    between atoms: C_2  and  C_3
REMARK    2  A    between atoms: C_3  and  C_4
REMARK    3  A    between atoms: C_4  and  C_5
REMARK    4  A    between atoms: C_5  and  C_6
REMARK                            x       y       z     vdW  Elec       q    Type
REMARK                         _______ _______ _______ _____ _____    ______ ____
ROOT
ATOM      1  C   UNL A   1     -28.335 -11.570  31.276  0.00  0.00    +0.006 C 
ENDROOT
BRANCH   1   2
ATOM      2  C   UNL A   1     -29.051 -12.081  30.133  0.00  0.00    +0.026 C 
BRANCH   2   4
ATOM      3  C   UNL A   1     -29.271 -12.097  27.840  0.00  0.00    -0.005 C 
ATOM      4  C   UNL A   1     -29.117 -11.498  28.879  0.00  0.00    -0.026 C 
ENDBRANCH   2   4
ENDBRANCH   1   2
BRANCH   1   5
ATOM      5  C   UNL A   1     -27.694 -12.491  32.140  0.00  0.00    +0.021 C 
BRANCH   5   6
ATOM      6  C   UNL A   1     -26.928 -12.103  33.264  0.00  0.00    +0.109 C 
ATOM      7  N   UNL A   1     -27.433 -12.321  34.464  0.00  0.00    -0.131 NA
ENDBRANCH   5   6
ENDBRANCH   1   5
TORSDOF 4
ENDMDL
ENDMDL
