MODEL 1193
MODEL 1
REMARK VINA RESULT:    -3.503      0.000      0.000
REMARK INTER + INTRA:          -4.021
REMARK INTER:                  -3.913
REMARK INTRA:                  -0.108
REMARK UNBOUND:                -0.108
REMARK  Name = No_1193-gen_results/8p0m/2024-11-26-14-13-15/
REMARK  2 active torsions:
REMARK  status: ('A' for Active; 'I' for Inactive)
REMARK    1  A    between atoms: C_1  and  C_2
REMARK    2  A    between atoms: C_3  and  C_4
REMARK                            x       y       z     vdW  Elec       q    Type
REMARK                         _______ _______ _______ _____ _____    ______ ____
ROOT
ATOM      1  C   UNL A   1     -12.283  -2.664  38.823  0.00  0.00    -0.026 C 
ATOM      2  C   UNL A   1     -11.533  -2.407  37.680  0.00  0.00    -0.005 C 
ENDROOT
BRANCH   1   3
ATOM      3  C   UNL A   1     -12.170  -1.978  39.812  0.00  0.00    +0.026 C 
ATOM      4  C   UNL A   1     -11.374  -2.342  40.953  0.00  0.00    +0.005 C 
ENDBRANCH   1   3
BRANCH   2   5
ATOM      5  C   UNL A   1     -10.631  -1.286  37.623  0.00  0.00    -0.000 C 
ATOM      6  C   UNL A   1     -10.827  -0.160  36.884  0.00  0.00    -0.000 C 
ENDBRANCH   2   5
TORSDOF 2
ENDMDL
ENDMDL
