REMARK  Name = No_1194-gen_results/8p0m/2024-11-26-14-13-15/
REMARK  1 active torsions:
REMARK  status: ('A' for Active; 'I' for Inactive)
REMARK    1  A    between atoms: C_2  and  C_7
REMARK                            x       y       z     vdW  Elec       q    Type
REMARK                         _______ _______ _______ _____ _____    ______ ____
ROOT
ATOM      1  C   UNL A   1     -28.016  -0.814  28.878  0.00  0.00    -0.003 A 
ATOM      2  C   UNL A   1     -27.064  -0.119  28.608  0.00  0.00    -0.006 A 
ATOM      3  C   UNL A   1     -26.876   1.133  28.913  0.00  0.00    -0.003 A 
ATOM      4  C   UNL A   1     -27.901   1.807  29.644  0.00  0.00    -0.000 A 
ATOM      5  C   UNL A   1     -29.046  -0.232  29.718  0.00  0.00    -0.000 A 
ATOM      6  C   UNL A   1     -28.940   1.052  30.060  0.00  0.00    -0.000 A 
ENDROOT
BRANCH   2   7
ATOM      7  C   UNL A   1     -25.873  -0.713  27.805  0.00  0.00    +0.121 C 
ATOM      8 CL   UNL A   1     -24.589  -0.223  27.977  0.00  0.00    -0.108 Cl
ENDBRANCH   2   7
TORSDOF 1
