MODEL 1194
MODEL 1
REMARK VINA RESULT:    -4.548      0.000      0.000
REMARK INTER + INTRA:          -4.887
REMARK INTER:                  -4.814
REMARK INTRA:                  -0.073
REMARK UNBOUND:                -0.073
REMARK  Name = No_1194-gen_results/8p0m/2024-11-26-14-13-15/
REMARK  1 active torsions:
REMARK  status: ('A' for Active; 'I' for Inactive)
REMARK    1  A    between atoms: C_2  and  C_7
REMARK                            x       y       z     vdW  Elec       q    Type
REMARK                         _______ _______ _______ _____ _____    ______ ____
ROOT
ATOM      1  C   UNL A   1     -25.775  -2.997  29.741  0.00  0.00    -0.003 A 
ATOM      2  C   UNL A   1     -24.740  -2.708  29.188  0.00  0.00    -0.006 A 
ATOM      3  C   UNL A   1     -23.888  -3.510  28.615  0.00  0.00    -0.003 A 
ATOM      4  C   UNL A   1     -24.169  -4.910  28.632  0.00  0.00    -0.000 A 
ATOM      5  C   UNL A   1     -26.186  -4.388  29.698  0.00  0.00    -0.000 A 
ATOM      6  C   UNL A   1     -25.362  -5.279  29.146  0.00  0.00    -0.000 A 
ENDROOT
BRANCH   2   7
ATOM      7  C   UNL A   1     -24.296  -1.221  29.101  0.00  0.00    +0.121 C 
ATOM      8 CL   UNL A   1     -22.957  -0.888  28.970  0.00  0.00    -0.108 Cl
ENDBRANCH   2   7
TORSDOF 1
ENDMDL
ENDMDL
