MODEL 1195
MODEL 1
REMARK VINA RESULT:    -6.483      0.000      0.000
REMARK INTER + INTRA:          -8.480
REMARK INTER:                  -7.620
REMARK INTRA:                  -0.860
REMARK UNBOUND:                -0.860
REMARK  Name = No_1195-gen_results/8p0m/2024-11-26-14-13-15/
REMARK  3 active torsions:
REMARK  status: ('A' for Active; 'I' for Inactive)
REMARK    1  A    between atoms: C_3  and  C_7
REMARK    2  A    between atoms: C_6  and  C_15
REMARK    3  A    between atoms: C_7  and  C_8
REMARK                            x       y       z     vdW  Elec       q    Type
REMARK                         _______ _______ _______ _____ _____    ______ ____
ROOT
ATOM      1  C   UNL A   1     -23.933  -3.305  28.820  0.00  0.00    -0.004 A 
ATOM      2  C   UNL A   1     -24.208  -4.320  28.888  0.00  0.00    -0.000 A 
ATOM      3  C   UNL A   1     -24.863  -2.358  29.366  0.00  0.00    -0.018 A 
ATOM      4  C   UNL A   1     -26.084  -2.697  29.791  0.00  0.00    -0.002 A 
ATOM      5  C   UNL A   1     -25.477  -4.911  29.289  0.00  0.00    +0.002 A 
ATOM      6  C   UNL A   1     -26.357  -4.046  29.776  0.00  0.00    +0.021 A 
ENDROOT
BRANCH   3   7
ATOM      7  C   UNL A   1     -24.433  -0.882  29.386  0.00  0.00    +0.045 C 
ATOM      8  C   UNL A   1     -24.833  -0.013  30.375  0.00  0.00    +0.009 C 
BRANCH   7   9
ATOM      9  C   UNL A   1     -23.820  -0.369  28.147  0.00  0.00    -0.018 A 
ATOM     10  C   UNL A   1     -22.672   0.370  28.157  0.00  0.00    -0.004 A 
ATOM     11  C   UNL A   1     -22.686   1.751  27.870  0.00  0.00    -0.000 A 
ATOM     12  C   UNL A   1     -23.897   2.308  27.520  0.00  0.00    -0.000 A 
ATOM     13  C   UNL A   1     -24.917   1.579  26.948  0.00  0.00    -0.000 A 
ATOM     14  C   UNL A   1     -24.774  -0.190  27.072  0.00  0.00    -0.004 A 
ENDBRANCH   7   9
ENDBRANCH   3   7
BRANCH   6  15
ATOM     15  C   UNL A   1     -27.751  -4.480  30.244  0.00  0.00    +0.122 C 
ATOM     16  N   UNL A   1     -28.680  -4.129  30.014  0.00  0.00    -0.146 NA
ENDBRANCH   6  15
TORSDOF 3
ENDMDL
ENDMDL
