REMARK  Name = No_1195-gen_results/8p0m/2024-11-26-14-13-15/
REMARK  3 active torsions:
REMARK  status: ('A' for Active; 'I' for Inactive)
REMARK    1  A    between atoms: C_3  and  C_7
REMARK    2  A    between atoms: C_6  and  C_15
REMARK    3  A    between atoms: C_7  and  C_8
REMARK                            x       y       z     vdW  Elec       q    Type
REMARK                         _______ _______ _______ _____ _____    ______ ____
ROOT
ATOM      1  C   UNL A   1     -28.016  -0.814  28.878  0.00  0.00    -0.004 A 
ATOM      2  C   UNL A   1     -28.469  -0.785  29.829  0.00  0.00    -0.000 A 
ATOM      3  C   UNL A   1     -28.196   0.348  28.055  0.00  0.00    -0.018 A 
ATOM      4  C   UNL A   1     -29.019   1.350  28.378  0.00  0.00    -0.002 A 
ATOM      5  C   UNL A   1     -29.411   0.180  30.378  0.00  0.00    +0.002 A 
ATOM      6  C   UNL A   1     -29.606   1.250  29.619  0.00  0.00    +0.021 A 
ENDROOT
BRANCH   3   7
ATOM      7  C   UNL A   1     -27.448   0.380  26.712  0.00  0.00    +0.045 C 
ATOM      8  C   UNL A   1     -28.099   0.255  25.506  0.00  0.00    +0.009 C 
BRANCH   7   9
ATOM      9  C   UNL A   1     -25.981   0.255  26.784  0.00  0.00    -0.018 A 
ATOM     10  C   UNL A   1     -25.335  -0.058  27.945  0.00  0.00    -0.004 A 
ATOM     11  C   UNL A   1     -24.569   0.900  28.640  0.00  0.00    -0.000 A 
ATOM     12  C   UNL A   1     -24.450   2.147  28.066  0.00  0.00    -0.000 A 
ATOM     13  C   UNL A   1     -24.564   2.358  26.709  0.00  0.00    -0.000 A 
ATOM     14  C   UNL A   1     -25.294   1.033  25.773  0.00  0.00    -0.004 A 
ENDBRANCH   7   9
ENDBRANCH   3   7
BRANCH   6  15
ATOM     15  C   UNL A   1     -30.568   2.372  30.027  0.00  0.00    +0.122 C 
ATOM     16  N   UNL A   1     -31.138   3.009  29.470  0.00  0.00    -0.146 NA
ENDBRANCH   6  15
TORSDOF 3
