MODEL 1196
MODEL 1
REMARK VINA RESULT:    -4.580      0.000      0.000
REMARK INTER + INTRA:          -4.580
REMARK INTER:                  -4.580
REMARK INTRA:                   0.000
REMARK UNBOUND:                 0.000
REMARK  Name = No_1196-gen_results/8p0m/2024-11-26-14-13-15/
REMARK  0 active torsions:
REMARK  status: ('A' for Active; 'I' for Inactive)
REMARK                            x       y       z     vdW  Elec       q    Type
REMARK                         _______ _______ _______ _____ _____    ______ ____
ROOT
ATOM      1  C   UNL A   1     -23.874  -3.278  28.896  0.00  0.00    +0.024 A 
ATOM      2  C   UNL A   1     -24.812  -3.996  29.155  0.00  0.00    +0.069 A 
ATOM      3  C   UNL A   1     -25.963  -3.488  29.747  0.00  0.00    +0.068 A 
ATOM      4  C   UNL A   1     -26.057  -2.098  30.112  0.00  0.00    +0.013 A 
ATOM      5  C   UNL A   1     -24.919  -1.345  29.798  0.00  0.00    +0.012 A 
ATOM      6  C   UNL A   1     -23.848  -1.876  29.253  0.00  0.00    +0.059 A 
ATOM      7 CL   UNL A   1     -22.500  -0.877  28.966  0.00  0.00    -0.082 Cl
ATOM      8 CL   UNL A   1     -24.852  -5.688  28.837  0.00  0.00    -0.081 Cl
ATOM      9 CL   UNL A   1     -27.413  -4.436  30.106  0.00  0.00    -0.081 Cl
ENDROOT
TORSDOF 0
ENDMDL
ENDMDL
