MODEL 1197
MODEL 1
REMARK VINA RESULT:    -3.549      0.000      0.000
REMARK INTER + INTRA:          -3.827
REMARK INTER:                  -3.756
REMARK INTRA:                  -0.071
REMARK UNBOUND:                -0.071
REMARK  Name = No_1197-gen_results/8p0m/2024-11-26-14-13-15/
REMARK  1 active torsions:
REMARK  status: ('A' for Active; 'I' for Inactive)
REMARK    1  A    between atoms: C_3  and  C_4
REMARK                            x       y       z     vdW  Elec       q    Type
REMARK                         _______ _______ _______ _____ _____    ______ ____
ROOT
ATOM      1  F   UNL A   1     -10.179  -8.954  20.743  0.00  0.00    -0.202 F 
ATOM      2  C   UNL A   1      -9.964  -9.357  19.593  0.00  0.00    +0.167 C 
ATOM      3  C   UNL A   1      -8.851  -9.532  19.178  0.00  0.00    +0.032 C 
ENDROOT
BRANCH   3   4
ATOM      4  C   UNL A   1      -7.585  -9.174  20.013  0.00  0.00    +0.002 C 
ATOM      5  C   UNL A   1      -7.015  -8.003  19.673  0.00  0.00    +0.000 C 
ENDBRANCH   3   4
TORSDOF 1
ENDMDL
ENDMDL
