REMARK  Name = No_1198-gen_results/8p0m/2024-11-26-14-13-15/
REMARK  3 active torsions:
REMARK  status: ('A' for Active; 'I' for Inactive)
REMARK    1  A    between atoms: C_3  and  C_7
REMARK    2  A    between atoms: C_7  and  C_8
REMARK    3  A    between atoms: C_7  and  C_14
REMARK                            x       y       z     vdW  Elec       q    Type
REMARK                         _______ _______ _______ _____ _____    ______ ____
ROOT
ATOM      1  C   UNL A   1     -27.459   0.493  26.770  0.00  0.00    +0.077 C 
ENDROOT
BRANCH   1   4
ATOM      2  C   UNL A   1     -28.016  -0.814  28.878  0.00  0.00    -0.004 A 
ATOM      3  C   UNL A   1     -28.469  -0.785  29.829  0.00  0.00    -0.000 A 
ATOM      4  C   UNL A   1     -28.182   0.428  28.113  0.00  0.00    -0.016 A 
ATOM      5  C   UNL A   1     -28.984   1.415  28.515  0.00  0.00    -0.004 A 
ATOM      6  C   UNL A   1     -29.380   0.138  30.461  0.00  0.00    -0.000 A 
ATOM      7  C   UNL A   1     -29.541   1.274  29.724  0.00  0.00    -0.000 A 
ENDBRANCH   1   4
BRANCH   1   8
ATOM      8  C   UNL A   1     -26.026   0.384  26.762  0.00  0.00    -0.016 A 
ATOM      9  C   UNL A   1     -25.315   0.049  27.870  0.00  0.00    -0.004 A 
ATOM     10  C   UNL A   1     -23.915   0.173  27.897  0.00  0.00    -0.000 A 
ATOM     11  C   UNL A   1     -23.295   0.964  26.935  0.00  0.00    -0.000 A 
ATOM     12  C   UNL A   1     -24.014   1.510  25.881  0.00  0.00    -0.000 A 
ATOM     13  C   UNL A   1     -25.380   1.284  25.799  0.00  0.00    -0.004 A 
ENDBRANCH   1   8
BRANCH   1  14
ATOM     14  C   UNL A   1     -28.200   0.365  25.602  0.00  0.00    +0.191 C 
ATOM     15  O   UNL A   1     -29.416   0.563  25.572  0.00  0.00    -0.220 OA
ENDBRANCH   1  14
TORSDOF 3
