MODEL 1198
MODEL 1
REMARK VINA RESULT:    -6.598      0.000      0.000
REMARK INTER + INTRA:          -8.415
REMARK INTER:                  -7.755
REMARK INTRA:                  -0.661
REMARK UNBOUND:                -0.661
REMARK  Name = No_1198-gen_results/8p0m/2024-11-26-14-13-15/
REMARK  3 active torsions:
REMARK  status: ('A' for Active; 'I' for Inactive)
REMARK    1  A    between atoms: C_3  and  C_7
REMARK    2  A    between atoms: C_7  and  C_8
REMARK    3  A    between atoms: C_7  and  C_14
REMARK                            x       y       z     vdW  Elec       q    Type
REMARK                         _______ _______ _______ _____ _____    ______ ____
ROOT
ATOM      1  C   UNL A   1     -23.730  -1.237  29.715  0.00  0.00    +0.077 C 
ENDROOT
BRANCH   1   4
ATOM      2  C   UNL A   1     -25.765  -2.715  30.085  0.00  0.00    -0.004 A 
ATOM      3  C   UNL A   1     -26.232  -3.632  29.856  0.00  0.00    -0.000 A 
ATOM      4  C   UNL A   1     -24.420  -2.584  29.512  0.00  0.00    -0.016 A 
ATOM      5  C   UNL A   1     -23.791  -3.600  28.920  0.00  0.00    -0.004 A 
ATOM      6  C   UNL A   1     -25.758  -4.860  29.265  0.00  0.00    -0.000 A 
ATOM      7  C   UNL A   1     -24.499  -4.725  28.760  0.00  0.00    -0.000 A 
ENDBRANCH   1   4
BRANCH   1   8
ATOM      8  C   UNL A   1     -23.440  -0.439  28.556  0.00  0.00    -0.016 A 
ATOM      9  C   UNL A   1     -22.507   0.549  28.567  0.00  0.00    -0.004 A 
ATOM     10  C   UNL A   1     -22.404   1.460  27.501  0.00  0.00    -0.000 A 
ATOM     11  C   UNL A   1     -23.470   1.576  26.616  0.00  0.00    -0.000 A 
ATOM     12  C   UNL A   1     -24.559   0.719  26.685  0.00  0.00    -0.000 A 
ATOM     13  C   UNL A   1     -24.597  -0.256  27.671  0.00  0.00    -0.004 A 
ENDBRANCH   1   8
BRANCH   1  14
ATOM     14  C   UNL A   1     -23.668  -0.702  30.995  0.00  0.00    +0.191 C 
ATOM     15  O   UNL A   1     -22.744  -0.960  31.769  0.00  0.00    -0.220 OA
ENDBRANCH   1  14
TORSDOF 3
ENDMDL
ENDMDL
