MODEL 119
MODEL 1
REMARK VINA RESULT:    -5.633      0.000      0.000
REMARK INTER + INTRA:          -6.585
REMARK INTER:                  -6.292
REMARK INTRA:                  -0.293
REMARK UNBOUND:                -0.293
REMARK  Name = No_119-gen_results/8p0m/2024-11-26-14-13-15/
REMARK  2 active torsions:
REMARK  status: ('A' for Active; 'I' for Inactive)
REMARK    1  A    between atoms: C_2  and  C_8
REMARK    2  A    between atoms: C_9  and  C_10
REMARK                            x       y       z     vdW  Elec       q    Type
REMARK                         _______ _______ _______ _____ _____    ______ ____
ROOT
ATOM      1  C   UNL A   1     -22.978  -0.956  28.705  0.00  0.00    -0.044 C 
ATOM      2  C   UNL A   1     -23.383  -1.585  29.447  0.00  0.00    -0.009 C 
ATOM      3  C   UNL A   1     -23.822   0.113  28.252  0.00  0.00    +0.022 C 
ATOM      4  C   UNL A   1     -23.293   1.177  27.374  0.00  0.00    +0.004 C 
ATOM      5  C   UNL A   1     -21.932   1.523  27.462  0.00  0.00    +0.001 C 
ATOM      6  C   UNL A   1     -21.073   0.722  28.243  0.00  0.00    +0.004 C 
ATOM      7  C   UNL A   1     -21.547  -0.344  28.913  0.00  0.00    +0.022 C 
ENDROOT
BRANCH   2   8
ATOM      8  C   UNL A   1     -24.600  -1.987  29.639  0.00  0.00    -0.001 C 
ATOM      9  C   UNL A   1     -25.195  -3.209  29.349  0.00  0.00    -0.000 C 
BRANCH   9  10
ATOM     10  C   UNL A   1     -24.434  -4.190  28.697  0.00  0.00    -0.000 C 
ATOM     11  C   UNL A   1     -24.682  -5.506  28.906  0.00  0.00    -0.000 C 
ENDBRANCH   9  10
ENDBRANCH   2   8
TORSDOF 2
ENDMDL
ENDMDL
