MODEL 11
MODEL 1
REMARK VINA RESULT:    -6.587      0.000      0.000
REMARK INTER + INTRA:          -7.083
REMARK INTER:                  -6.972
REMARK INTRA:                  -0.110
REMARK UNBOUND:                -0.110
REMARK  Name = No_11-gen_results/8p0m/2024-11-26-14-13-15/
REMARK  1 active torsions:
REMARK  status: ('A' for Active; 'I' for Inactive)
REMARK    1  A    between atoms: C_5  and  C_17
REMARK                            x       y       z     vdW  Elec       q    Type
REMARK                         _______ _______ _______ _____ _____    ______ ____
ROOT
ATOM      1  C   UNL A   1      -5.422  -0.560  11.254  0.00  0.00    +0.003 A 
ATOM      2  C   UNL A   1      -6.456  -0.065  10.867  0.00  0.00    +0.038 A 
ATOM      3  C   UNL A   1      -6.761   0.215   9.546  0.00  0.00    +0.017 A 
ATOM      4  C   UNL A   1      -5.786  -0.138   8.567  0.00  0.00    +0.003 A 
ATOM      5  C   UNL A   1      -4.720  -0.828   9.003  0.00  0.00    +0.053 A 
ATOM      6  C   UNL A   1      -4.536  -1.087  10.266  0.00  0.00    +0.005 A 
ATOM      7  C   UNL A   1      -8.006   1.031   9.337  0.00  0.00    +0.206 C 
ATOM      8  C   UNL A   1      -8.637   1.585  10.267  0.00  0.00    +0.017 A 
ATOM      9  C   UNL A   1      -9.903   2.322  10.077  0.00  0.00    -0.001 A 
ATOM     10  C   UNL A   1     -10.653   2.778  11.202  0.00  0.00    -0.000 A 
ATOM     11  C   UNL A   1     -10.139   2.700  12.456  0.00  0.00    +0.000 A 
ATOM     12  C   UNL A   1      -8.907   2.120  12.702  0.00  0.00    +0.003 A 
ATOM     13  C   UNL A   1      -8.212   1.596  11.661  0.00  0.00    +0.038 A 
ATOM     14  C   UNL A   1      -7.217   0.699  11.932  0.00  0.00    +0.195 C 
ATOM     15  F   UNL A   1      -8.330   1.165   8.039  0.00  0.00    -0.228 F 
ATOM     16  O   UNL A   1      -6.828   0.485  13.150  0.00  0.00    -0.287 OA
ENDROOT
BRANCH   5  17
ATOM     17  C   UNL A   1      -3.798  -1.329   7.965  0.00  0.00    +0.249 C 
ATOM     18  O   UNL A   1      -3.529  -2.558   7.905  0.00  0.00    -0.270 OA
ATOM     19  N   UNL A   1      -3.034  -0.469   7.310  0.00  0.00    -0.273 N 
ATOM     20  C   UNL A   1      -2.044  -0.907   6.310  0.00  0.00    +0.115 C 
ATOM     21  C   UNL A   1      -2.430   0.686   7.971  0.00  0.00    +0.115 C 
ENDBRANCH   5  17
TORSDOF 1
ENDMDL
ENDMDL
