REMARK  Name = No_12-gen_results/8p0m/2024-11-26-14-13-15/
REMARK  2 active torsions:
REMARK  status: ('A' for Active; 'I' for Inactive)
REMARK    1  A    between atoms: C_1  and  C_2
REMARK    2  A    between atoms: C_1  and  C_5
REMARK                            x       y       z     vdW  Elec       q    Type
REMARK                         _______ _______ _______ _____ _____    ______ ____
ROOT
ATOM      1  C   UNL A   1     -28.016  -0.814  28.878  0.00  0.00    +0.260 C 
ATOM      2  F   UNL A   1     -29.007  -0.532  28.223  0.00  0.00    -0.226 F 
ENDROOT
BRANCH   1   3
ATOM      3  C   UNL A   1     -27.064  -0.119  28.608  0.00  0.00    +0.236 C 
ATOM      4  F   UNL A   1     -27.043   0.244  27.428  0.00  0.00    -0.231 F 
ENDBRANCH   1   3
BRANCH   1   5
ATOM      5  C   UNL A   1     -28.041  -1.750  29.961  0.00  0.00    +0.245 C 
ATOM      6  O   UNL A   1     -27.076  -2.365  30.393  0.00  0.00    -0.285 OA
ENDBRANCH   1   5
TORSDOF 2
