REMARK  Name = No_120-gen_results/8p0m/2024-11-26-14-13-15/
REMARK  2 active torsions:
REMARK  status: ('A' for Active; 'I' for Inactive)
REMARK    1  A    between atoms: C_6  and  C_8
REMARK    2  A    between atoms: C_8  and  C_10
REMARK                            x       y       z     vdW  Elec       q    Type
REMARK                         _______ _______ _______ _____ _____    ______ ____
ROOT
ATOM      1  C   UNL A   1     -28.016  -0.814  28.878  0.00  0.00    +0.009 A 
ATOM      2  C   UNL A   1     -27.064  -0.119  28.608  0.00  0.00    +0.057 A 
ATOM      3  C   UNL A   1     -25.792  -0.430  29.076  0.00  0.00    +0.011 A 
ATOM      4  C   UNL A   1     -25.576  -1.565  29.936  0.00  0.00    +0.001 A 
ATOM      5  C   UNL A   1     -26.735  -2.300  30.217  0.00  0.00    -0.002 A 
ATOM      6  C   UNL A   1     -27.918  -1.954  29.763  0.00  0.00    +0.002 A 
ATOM      7 CL   UNL A   1     -27.146   1.292  27.641  0.00  0.00    -0.082 Cl
ENDROOT
BRANCH   6   8
ATOM      8  C   UNL A   1     -29.068  -2.788  30.181  0.00  0.00    +0.157 C 
ATOM      9  N   UNL A   1     -28.957  -4.077  30.436  0.00  0.00    -0.121 NA
BRANCH   8  10
ATOM     10  C   UNL A   1     -30.343  -2.186  30.379  0.00  0.00    +0.119 C 
ATOM     11  N   UNL A   1     -30.584  -1.015  30.441  0.00  0.00    -0.149 NA
ENDBRANCH   8  10
ENDBRANCH   6   8
TORSDOF 2
