REMARK  Name = No_1200-gen_results/8p0m/2024-11-26-14-13-15/
REMARK  3 active torsions:
REMARK  status: ('A' for Active; 'I' for Inactive)
REMARK    1  A    between atoms: C_4  and  C_8
REMARK    2  A    between atoms: C_8  and  C_9
REMARK    3  A    between atoms: C_9  and  C_10
REMARK                            x       y       z     vdW  Elec       q    Type
REMARK                         _______ _______ _______ _____ _____    ______ ____
ROOT
ATOM      1  C   UNL A   1     -24.369  -1.119  30.064  0.00  0.00    +0.031 C 
ENDROOT
BRANCH   1   5
ATOM      2  C   UNL A   1     -28.016  -0.814  28.878  0.00  0.00    +0.011 A 
ATOM      3  C   UNL A   1     -28.469  -0.785  29.829  0.00  0.00    +0.058 A 
ATOM      4  C   UNL A   1     -26.546  -0.876  28.850  0.00  0.00    -0.003 A 
ATOM      5  C   UNL A   1     -25.804  -1.032  30.057  0.00  0.00    -0.022 A 
ATOM      6  C   UNL A   1     -27.944  -0.987  31.207  0.00  0.00    +0.011 A 
ATOM      7  C   UNL A   1     -26.582  -1.039  31.223  0.00  0.00    -0.003 A 
ATOM      8 CL   UNL A   1     -30.281  -0.723  29.883  0.00  0.00    -0.082 Cl
ENDBRANCH   1   5
BRANCH   1   9
ATOM      9  C   UNL A   1     -23.595  -0.555  29.094  0.00  0.00    +0.031 C 
BRANCH   9  10
ATOM     10  C   UNL A   1     -23.765   0.576  28.415  0.00  0.00    -0.022 A 
ATOM     11  C   UNL A   1     -22.770   1.152  27.619  0.00  0.00    -0.004 A 
ATOM     12  C   UNL A   1     -23.052   2.295  26.862  0.00  0.00    -0.000 A 
ATOM     13  C   UNL A   1     -24.340   2.828  26.831  0.00  0.00    -0.000 A 
ATOM     14  C   UNL A   1     -25.325   2.281  27.583  0.00  0.00    -0.000 A 
ATOM     15  C   UNL A   1     -25.086   1.187  28.366  0.00  0.00    -0.004 A 
ENDBRANCH   9  10
ENDBRANCH   1   9
TORSDOF 3
