MODEL 1200
MODEL 1
REMARK VINA RESULT:    -6.861      0.000      0.000
REMARK INTER + INTRA:          -8.608
REMARK INTER:                  -8.064
REMARK INTRA:                  -0.544
REMARK UNBOUND:                -0.544
REMARK  Name = No_1200-gen_results/8p0m/2024-11-26-14-13-15/
REMARK  3 active torsions:
REMARK  status: ('A' for Active; 'I' for Inactive)
REMARK    1  A    between atoms: C_4  and  C_8
REMARK    2  A    between atoms: C_8  and  C_9
REMARK    3  A    between atoms: C_9  and  C_10
REMARK                            x       y       z     vdW  Elec       q    Type
REMARK                         _______ _______ _______ _____ _____    ______ ____
ROOT
ATOM      1  C   UNL A   1     -23.523  -0.544  29.755  0.00  0.00    +0.031 C 
ENDROOT
BRANCH   1   5
ATOM      2  C   UNL A   1     -21.947   1.730  27.082  0.00  0.00    +0.011 A 
ATOM      3  C   UNL A   1     -22.777   1.777  26.434  0.00  0.00    +0.058 A 
ATOM      4  C   UNL A   1     -22.128   0.970  28.329  0.00  0.00    -0.003 A 
ATOM      5  C   UNL A   1     -23.323   0.227  28.559  0.00  0.00    -0.022 A 
ATOM      6  C   UNL A   1     -24.083   1.065  26.408  0.00  0.00    +0.011 A 
ATOM      7  C   UNL A   1     -24.292   0.357  27.554  0.00  0.00    -0.003 A 
ATOM      8 CL   UNL A   1     -22.567   2.698  24.885  0.00  0.00    -0.082 Cl
ENDBRANCH   1   5
BRANCH   1   9
ATOM      9  C   UNL A   1     -24.607  -1.351  29.935  0.00  0.00    +0.031 C 
BRANCH   9  10
ATOM     10  C   UNL A   1     -24.813  -2.605  29.542  0.00  0.00    -0.022 A 
ATOM     11  C   UNL A   1     -23.855  -3.367  28.866  0.00  0.00    -0.004 A 
ATOM     12  C   UNL A   1     -24.111  -4.709  28.565  0.00  0.00    -0.000 A 
ATOM     13  C   UNL A   1     -25.285  -5.324  28.998  0.00  0.00    -0.000 A 
ATOM     14  C   UNL A   1     -26.224  -4.612  29.667  0.00  0.00    -0.000 A 
ATOM     15  C   UNL A   1     -26.032  -3.289  29.950  0.00  0.00    -0.004 A 
ENDBRANCH   9  10
ENDBRANCH   1   9
TORSDOF 3
ENDMDL
ENDMDL
