MODEL 1201
MODEL 1
REMARK VINA RESULT:    -8.108      0.000      0.000
REMARK INTER + INTRA:         -12.765
REMARK INTER:                 -11.426
REMARK INTRA:                  -1.339
REMARK UNBOUND:                -1.339
REMARK  Name = No_1201-gen_results/8p0m/2024-11-26-14-13-15/
REMARK  7 active torsions:
REMARK  status: ('A' for Active; 'I' for Inactive)
REMARK    1  A    between atoms: C_1  and  C_2
REMARK    2  A    between atoms: C_5  and  C_10
REMARK    3  A    between atoms: C_7  and  C_22
REMARK    4  A    between atoms: C_8  and  C_25
REMARK    5  A    between atoms: C_25  and  O_27
REMARK    6  A    between atoms: O_27  and  C_28
REMARK    7  A    between atoms: C_28  and  C_29
REMARK                            x       y       z     vdW  Elec       q    Type
REMARK                         _______ _______ _______ _____ _____    ______ ____
ROOT
ATOM      1  C   UNL A   1      -8.991   0.796  34.939  0.00  0.00    +0.089 A 
ATOM      2  C   UNL A   1      -9.374   1.313  36.309  0.00  0.00    +0.093 A 
ATOM      3  C   UNL A   1     -10.672   1.876  36.501  0.00  0.00    +0.016 A 
ATOM      4  C   UNL A   1     -11.424   1.998  35.442  0.00  0.00    +0.094 A 
ATOM      5  C   UNL A   1     -11.260   1.603  34.274  0.00  0.00    +0.172 A 
ATOM      6  N   UNL A   1      -9.998   1.007  34.059  0.00  0.00    -0.226 NA
ATOM      7  C   UNL A   1     -12.873   2.626  35.635  0.00  0.00    +0.286 A 
ATOM      8  O   UNL A   1     -13.285   3.037  36.684  0.00  0.00    -0.265 OA
ATOM      9  N   UNL A   1     -13.641   2.654  34.549  0.00  0.00    -0.152 NA
ATOM     10  C   UNL A   1     -13.405   2.322  33.325  0.00  0.00    +0.373 A 
ATOM     11  N   UNL A   1     -12.166   1.738  33.132  0.00  0.00    -0.172 NA
ATOM     12  O   UNL A   1     -14.086   2.332  32.309  0.00  0.00    -0.242 OA
ENDROOT
BRANCH   1  13
ATOM     13  C   UNL A   1      -7.896   0.284  34.910  0.00  0.00    +0.024 A 
ATOM     14  C   UNL A   1      -7.739  -1.087  35.085  0.00  0.00    +0.002 A 
ATOM     15  C   UNL A   1      -6.448  -1.833  35.082  0.00  0.00    +0.005 A 
ATOM     16  C   UNL A   1      -5.294  -1.081  34.710  0.00  0.00    +0.057 A 
ATOM     17  C   UNL A   1      -5.485   0.296  34.479  0.00  0.00    +0.011 A 
ATOM     18  C   UNL A   1      -6.669   0.922  34.549  0.00  0.00    +0.081 A 
BRANCH  16  19
ATOM     19  C   UNL A   1      -4.046  -1.804  34.649  0.00  0.00    +0.284 C 
ATOM     20  N   UNL A   1      -3.692  -2.371  33.579  0.00  0.00    -0.084 NA
ATOM     21  O   UNL A   1      -3.328  -2.040  35.687  0.00  0.00    -0.267 OA
ENDBRANCH  16  19
BRANCH  18  22
ATOM     22  C   UNL A   1      -6.719   2.377  34.255  0.00  0.00    +0.388 C 
ATOM     23  O   UNL A   1      -6.456   3.172  35.094  0.00  0.00    -0.241 OA
ATOM     24  O   UNL A   1      -7.173   2.669  33.051  0.00  0.00    -0.241 OA
ENDBRANCH  18  22
ENDBRANCH   1  13
BRANCH   2  25
ATOM     25  C   UNL A   1      -8.428   1.217  37.452  0.00  0.00    +0.343 C 
ATOM     26  O   UNL A   1      -7.690   2.115  37.616  0.00  0.00    -0.245 OA
BRANCH  25  27
ATOM     27  O   UNL A   1      -8.465   0.088  38.136  0.00  0.00    -0.440 OA
BRANCH  27  28
ATOM     28  C   UNL A   1      -9.363  -0.037  39.201  0.00  0.00    +0.235 C 
BRANCH  28  29
ATOM     29  C   UNL A   1     -10.376  -0.990  39.002  0.00  0.00    +0.021 A 
ATOM     30  C   UNL A   1     -10.640  -1.485  37.982  0.00  0.00    -0.001 A 
ATOM     31  C   UNL A   1     -11.730  -2.468  37.754  0.00  0.00    -0.000 A 
ATOM     32  C   UNL A   1     -12.451  -2.802  38.918  0.00  0.00    -0.000 A 
ATOM     33  C   UNL A   1     -12.179  -2.245  40.115  0.00  0.00    -0.000 A 
ATOM     34  C   UNL A   1     -11.146  -1.299  40.232  0.00  0.00    -0.001 A 
ENDBRANCH  28  29
ENDBRANCH  27  28
ENDBRANCH  25  27
ENDBRANCH   2  25
TORSDOF 7
ENDMDL
ENDMDL
