REMARK  Name = No_1201-gen_results/8p0m/2024-11-26-14-13-15/
REMARK  7 active torsions:
REMARK  status: ('A' for Active; 'I' for Inactive)
REMARK    1  A    between atoms: C_1  and  C_2
REMARK    2  A    between atoms: C_5  and  C_10
REMARK    3  A    between atoms: C_7  and  C_22
REMARK    4  A    between atoms: C_8  and  C_25
REMARK    5  A    between atoms: C_25  and  O_27
REMARK    6  A    between atoms: O_27  and  C_28
REMARK    7  A    between atoms: C_28  and  C_29
REMARK                            x       y       z     vdW  Elec       q    Type
REMARK                         _______ _______ _______ _____ _____    ______ ____
ROOT
ATOM      1  C   UNL A   1     -28.016  -0.814  28.878  0.00  0.00    +0.089 A 
ATOM      2  C   UNL A   1     -28.660  -0.460  30.201  0.00  0.00    +0.093 A 
ATOM      3  C   UNL A   1     -29.750  -1.249  30.677  0.00  0.00    +0.016 A 
ATOM      4  C   UNL A   1     -30.192  -2.184  29.881  0.00  0.00    +0.094 A 
ATOM      5  C   UNL A   1     -29.758  -2.603  28.793  0.00  0.00    +0.172 A 
ATOM      6  N   UNL A   1     -28.654  -1.866  28.312  0.00  0.00    -0.226 NA
ATOM      7  C   UNL A   1     -31.409  -3.073  30.392  0.00  0.00    +0.286 A 
ATOM      8  O   UNL A   1     -31.969  -2.895  31.438  0.00  0.00    -0.265 OA
ATOM      9  N   UNL A   1     -31.774  -4.070  29.590  0.00  0.00    -0.152 NA
ATOM     10  C   UNL A   1     -31.363  -4.421  28.419  0.00  0.00    +0.373 A 
ATOM     11  N   UNL A   1     -30.280  -3.690  27.963  0.00  0.00    -0.172 NA
ATOM     12  O   UNL A   1     -31.673  -5.329  27.661  0.00  0.00    -0.242 OA
ENDROOT
BRANCH   1  13
ATOM     13  C   UNL A   1     -27.064  -0.119  28.608  0.00  0.00    +0.024 A 
ATOM     14  C   UNL A   1     -25.792  -0.430  29.076  0.00  0.00    +0.002 A 
ATOM     15  C   UNL A   1     -24.546   0.349  28.823  0.00  0.00    +0.005 A 
ATOM     16  C   UNL A   1     -24.659   1.420  27.888  0.00  0.00    +0.057 A 
ATOM     17  C   UNL A   1     -25.947   1.681  27.379  0.00  0.00    +0.011 A 
ATOM     18  C   UNL A   1     -27.044   0.974  27.687  0.00  0.00    +0.081 A 
BRANCH  16  19
ATOM     19  C   UNL A   1     -23.447   2.147  27.592  0.00  0.00    +0.284 C 
ATOM     20  N   UNL A   1     -23.474   3.137  26.811  0.00  0.00    -0.084 NA
ATOM     21  O   UNL A   1     -22.287   1.744  27.966  0.00  0.00    -0.267 OA
ENDBRANCH  16  19
BRANCH  18  22
ATOM     22  C   UNL A   1     -28.332   1.353  27.052  0.00  0.00    +0.388 C 
ATOM     23  O   UNL A   1     -29.026   2.180  27.542  0.00  0.00    -0.241 OA
ATOM     24  O   UNL A   1     -28.650   0.625  25.999  0.00  0.00    -0.241 OA
ENDBRANCH  18  22
ENDBRANCH   1  13
BRANCH   2  25
ATOM     25  C   UNL A   1     -28.154   0.677  31.015  0.00  0.00    +0.343 C 
ATOM     26  O   UNL A   1     -27.576   0.415  32.003  0.00  0.00    -0.245 OA
BRANCH  25  27
ATOM     27  O   UNL A   1     -28.468   1.883  30.578  0.00  0.00    -0.440 OA
BRANCH  27  28
ATOM     28  C   UNL A   1     -27.794   2.994  31.095  0.00  0.00    +0.235 C 
BRANCH  28  29
ATOM     29  C   UNL A   1     -28.567   4.165  31.166  0.00  0.00    +0.021 A 
ATOM     30  C   UNL A   1     -29.697   4.240  30.899  0.00  0.00    -0.001 A 
ATOM     31  C   UNL A   1     -30.515   5.479  30.938  0.00  0.00    -0.000 A 
ATOM     32  C   UNL A   1     -29.805   6.620  31.365  0.00  0.00    -0.000 A 
ATOM     33  C   UNL A   1     -28.494   6.574  31.676  0.00  0.00    -0.000 A 
ATOM     34  C   UNL A   1     -27.791   5.360  31.581  0.00  0.00    -0.001 A 
ENDBRANCH  28  29
ENDBRANCH  27  28
ENDBRANCH  25  27
ENDBRANCH   2  25
TORSDOF 7
