REMARK  Name = No_1202-gen_results/8p0m/2024-11-26-14-13-15/
REMARK  2 active torsions:
REMARK  status: ('A' for Active; 'I' for Inactive)
REMARK    1  A    between atoms: C_2  and  C_5
REMARK    2  A    between atoms: N_9  and  C_10
REMARK                            x       y       z     vdW  Elec       q    Type
REMARK                         _______ _______ _______ _____ _____    ______ ____
ROOT
ATOM      1  C   UNL A   1     -28.016  -0.814  28.878  0.00  0.00    +0.005 A 
ATOM      2  C   UNL A   1     -28.469  -0.785  29.829  0.00  0.00    +0.055 A 
ATOM      3  C   UNL A   1     -26.504  -0.778  28.877  0.00  0.00    +0.000 A 
ATOM      4  C   UNL A   1     -25.810  -0.853  30.103  0.00  0.00    +0.000 A 
ATOM      5  C   UNL A   1     -26.567  -0.885  31.252  0.00  0.00    +0.000 A 
ATOM      6  C   UNL A   1     -27.941  -0.907  31.185  0.00  0.00    +0.005 A 
ENDROOT
BRANCH   2   7
ATOM      7  C   UNL A   1     -30.014  -0.841  29.851  0.00  0.00    +0.269 C 
ATOM      8  O   UNL A   1     -30.539  -0.429  28.996  0.00  0.00    -0.268 OA
ATOM      9  N   UNL A   1     -30.685  -1.141  31.053  0.00  0.00    -0.174 NA
BRANCH   9  10
ATOM     10  C   UNL A   1     -32.127  -1.160  31.060  0.00  0.00    +0.084 C 
ATOM     11  C   UNL A   1     -32.855  -0.587  30.598  0.00  0.00    -0.008 C 
ATOM     12  C   UNL A   1     -34.299  -0.654  30.701  0.00  0.00    +0.032 C 
ENDBRANCH   9  10
ENDBRANCH   2   7
TORSDOF 2
