MODEL 1202
MODEL 1
REMARK VINA RESULT:    -5.738      0.000      0.000
REMARK INTER + INTRA:          -6.582
REMARK INTER:                  -6.409
REMARK INTRA:                  -0.173
REMARK UNBOUND:                -0.173
REMARK  Name = No_1202-gen_results/8p0m/2024-11-26-14-13-15/
REMARK  2 active torsions:
REMARK  status: ('A' for Active; 'I' for Inactive)
REMARK    1  A    between atoms: C_2  and  C_5
REMARK    2  A    between atoms: N_9  and  C_10
REMARK                            x       y       z     vdW  Elec       q    Type
REMARK                         _______ _______ _______ _____ _____    ______ ____
ROOT
ATOM      1  C   UNL A   1     -25.677  -2.452  29.610  0.00  0.00    +0.005 A 
ATOM      2  C   UNL A   1     -24.812  -2.834  29.146  0.00  0.00    +0.055 A 
ATOM      3  C   UNL A   1     -26.741  -3.474  29.945  0.00  0.00    +0.000 A 
ATOM      4  C   UNL A   1     -26.464  -4.845  29.759  0.00  0.00    +0.000 A 
ATOM      5  C   UNL A   1     -25.246  -5.171  29.208  0.00  0.00    +0.000 A 
ATOM      6  C   UNL A   1     -24.324  -4.191  28.918  0.00  0.00    +0.005 A 
ENDROOT
BRANCH   2   7
ATOM      7  C   UNL A   1     -23.705  -1.807  28.815  0.00  0.00    +0.269 C 
ATOM      8  O   UNL A   1     -22.676  -2.130  28.927  0.00  0.00    -0.268 OA
ATOM      9  N   UNL A   1     -24.037  -0.446  28.666  0.00  0.00    -0.174 NA
BRANCH   9  10
ATOM     10  C   UNL A   1     -22.987   0.502  28.385  0.00  0.00    +0.084 C 
ATOM     11  C   UNL A   1     -22.688   1.011  27.535  0.00  0.00    -0.008 C 
ATOM     12  C   UNL A   1     -21.578   1.922  27.336  0.00  0.00    +0.032 C 
ENDBRANCH   9  10
ENDBRANCH   2   7
TORSDOF 2
ENDMDL
ENDMDL
