MODEL 1203
MODEL 1
REMARK VINA RESULT:    -6.869      0.000      0.000
REMARK INTER + INTRA:          -9.326
REMARK INTER:                  -8.475
REMARK INTRA:                  -0.851
REMARK UNBOUND:                -0.851
REMARK  Name = No_1203-gen_results/8p0m/2024-11-26-14-13-15/
REMARK  4 active torsions:
REMARK  status: ('A' for Active; 'I' for Inactive)
REMARK    1  A    between atoms: C_3  and  C_4
REMARK    2  A    between atoms: C_4  and  C_8
REMARK    3  A    between atoms: C_4  and  C_14
REMARK    4  A    between atoms: N_15  and  C_16
REMARK                            x       y       z     vdW  Elec       q    Type
REMARK                         _______ _______ _______ _____ _____    ______ ____
ROOT
ATOM      1  C   UNL A   1     -23.784  -1.091  29.471  0.00  0.00    +0.085 C 
ENDROOT
BRANCH   1   4
ATOM      2  C   UNL A   1     -24.582   0.111  27.315  0.00  0.00    -0.004 A 
ATOM      3  C   UNL A   1     -24.307   0.874  26.642  0.00  0.00    -0.000 A 
ATOM      4  C   UNL A   1     -23.584  -0.143  28.353  0.00  0.00    -0.013 A 
ATOM      5  C   UNL A   1     -23.154   1.751  26.496  0.00  0.00    -0.000 A 
ATOM      6  C   UNL A   1     -22.182   1.533  27.451  0.00  0.00    -0.000 A 
ATOM      7  C   UNL A   1     -22.394   0.628  28.423  0.00  0.00    -0.004 A 
ENDBRANCH   1   4
BRANCH   1   8
ATOM      8  C   UNL A   1     -24.493  -2.153  29.291  0.00  0.00    -0.013 A 
ATOM      9  C   UNL A   1     -25.617  -2.607  29.992  0.00  0.00    -0.004 A 
ATOM     10  C   UNL A   1     -26.201  -3.865  29.734  0.00  0.00    -0.000 A 
ATOM     11  C   UNL A   1     -25.664  -4.879  29.419  0.00  0.00    -0.000 A 
ATOM     12  C   UNL A   1     -24.318  -4.681  28.720  0.00  0.00    -0.000 A 
ATOM     13  C   UNL A   1     -23.737  -3.339  28.697  0.00  0.00    -0.004 A 
ENDBRANCH   1   8
BRANCH   1  14
ATOM     14  C   UNL A   1     -22.980  -0.932  30.632  0.00  0.00    +0.075 C 
ATOM     15  N   UNL A   1     -23.449  -0.251  31.591  0.00  0.00    -0.273 NA
BRANCH  15  16
ATOM     16  C   UNL A   1     -24.425   0.528  31.540  0.00  0.00    +0.125 C 
ATOM     17  C   UNL A   1     -24.295   1.994  31.400  0.00  0.00    +0.028 C 
ENDBRANCH  15  16
ENDBRANCH   1  14
TORSDOF 4
ENDMDL
ENDMDL
