REMARK  Name = No_1203-gen_results/8p0m/2024-11-26-14-13-15/
REMARK  4 active torsions:
REMARK  status: ('A' for Active; 'I' for Inactive)
REMARK    1  A    between atoms: C_3  and  C_4
REMARK    2  A    between atoms: C_4  and  C_8
REMARK    3  A    between atoms: C_4  and  C_14
REMARK    4  A    between atoms: N_15  and  C_16
REMARK                            x       y       z     vdW  Elec       q    Type
REMARK                         _______ _______ _______ _____ _____    ______ ____
ROOT
ATOM      1  C   UNL A   1     -26.252   0.411  27.422  0.00  0.00    +0.085 C 
ENDROOT
BRANCH   1   4
ATOM      2  C   UNL A   1     -28.016  -0.814  28.878  0.00  0.00    -0.004 A 
ATOM      3  C   UNL A   1     -28.469  -0.785  29.829  0.00  0.00    -0.000 A 
ATOM      4  C   UNL A   1     -27.087   0.290  28.638  0.00  0.00    -0.013 A 
ATOM      5  C   UNL A   1     -28.391   0.104  30.980  0.00  0.00    -0.000 A 
ATOM      6  C   UNL A   1     -27.533   1.167  30.787  0.00  0.00    -0.000 A 
ATOM      7  C   UNL A   1     -26.828   1.256  29.645  0.00  0.00    -0.004 A 
ENDBRANCH   1   4
BRANCH   1   8
ATOM      8  C   UNL A   1     -24.967   0.411  27.525  0.00  0.00    -0.013 A 
ATOM      9  C   UNL A   1     -24.155  -0.021  28.581  0.00  0.00    -0.004 A 
ATOM     10  C   UNL A   1     -22.757   0.166  28.574  0.00  0.00    -0.000 A 
ATOM     11  C   UNL A   1     -22.135   1.074  28.123  0.00  0.00    -0.000 A 
ATOM     12  C   UNL A   1     -22.852   1.825  27.000  0.00  0.00    -0.000 A 
ATOM     13  C   UNL A   1     -24.258   1.513  26.742  0.00  0.00    -0.004 A 
ENDBRANCH   1   8
BRANCH   1  14
ATOM     14  C   UNL A   1     -26.889   0.265  26.160  0.00  0.00    +0.075 C 
ATOM     15  N   UNL A   1     -27.367   1.302  25.613  0.00  0.00    -0.273 NA
BRANCH  15  16
ATOM     16  C   UNL A   1     -27.590   2.399  26.169  0.00  0.00    +0.125 C 
ATOM     17  C   UNL A   1     -28.912   2.795  26.699  0.00  0.00    +0.028 C 
ENDBRANCH  15  16
ENDBRANCH   1  14
TORSDOF 4
