MODEL 1205
MODEL 1
REMARK VINA RESULT:    -5.660      0.000      0.000
REMARK INTER + INTRA:          -6.532
REMARK INTER:                  -6.322
REMARK INTRA:                  -0.211
REMARK UNBOUND:                -0.211
REMARK  Name = No_1205-gen_results/8p0m/2024-11-26-14-13-15/
REMARK  2 active torsions:
REMARK  status: ('A' for Active; 'I' for Inactive)
REMARK    1  A    between atoms: C_1  and  C_2
REMARK    2  A    between atoms: C_5  and  C_9
REMARK                            x       y       z     vdW  Elec       q    Type
REMARK                         _______ _______ _______ _____ _____    ______ ____
ROOT
ATOM      1  C   UNL A   1     -29.594 -10.855  30.179  0.00  0.00    +0.044 A 
ATOM      2  C   UNL A   1     -29.838 -10.175  31.263  0.00  0.00    +0.001 A 
ATOM      3  C   UNL A   1     -29.132 -10.311  32.561  0.00  0.00    +0.006 A 
ATOM      4  C   UNL A   1     -28.124 -11.315  32.631  0.00  0.00    +0.080 A 
ATOM      5  C   UNL A   1     -27.905 -12.073  31.509  0.00  0.00    +0.006 A 
ATOM      6  C   UNL A   1     -28.583 -11.928  30.347  0.00  0.00    +0.001 A 
ENDROOT
BRANCH   1   7
ATOM      7  C   UNL A   1     -30.153 -10.772  29.110  0.00  0.00    +0.341 C 
ATOM      8  F   UNL A   1     -30.578  -9.375  29.084  0.00  0.00    -0.193 F 
ATOM      9  F   UNL A   1     -29.438 -10.990  28.051  0.00  0.00    -0.193 F 
ENDBRANCH   1   7
BRANCH   4  10
ATOM     10  C   UNL A   1     -27.359 -11.523  33.828  0.00  0.00    +0.388 C 
ATOM     11  O   UNL A   1     -27.099 -10.714  34.678  0.00  0.00    -0.241 OA
ATOM     12  O   UNL A   1     -26.770 -12.735  33.919  0.00  0.00    -0.241 OA
ENDBRANCH   4  10
TORSDOF 2
ENDMDL
ENDMDL
