REMARK  Name = No_1205-gen_results/8p0m/2024-11-26-14-13-15/
REMARK  2 active torsions:
REMARK  status: ('A' for Active; 'I' for Inactive)
REMARK    1  A    between atoms: C_1  and  C_2
REMARK    2  A    between atoms: C_5  and  C_9
REMARK                            x       y       z     vdW  Elec       q    Type
REMARK                         _______ _______ _______ _____ _____    ______ ____
ROOT
ATOM      1  C   UNL A   1     -27.064  -0.119  28.608  0.00  0.00    +0.044 A 
ATOM      2  C   UNL A   1     -26.876   1.133  28.913  0.00  0.00    +0.001 A 
ATOM      3  C   UNL A   1     -25.688   1.952  28.567  0.00  0.00    +0.006 A 
ATOM      4  C   UNL A   1     -24.639   1.283  27.875  0.00  0.00    +0.080 A 
ATOM      5  C   UNL A   1     -24.807  -0.051  27.604  0.00  0.00    +0.006 A 
ATOM      6  C   UNL A   1     -25.902  -0.767  27.951  0.00  0.00    +0.001 A 
ENDROOT
BRANCH   1   7
ATOM      7  C   UNL A   1     -28.016  -0.814  28.878  0.00  0.00    +0.341 C 
ATOM      8  F   UNL A   1     -28.452  -0.268  30.160  0.00  0.00    -0.193 F 
ATOM      9  F   UNL A   1     -29.025  -0.776  28.065  0.00  0.00    -0.193 F 
ENDBRANCH   1   7
BRANCH   4  10
ATOM     10  C   UNL A   1     -23.450   1.978  27.468  0.00  0.00    +0.388 C 
ATOM     11  O   UNL A   1     -22.326   1.785  27.848  0.00  0.00    -0.241 OA
ATOM     12  O   UNL A   1     -23.664   3.045  26.668  0.00  0.00    -0.241 OA
ENDBRANCH   4  10
TORSDOF 2
