MODEL 1206
MODEL 1
REMARK VINA RESULT:    -6.514      0.000      0.000
REMARK INTER + INTRA:          -7.682
REMARK INTER:                  -7.276
REMARK INTRA:                  -0.406
REMARK UNBOUND:                -0.406
REMARK  Name = No_1206-gen_results/8p0m/2024-11-26-14-13-15/
REMARK  2 active torsions:
REMARK  status: ('A' for Active; 'I' for Inactive)
REMARK    1  A    between atoms: C_3  and  C_7
REMARK    2  A    between atoms: C_7  and  C_8
REMARK                            x       y       z     vdW  Elec       q    Type
REMARK                         _______ _______ _______ _____ _____    ______ ____
ROOT
ATOM      1  C   UNL A   1     -24.552  -1.351  29.150  0.00  0.00    +0.041 C 
ATOM      2  C   UNL A   1     -25.148  -0.847  30.470  0.00  0.00    +0.009 C 
ENDROOT
BRANCH   1   5
ATOM      3  C   UNL A   1     -21.144  -0.037  28.710  0.00  0.00    -0.000 A 
ATOM      4  C   UNL A   1     -22.056  -0.727  29.101  0.00  0.00    -0.004 A 
ATOM      5  C   UNL A   1     -23.384  -0.538  28.720  0.00  0.00    -0.019 A 
ATOM      6  C   UNL A   1     -23.719   0.577  27.855  0.00  0.00    -0.004 A 
ATOM      7  C   UNL A   1     -22.604   1.343  27.446  0.00  0.00    -0.000 A 
ATOM      8  C   UNL A   1     -21.389   1.091  27.863  0.00  0.00    -0.000 A 
ENDBRANCH   1   5
BRANCH   1   9
ATOM      9  C   UNL A   1     -24.555  -2.656  29.059  0.00  0.00    -0.036 C 
ATOM     10  C   UNL A   1     -23.890  -3.503  28.580  0.00  0.00    -0.008 C 
ATOM     11  C   UNL A   1     -24.196  -4.893  28.575  0.00  0.00    -0.005 C 
ATOM     12  C   UNL A   1     -25.375  -5.210  29.278  0.00  0.00    -0.022 C 
ATOM     13  C   UNL A   1     -25.786  -3.353  29.761  0.00  0.00    +0.048 C 
ENDBRANCH   1   9
TORSDOF 2
ENDMDL
ENDMDL
