REMARK  Name = No_1207-gen_results/8p0m/2024-11-26-14-13-15/
REMARK  4 active torsions:
REMARK  status: ('A' for Active; 'I' for Inactive)
REMARK    1  A    between atoms: C_3  and  C_12
REMARK    2  A    between atoms: C_12  and  O_14
REMARK    3  A    between atoms: O_14  and  C_16
REMARK    4  A    between atoms: C_17  and  C_18
REMARK                            x       y       z     vdW  Elec       q    Type
REMARK                         _______ _______ _______ _____ _____    ______ ____
ROOT
ATOM      1  C   UNL A   1     -29.025   1.955  30.957  0.00  0.00    +0.227 C 
ATOM      2  C   UNL A   1     -29.733   2.490  29.938  0.00  0.00    +0.105 C 
ATOM      3  C   UNL A   1     -29.253   3.737  29.203  0.00  0.00    +0.257 C 
ATOM      4  N   UNL A   1     -28.926   4.835  29.843  0.00  0.00    -0.252 N 
ATOM      5  C   UNL A   1     -28.330   5.864  29.195  0.00  0.00    +0.120 C 
ATOM      6  O   UNL A   1     -28.873   3.631  28.016  0.00  0.00    -0.269 OA
ATOM      7  C   UNL A   1     -29.363   5.098  31.246  0.00  0.00    +0.070 A 
ATOM      8  C   UNL A   1     -29.615   5.947  31.784  0.00  0.00    +0.016 A 
ATOM      9  C   UNL A   1     -30.074   6.059  33.162  0.00  0.00    +0.001 A 
ATOM     10  C   UNL A   1     -30.159   4.853  33.839  0.00  0.00    +0.001 A 
ATOM     11  C   UNL A   1     -29.812   3.693  33.238  0.00  0.00    +0.018 A 
ATOM     12  C   UNL A   1     -29.372   3.753  31.965  0.00  0.00    +0.087 A 
ATOM     13  N   UNL A   1     -28.928   2.676  31.482  0.00  0.00    -0.177 NA
ENDROOT
BRANCH   2  14
ATOM     14  C   UNL A   1     -30.864   1.931  29.471  0.00  0.00    +0.009 A 
ATOM     15  C   UNL A   1     -31.503   1.096  30.238  0.00  0.00    +0.000 A 
ATOM     16  C   UNL A   1     -32.809   0.471  29.773  0.00  0.00    +0.000 A 
ATOM     17  C   UNL A   1     -33.185   0.818  28.472  0.00  0.00    +0.000 A 
ATOM     18  C   UNL A   1     -32.467   1.673  27.675  0.00  0.00    +0.000 A 
ATOM     19  C   UNL A   1     -31.352   2.301  28.151  0.00  0.00    +0.000 A 
ENDBRANCH   2  14
BRANCH   1  20
ATOM     20  O   UNL A   1     -28.970   0.911  31.095  0.00  0.00    -0.408 OA
BRANCH  20  21
ATOM     21  C   UNL A   1     -28.111  -0.024  30.881  0.00  0.00    +0.331 C 
ATOM     22  O   UNL A   1     -27.929  -0.901  31.443  0.00  0.00    -0.249 OA
BRANCH  21  25
ATOM     23  O   UNL A   1     -28.123  -1.335  28.487  0.00  0.00    -0.272 OA
ATOM     24  C   UNL A   1     -27.481  -0.404  28.709  0.00  0.00    +0.258 C 
ATOM     25  C   UNL A   1     -27.190   0.246  29.527  0.00  0.00    +0.182 C 
ATOM     26  N   UNL A   1     -26.602  -0.158  27.552  0.00  0.00    -0.160 NA
ATOM     27  C   UNL A   1     -25.642   0.903  27.582  0.00  0.00    +0.152 A 
ATOM     28  C   UNL A   1     -25.500   1.614  28.737  0.00  0.00    +0.012 A 
ATOM     29  C   UNL A   1     -26.267   1.289  29.809  0.00  0.00    +0.050 C 
ATOM     30  N   UNL A   1     -24.962   0.978  26.426  0.00  0.00    -0.211 NA
ATOM     31  C   UNL A   1     -23.818   1.813  26.481  0.00  0.00    +0.171 A 
ATOM     32  C   UNL A   1     -23.433   2.424  27.648  0.00  0.00    +0.037 A 
ATOM     33  C   UNL A   1     -24.273   2.316  28.772  0.00  0.00    +0.002 A 
ATOM     34  N   UNL A   1     -23.083   1.945  25.379  0.00  0.00    -0.107 NA
ENDBRANCH  21  25
ENDBRANCH  20  21
ENDBRANCH   1  20
TORSDOF 4
