MODEL 1207
MODEL 1
REMARK VINA RESULT:    -8.789      0.000      0.000
REMARK INTER + INTRA:         -12.038
REMARK INTER:                 -10.844
REMARK INTRA:                  -1.193
REMARK UNBOUND:                -1.193
REMARK  Name = No_1207-gen_results/8p0m/2024-11-26-14-13-15/
REMARK  4 active torsions:
REMARK  status: ('A' for Active; 'I' for Inactive)
REMARK    1  A    between atoms: C_3  and  C_12
REMARK    2  A    between atoms: C_12  and  O_14
REMARK    3  A    between atoms: O_14  and  C_16
REMARK    4  A    between atoms: C_17  and  C_18
REMARK                            x       y       z     vdW  Elec       q    Type
REMARK                         _______ _______ _______ _____ _____    ______ ____
ROOT
ATOM      1  C   UNL A   1     -24.837   0.348  26.924  0.00  0.00    +0.227 C 
ATOM      2  C   UNL A   1     -24.109   1.396  27.370  0.00  0.00    +0.105 C 
ATOM      3  C   UNL A   1     -22.618   1.264  27.658  0.00  0.00    +0.257 C 
ATOM      4  N   UNL A   1     -22.144   0.321  28.437  0.00  0.00    -0.252 N 
ATOM      5  C   UNL A   1     -20.810   0.106  28.534  0.00  0.00    +0.120 C 
ATOM      6  O   UNL A   1     -21.803   1.857  26.916  0.00  0.00    -0.269 OA
ATOM      7  C   UNL A   1     -23.008  -0.424  29.401  0.00  0.00    +0.070 A 
ATOM      8  C   UNL A   1     -22.862  -0.842  30.337  0.00  0.00    +0.016 A 
ATOM      9  C   UNL A   1     -23.821  -1.516  31.202  0.00  0.00    +0.001 A 
ATOM     10  C   UNL A   1     -25.097  -1.621  30.672  0.00  0.00    +0.001 A 
ATOM     11  C   UNL A   1     -25.379  -1.143  29.439  0.00  0.00    +0.018 A 
ATOM     12  C   UNL A   1     -24.375  -0.573  28.743  0.00  0.00    +0.087 A 
ATOM     13  N   UNL A   1     -24.637  -0.264  27.548  0.00  0.00    -0.177 NA
ENDROOT
BRANCH   2  14
ATOM     14  C   UNL A   1     -24.633   2.625  27.530  0.00  0.00    +0.009 A 
ATOM     15  C   UNL A   1     -25.320   2.868  28.608  0.00  0.00    +0.000 A 
ATOM     16  C   UNL A   1     -25.896   4.254  28.856  0.00  0.00    +0.000 A 
ATOM     17  C   UNL A   1     -25.678   5.164  27.818  0.00  0.00    +0.000 A 
ATOM     18  C   UNL A   1     -24.980   4.864  26.676  0.00  0.00    +0.000 A 
ATOM     19  C   UNL A   1     -24.386   3.644  26.521  0.00  0.00    +0.000 A 
ENDBRANCH   2  14
BRANCH   1  20
ATOM     20  O   UNL A   1     -25.613   0.481  26.223  0.00  0.00    -0.408 OA
BRANCH  20  21
ATOM     21  C   UNL A   1     -25.768   0.346  24.952  0.00  0.00    +0.331 C 
ATOM     22  O   UNL A   1     -25.046   0.109  24.216  0.00  0.00    -0.249 OA
BRANCH  21  25
ATOM     23  O   UNL A   1     -27.195   2.668  24.823  0.00  0.00    -0.272 OA
ATOM     24  C   UNL A   1     -27.591   1.648  24.462  0.00  0.00    +0.258 C 
ATOM     25  C   UNL A   1     -27.334   0.594  24.464  0.00  0.00    +0.182 C 
ATOM     26  N   UNL A   1     -29.002   1.808  24.070  0.00  0.00    -0.160 NA
ATOM     27  C   UNL A   1     -29.770   0.678  23.644  0.00  0.00    +0.152 A 
ATOM     28  C   UNL A   1     -29.191  -0.556  23.699  0.00  0.00    +0.012 A 
ATOM     29  C   UNL A   1     -27.917  -0.665  24.157  0.00  0.00    +0.050 C 
ATOM     30  N   UNL A   1     -31.019   1.037  23.306  0.00  0.00    -0.211 NA
ATOM     31  C   UNL A   1     -31.910  -0.054  23.142  0.00  0.00    +0.171 A 
ATOM     32  C   UNL A   1     -31.512  -1.345  23.379  0.00  0.00    +0.037 A 
ATOM     33  C   UNL A   1     -30.155  -1.589  23.663  0.00  0.00    +0.002 A 
ATOM     34  N   UNL A   1     -33.171   0.210  22.807  0.00  0.00    -0.107 NA
ENDBRANCH  21  25
ENDBRANCH  20  21
ENDBRANCH   1  20
TORSDOF 4
ENDMDL
ENDMDL
