MODEL 1208
MODEL 1
REMARK VINA RESULT:    -6.460      0.000      0.000
REMARK INTER + INTRA:          -7.182
REMARK INTER:                  -6.838
REMARK INTRA:                  -0.344
REMARK UNBOUND:                -0.344
REMARK  Name = No_1208-gen_results/8p0m/2024-11-26-14-13-15/
REMARK  1 active torsions:
REMARK  status: ('A' for Active; 'I' for Inactive)
REMARK    1  A    between atoms: C_2  and  C_3
REMARK                            x       y       z     vdW  Elec       q    Type
REMARK                         _______ _______ _______ _____ _____    ______ ____
ROOT
ATOM      1  C   UNL A   1     -24.458  -0.468  27.955  0.00  0.00    +0.000 A 
ATOM      2  C   UNL A   1     -23.985  -1.409  28.550  0.00  0.00    +0.000 A 
ATOM      3  C   UNL A   1     -23.634   0.720  27.617  0.00  0.00    +0.000 A 
ATOM      4  C   UNL A   1     -22.414   0.899  28.265  0.00  0.00    +0.000 A 
ATOM      5  C   UNL A   1     -21.931  -0.052  29.146  0.00  0.00    +0.000 A 
ATOM      6  C   UNL A   1     -22.666  -1.221  29.291  0.00  0.00    +0.000 A 
ENDROOT
BRANCH   2   7
ATOM      7  C   UNL A   1     -24.643  -2.598  28.815  0.00  0.00    +0.000 A 
ATOM      8  C   UNL A   1     -24.122  -3.927  28.606  0.00  0.00    +0.000 A 
ATOM      9  C   UNL A   1     -24.793  -5.096  28.867  0.00  0.00    +0.000 A 
ATOM     10  C   UNL A   1     -25.989  -4.944  29.575  0.00  0.00    +0.000 A 
ATOM     11  C   UNL A   1     -26.533  -3.751  29.882  0.00  0.00    +0.000 A 
ATOM     12  C   UNL A   1     -25.796  -2.617  29.523  0.00  0.00    +0.000 A 
ENDBRANCH   2   7
TORSDOF 1
ENDMDL
ENDMDL
