REMARK  Name = No_1209-gen_results/8p0m/2024-11-26-14-13-15/
REMARK  4 active torsions:
REMARK  status: ('A' for Active; 'I' for Inactive)
REMARK    1  A    between atoms: C_4  and  C_9
REMARK    2  A    between atoms: C_9  and  O_11
REMARK    3  A    between atoms: O_11  and  C_13
REMARK    4  A    between atoms: C_13  and  C_14
REMARK                            x       y       z     vdW  Elec       q    Type
REMARK                         _______ _______ _______ _____ _____    ______ ____
ROOT
ATOM      1  C   UNL A   1     -28.016  -0.814  28.878  0.00  0.00    +0.060 A 
ATOM      2  C   UNL A   1     -28.469  -0.785  29.829  0.00  0.00    +0.153 A 
ATOM      3  C   UNL A   1     -27.087   0.290  28.638  0.00  0.00    +0.149 A 
ATOM      4  C   UNL A   1     -26.832   1.249  29.587  0.00  0.00    +0.104 A 
ATOM      5  C   UNL A   1     -28.391   0.080  31.006  0.00  0.00    +0.085 A 
ATOM      6  C   UNL A   1     -27.494   1.152  30.784  0.00  0.00    +0.022 A 
ATOM      7  F   UNL A   1     -26.411   0.357  27.484  0.00  0.00    -0.204 F 
ATOM      8 CL   UNL A   1     -29.216  -0.081  32.472  0.00  0.00    -0.080 Cl
ATOM      9  F   UNL A   1     -29.400  -1.945  30.170  0.00  0.00    -0.203 F 
ENDROOT
BRANCH   4  10
ATOM     10  C   UNL A   1     -25.999   2.469  29.473  0.00  0.00    +0.350 C 
ATOM     11  O   UNL A   1     -26.235   3.374  28.916  0.00  0.00    -0.244 OA
BRANCH  10  12
ATOM     12  O   UNL A   1     -24.707   2.254  30.043  0.00  0.00    -0.381 OA
BRANCH  12  13
ATOM     13  C   UNL A   1     -23.854   1.209  29.692  0.00  0.00    +0.429 C 
ATOM     14  O   UNL A   1     -24.014   0.173  30.411  0.00  0.00    -0.237 OA
BRANCH  13  15
ATOM     15  C   UNL A   1     -22.897   1.400  28.811  0.00  0.00    +0.463 C 
ATOM     16  O   UNL A   1     -22.030   0.516  28.584  0.00  0.00    -0.233 OA
ATOM     17  O   UNL A   1     -22.672   2.525  28.242  0.00  0.00    -0.233 OA
ENDBRANCH  13  15
ENDBRANCH  12  13
ENDBRANCH  10  12
ENDBRANCH   4  10
TORSDOF 4
