MODEL 1209
MODEL 1
REMARK VINA RESULT:    -5.882      0.000      0.000
REMARK INTER + INTRA:          -7.816
REMARK INTER:                  -7.257
REMARK INTRA:                  -0.558
REMARK UNBOUND:                -0.558
REMARK  Name = No_1209-gen_results/8p0m/2024-11-26-14-13-15/
REMARK  4 active torsions:
REMARK  status: ('A' for Active; 'I' for Inactive)
REMARK    1  A    between atoms: C_4  and  C_9
REMARK    2  A    between atoms: C_9  and  O_11
REMARK    3  A    between atoms: O_11  and  C_13
REMARK    4  A    between atoms: C_13  and  C_14
REMARK                            x       y       z     vdW  Elec       q    Type
REMARK                         _______ _______ _______ _____ _____    ______ ____
ROOT
ATOM      1  C   UNL A   1     -24.027  -3.817  28.732  0.00  0.00    +0.060 A 
ATOM      2  C   UNL A   1     -24.959  -4.215  29.022  0.00  0.00    +0.153 A 
ATOM      3  C   UNL A   1     -23.800  -2.452  29.208  0.00  0.00    +0.149 A 
ATOM      4  C   UNL A   1     -24.722  -1.783  29.975  0.00  0.00    +0.104 A 
ATOM      5  C   UNL A   1     -26.100  -3.754  29.813  0.00  0.00    +0.085 A 
ATOM      6  C   UNL A   1     -25.890  -2.434  30.279  0.00  0.00    +0.022 A 
ATOM      7  F   UNL A   1     -22.640  -1.836  28.945  0.00  0.00    -0.204 F 
ATOM      8 CL   UNL A   1     -27.521  -4.594  30.177  0.00  0.00    -0.080 Cl
ATOM      9  F   UNL A   1     -25.233  -5.659  28.615  0.00  0.00    -0.203 F 
ENDROOT
BRANCH   4  10
ATOM     10  C   UNL A   1     -24.687  -0.382  30.456  0.00  0.00    +0.350 C 
ATOM     11  O   UNL A   1     -24.511  -0.044  31.476  0.00  0.00    -0.244 OA
BRANCH  10  12
ATOM     12  O   UNL A   1     -25.115   0.515  29.431  0.00  0.00    -0.381 OA
BRANCH  12  13
ATOM     13  C   UNL A   1     -24.377   1.609  28.981  0.00  0.00    +0.429 C 
ATOM     14  O   UNL A   1     -24.812   2.718  29.423  0.00  0.00    -0.237 OA
BRANCH  13  15
ATOM     15  C   UNL A   1     -23.445   1.451  28.067  0.00  0.00    +0.463 C 
ATOM     16  O   UNL A   1     -22.462   2.234  27.993  0.00  0.00    -0.233 OA
ATOM     17  O   UNL A   1     -23.534   0.614  27.102  0.00  0.00    -0.233 OA
ENDBRANCH  13  15
ENDBRANCH  12  13
ENDBRANCH  10  12
ENDBRANCH   4  10
TORSDOF 4
ENDMDL
ENDMDL
