MODEL 120
MODEL 1
REMARK VINA RESULT:    -5.256      0.000      0.000
REMARK INTER + INTRA:          -5.947
REMARK INTER:                  -5.871
REMARK INTRA:                  -0.076
REMARK UNBOUND:                -0.076
REMARK  Name = No_120-gen_results/8p0m/2024-11-26-14-13-15/
REMARK  2 active torsions:
REMARK  status: ('A' for Active; 'I' for Inactive)
REMARK    1  A    between atoms: C_6  and  C_8
REMARK    2  A    between atoms: C_8  and  C_10
REMARK                            x       y       z     vdW  Elec       q    Type
REMARK                         _______ _______ _______ _____ _____    ______ ____
ROOT
ATOM      1  C   UNL A   1     -25.826  -2.971  29.639  0.00  0.00    +0.009 A 
ATOM      2  C   UNL A   1     -26.306  -4.074  29.758  0.00  0.00    +0.057 A 
ATOM      3  C   UNL A   1     -25.613  -5.208  29.348  0.00  0.00    +0.011 A 
ATOM      4  C   UNL A   1     -24.318  -5.100  28.727  0.00  0.00    +0.001 A 
ATOM      5  C   UNL A   1     -23.847  -3.786  28.607  0.00  0.00    -0.002 A 
ATOM      6  C   UNL A   1     -24.550  -2.746  28.995  0.00  0.00    +0.002 A 
ATOM      7 CL   UNL A   1     -27.852  -4.384  30.428  0.00  0.00    -0.082 Cl
ENDROOT
BRANCH   6   8
ATOM      8  C   UNL A   1     -23.957  -1.410  28.761  0.00  0.00    +0.157 C 
ATOM      9  N   UNL A   1     -24.511  -0.514  27.967  0.00  0.00    -0.121 NA
BRANCH   8  10
ATOM     10  C   UNL A   1     -22.772  -1.030  29.454  0.00  0.00    +0.119 C 
ATOM     11  N   UNL A   1     -21.663  -0.981  29.007  0.00  0.00    -0.149 NA
ENDBRANCH   8  10
ENDBRANCH   6   8
TORSDOF 2
ENDMDL
ENDMDL
