REMARK  Name = No_121-gen_results/8p0m/2024-11-26-14-13-15/
REMARK  5 active torsions:
REMARK  status: ('A' for Active; 'I' for Inactive)
REMARK    1  A    between atoms: C_2  and  C_25
REMARK    2  A    between atoms: C_3  and  C_7
REMARK    3  A    between atoms: C_8  and  C_17
REMARK    4  A    between atoms: C_9  and  C_10
REMARK    5  A    between atoms: N_27  and  C_28
REMARK                            x       y       z     vdW  Elec       q    Type
REMARK                         _______ _______ _______ _____ _____    ______ ____
ROOT
ATOM      1  C   UNL A   1     -26.317   0.399  27.365  0.00  0.00    +0.000 A 
ATOM      2  C   UNL A   1     -24.941   0.255  27.503  0.00  0.00    +0.000 A 
ATOM      3  C   UNL A   1     -26.913   0.586  26.140  0.00  0.00    +0.000 A 
ATOM      4  C   UNL A   1     -26.029   0.680  25.027  0.00  0.00    +0.000 A 
ATOM      5  C   UNL A   1     -24.092   0.584  26.391  0.00  0.00    +0.000 A 
ATOM      6  C   UNL A   1     -24.656   0.738  25.182  0.00  0.00    +0.000 A 
ENDROOT
BRANCH   1   9
ATOM      7  C   UNL A   1     -28.016  -0.814  28.878  0.00  0.00    +0.002 A 
ATOM      8  C   UNL A   1     -28.469  -0.785  29.829  0.00  0.00    +0.029 A 
ATOM      9  C   UNL A   1     -27.087   0.290  28.638  0.00  0.00    +0.000 A 
ATOM     10  C   UNL A   1     -26.832   1.249  29.587  0.00  0.00    +0.000 A 
ATOM     11  C   UNL A   1     -28.391   0.080  31.006  0.00  0.00    +0.002 A 
ATOM     12  C   UNL A   1     -27.494   1.152  30.784  0.00  0.00    +0.000 A 
BRANCH   8  13
ATOM     13  C   UNL A   1     -29.552  -1.952  30.230  0.00  0.00    +0.138 C 
ATOM     14 CL   UNL A   1     -29.092  -3.438  30.218  0.00  0.00    -0.061 Cl
ATOM     15  N   UNL A   1     -30.879  -1.669  30.334  0.00  0.00    -0.234 NA
BRANCH  15  16
ATOM     16  C   UNL A   1     -31.366  -0.493  30.357  0.00  0.00    +0.082 A 
ATOM     17  C   UNL A   1     -31.621   0.250  30.986  0.00  0.00    +0.019 A 
ATOM     18  C   UNL A   1     -32.314   1.557  30.801  0.00  0.00    +0.002 A 
ATOM     19  C   UNL A   1     -32.766   1.724  29.501  0.00  0.00    +0.000 A 
ATOM     20  C   UNL A   1     -32.805   0.942  28.790  0.00  0.00    +0.002 A 
ATOM     21  C   UNL A   1     -32.019  -0.317  28.892  0.00  0.00    +0.019 A 
ENDBRANCH  15  16
ENDBRANCH   8  13
ENDBRANCH   1   9
BRANCH   3  22
ATOM     22  C   UNL A   1     -28.269   0.717  25.985  0.00  0.00    +0.000 A 
ATOM     23  C   UNL A   1     -28.766   0.732  24.686  0.00  0.00    +0.000 A 
ATOM     24  C   UNL A   1     -30.160   0.870  24.463  0.00  0.00    +0.000 A 
ATOM     25  C   UNL A   1     -30.829   1.019  25.194  0.00  0.00    +0.000 A 
ATOM     26  C   UNL A   1     -30.528   1.062  26.672  0.00  0.00    +0.000 A 
ATOM     27  C   UNL A   1     -29.254   0.958  27.010  0.00  0.00    +0.000 A 
ENDBRANCH   3  22
BRANCH   2  28
ATOM     28  C   UNL A   1     -24.354  -0.352  28.634  0.00  0.00    +0.000 A 
ATOM     29  C   UNL A   1     -24.454  -1.462  28.989  0.00  0.00    +0.000 A 
ATOM     30  C   UNL A   1     -23.746  -1.978  30.160  0.00  0.00    +0.000 A 
ATOM     31  C   UNL A   1     -22.937  -1.141  30.924  0.00  0.00    +0.000 A 
ATOM     32  C   UNL A   1     -23.471   0.622  29.279  0.00  0.00    +0.000 A 
ATOM     33  C   UNL A   1     -22.792   0.205  30.444  0.00  0.00    +0.000 A 
ENDBRANCH   2  28
TORSDOF 5
