MODEL 1210
MODEL 1
REMARK VINA RESULT:    -4.261      0.000      0.000
REMARK INTER + INTRA:          -4.261
REMARK INTER:                  -4.261
REMARK INTRA:                   0.000
REMARK UNBOUND:                 0.000
REMARK  Name = No_1210-gen_results/8p0m/2024-11-26-14-13-15/
REMARK  0 active torsions:
REMARK  status: ('A' for Active; 'I' for Inactive)
REMARK                            x       y       z     vdW  Elec       q    Type
REMARK                         _______ _______ _______ _____ _____    ______ ____
ROOT
ATOM      1  C   UNL A   1     -25.003  -5.385  29.024  0.00  0.00    +0.000 A 
ATOM      2  C   UNL A   1     -25.838  -4.932  29.480  0.00  0.00    +0.000 A 
ATOM      3  C   UNL A   1     -23.975  -4.431  28.608  0.00  0.00    +0.000 A 
ATOM      4  C   UNL A   1     -24.102  -3.081  28.822  0.00  0.00    +0.000 A 
ATOM      5  C   UNL A   1     -26.235  -3.569  29.834  0.00  0.00    +0.000 A 
ATOM      6  C   UNL A   1     -25.246  -2.638  29.435  0.00  0.00    +0.000 A 
ENDROOT
TORSDOF 0
ENDMDL
ENDMDL
