MODEL 1211
MODEL 1
REMARK VINA RESULT:    -6.132      0.000      0.000
REMARK INTER + INTRA:          -7.156
REMARK INTER:                  -6.849
REMARK INTRA:                  -0.307
REMARK UNBOUND:                -0.307
REMARK  Name = No_1211-gen_results/8p0m/2024-11-26-14-13-15/
REMARK  2 active torsions:
REMARK  status: ('A' for Active; 'I' for Inactive)
REMARK    1  A    between atoms: C_2  and  C_7
REMARK    2  A    between atoms: C_4  and  C_10
REMARK                            x       y       z     vdW  Elec       q    Type
REMARK                         _______ _______ _______ _____ _____    ______ ____
ROOT
ATOM      1  C   UNL A   1     -27.885 -11.934  32.108  0.00  0.00    +0.007 A 
ATOM      2  C   UNL A   1     -28.383 -11.248  32.735  0.00  0.00    +0.080 A 
ATOM      3  C   UNL A   1     -28.324 -11.981  30.705  0.00  0.00    +0.002 A 
ATOM      4  C   UNL A   1     -29.274 -11.041  30.210  0.00  0.00    +0.019 A 
ATOM      5  C   UNL A   1     -29.342 -10.142  32.467  0.00  0.00    +0.007 A 
ATOM      6  C   UNL A   1     -29.780 -10.160  31.176  0.00  0.00    +0.002 A 
ENDROOT
BRANCH   4   7
ATOM      7  C   UNL A   1     -29.737 -11.039  28.851  0.00  0.00    +0.103 A 
ATOM      8  N   UNL A   1     -30.534 -10.443  28.430  0.00  0.00    -0.148 NA
ATOM      9  C   UNL A   1     -29.060 -11.982  27.888  0.00  0.00    +0.023 A 
ATOM     10  C   UNL A   1     -29.525 -11.857  26.589  0.00  0.00    +0.024 A 
ATOM     11  N   UNL A   1     -31.033 -10.390  27.208  0.00  0.00    -0.146 NA
ATOM     12  C   UNL A   1     -30.479 -11.079  26.246  0.00  0.00    +0.122 A 
ENDBRANCH   4   7
BRANCH   2  13
ATOM     13  C   UNL A   1     -27.850 -11.356  34.208  0.00  0.00    +0.388 C 
ATOM     14  O   UNL A   1     -27.626 -10.248  34.830  0.00  0.00    -0.241 OA
ATOM     15  O   UNL A   1     -27.236 -12.408  34.542  0.00  0.00    -0.241 OA
ENDBRANCH   2  13
TORSDOF 2
ENDMDL
ENDMDL
