REMARK  Name = No_1211-gen_results/8p0m/2024-11-26-14-13-15/
REMARK  2 active torsions:
REMARK  status: ('A' for Active; 'I' for Inactive)
REMARK    1  A    between atoms: C_2  and  C_7
REMARK    2  A    between atoms: C_4  and  C_10
REMARK                            x       y       z     vdW  Elec       q    Type
REMARK                         _______ _______ _______ _____ _____    ______ ____
ROOT
ATOM      1  C   UNL A   1     -28.016  -0.814  28.878  0.00  0.00    +0.007 A 
ATOM      2  C   UNL A   1     -28.469  -0.785  29.829  0.00  0.00    +0.080 A 
ATOM      3  C   UNL A   1     -26.546  -0.876  28.850  0.00  0.00    +0.002 A 
ATOM      4  C   UNL A   1     -25.804  -1.032  30.057  0.00  0.00    +0.019 A 
ATOM      5  C   UNL A   1     -27.944  -0.987  31.207  0.00  0.00    +0.007 A 
ATOM      6  C   UNL A   1     -26.582  -1.039  31.223  0.00  0.00    +0.002 A 
ENDROOT
BRANCH   4   7
ATOM      7  C   UNL A   1     -24.370  -1.100  30.090  0.00  0.00    +0.103 A 
ATOM      8  N   UNL A   1     -23.759  -1.792  30.650  0.00  0.00    -0.148 NA
ATOM      9  C   UNL A   1     -23.611  -0.086  29.270  0.00  0.00    +0.023 A 
ATOM     10  C   UNL A   1     -22.239  -0.276  29.308  0.00  0.00    +0.024 A 
ATOM     11  N   UNL A   1     -22.447  -1.914  30.752  0.00  0.00    -0.146 NA
ATOM     12  C   UNL A   1     -21.663  -1.168  30.020  0.00  0.00    +0.122 A 
ENDBRANCH   4   7
BRANCH   2  13
ATOM     13  C   UNL A   1     -30.028  -0.659  29.697  0.00  0.00    +0.388 C 
ATOM     14  O   UNL A   1     -30.603   0.245  30.416  0.00  0.00    -0.241 OA
ATOM     15  O   UNL A   1     -30.675  -1.673  29.312  0.00  0.00    -0.241 OA
ENDBRANCH   2  13
TORSDOF 2
