MODEL 1212
MODEL 1
REMARK VINA RESULT:    -5.538      0.000      0.000
REMARK INTER + INTRA:          -8.944
REMARK INTER:                  -7.481
REMARK INTRA:                  -1.463
REMARK UNBOUND:                -1.463
REMARK  Name = No_1212-gen_results/8p0m/2024-11-26-14-13-15/
REMARK  6 active torsions:
REMARK  status: ('A' for Active; 'I' for Inactive)
REMARK    1  A    between atoms: C_1  and  O_8
REMARK    2  A    between atoms: O_8  and  C_13
REMARK    3  A    between atoms: C_13  and  C_16
REMARK    4  A    between atoms: C_16  and  O_17
REMARK    5  A    between atoms: O_17  and  C_19
REMARK    6  A    between atoms: C_20  and  C_21
REMARK                            x       y       z     vdW  Elec       q    Type
REMARK                         _______ _______ _______ _____ _____    ______ ____
ROOT
ATOM      1  C   UNL A   1      -9.655   0.760  35.286  0.00  0.00    +0.173 C 
ATOM      2  C   UNL A   1      -9.826   0.414  36.432  0.00  0.00    +0.054 C 
ATOM      3  C   UNL A   1     -10.756  -0.551  36.816  0.00  0.00    +0.058 C 
ATOM      4  C   UNL A   1     -11.037  -1.024  38.186  0.00  0.00    -0.021 A 
ATOM      5  C   UNL A   1     -10.121  -0.592  39.192  0.00  0.00    -0.019 A 
ATOM      6  C   UNL A   1      -9.142   0.343  38.841  0.00  0.00    +0.084 C 
ATOM      7  C   UNL A   1      -8.979   0.807  37.581  0.00  0.00    +0.176 C 
ATOM      8  C   UNL A   1     -10.356  -1.115  40.517  0.00  0.00    -0.004 A 
ATOM      9  C   UNL A   1     -11.199  -2.251  40.684  0.00  0.00    -0.000 A 
ATOM     10  C   UNL A   1     -12.093  -2.599  39.664  0.00  0.00    -0.000 A 
ATOM     11  C   UNL A   1     -11.952  -2.110  38.361  0.00  0.00    -0.004 A 
ATOM     12  C   UNL A   1      -8.283   0.896  39.922  0.00  0.00    +0.013 C 
ATOM     13  O   UNL A   1      -8.036   1.669  37.225  0.00  0.00    -0.291 OA
ENDROOT
BRANCH   1  14
ATOM     14  O   UNL A   1     -10.539   1.600  34.883  0.00  0.00    -0.456 OA
BRANCH  14  15
ATOM     15  C   UNL A   1     -11.662   1.279  34.205  0.00  0.00    +0.288 C 
ATOM     16 CL   UNL A   1     -11.190   0.866  32.592  0.00  0.00    -0.064 Cl
BRANCH  15  17
ATOM     17  C   UNL A   1     -12.605   1.947  34.242  0.00  0.00    +0.266 C 
BRANCH  17  18
ATOM     18  O   UNL A   1     -13.225   1.925  35.287  0.00  0.00    -0.467 OA
BRANCH  18  19
ATOM     19  C   UNL A   1     -13.839   3.103  35.876  0.00  0.00    +0.168 C 
ATOM     20  C   UNL A   1     -13.899   2.937  37.260  0.00  0.00    +0.014 C 
BRANCH  20  21
ATOM     21  C   UNL A   1     -12.578   2.525  37.839  0.00  0.00    +0.029 C 
ATOM     22  C   UNL A   1     -12.671   2.097  39.190  0.00  0.00    +0.005 C 
ENDBRANCH  20  21
ENDBRANCH  18  19
ENDBRANCH  17  18
ENDBRANCH  15  17
ENDBRANCH  14  15
ENDBRANCH   1  14
TORSDOF 6
ENDMDL
ENDMDL
