REMARK  Name = No_1212-gen_results/8p0m/2024-11-26-14-13-15/
REMARK  6 active torsions:
REMARK  status: ('A' for Active; 'I' for Inactive)
REMARK    1  A    between atoms: C_1  and  O_8
REMARK    2  A    between atoms: O_8  and  C_13
REMARK    3  A    between atoms: C_13  and  C_16
REMARK    4  A    between atoms: C_16  and  O_17
REMARK    5  A    between atoms: O_17  and  C_19
REMARK    6  A    between atoms: C_20  and  C_21
REMARK                            x       y       z     vdW  Elec       q    Type
REMARK                         _______ _______ _______ _____ _____    ______ ____
ROOT
ATOM      1  C   UNL A   1     -28.016  -0.814  28.878  0.00  0.00    +0.173 C 
ATOM      2  C   UNL A   1     -27.064  -0.119  28.608  0.00  0.00    +0.054 C 
ATOM      3  C   UNL A   1     -25.765  -0.390  29.036  0.00  0.00    +0.058 C 
ATOM      4  C   UNL A   1     -24.552   0.406  28.765  0.00  0.00    -0.021 A 
ATOM      5  C   UNL A   1     -24.696   1.448  27.799  0.00  0.00    -0.019 A 
ATOM      6  C   UNL A   1     -25.976   1.725  27.308  0.00  0.00    +0.084 C 
ATOM      7  C   UNL A   1     -27.072   1.013  27.654  0.00  0.00    +0.176 C 
ATOM      8  C   UNL A   1     -23.491   2.177  27.482  0.00  0.00    -0.004 A 
ATOM      9  C   UNL A   1     -22.225   1.628  27.834  0.00  0.00    -0.000 A 
ATOM     10  C   UNL A   1     -22.158   0.627  28.811  0.00  0.00    -0.000 A 
ATOM     11  C   UNL A   1     -23.287  -0.104  29.196  0.00  0.00    -0.004 A 
ATOM     12  C   UNL A   1     -26.142   2.901  26.413  0.00  0.00    +0.013 C 
ATOM     13  O   UNL A   1     -28.287   1.243  27.174  0.00  0.00    -0.291 OA
ENDROOT
BRANCH   1  14
ATOM     14  O   UNL A   1     -28.470  -0.600  30.060  0.00  0.00    -0.456 OA
BRANCH  14  15
ATOM     15  C   UNL A   1     -29.325  -1.409  30.721  0.00  0.00    +0.288 C 
ATOM     16 CL   UNL A   1     -30.898  -1.160  30.044  0.00  0.00    -0.064 Cl
BRANCH  15  17
ATOM     17  C   UNL A   1     -29.335  -1.466  31.876  0.00  0.00    +0.266 C 
BRANCH  17  18
ATOM     18  O   UNL A   1     -28.394  -0.939  32.437  0.00  0.00    -0.467 OA
BRANCH  18  19
ATOM     19  C   UNL A   1     -28.443  -0.476  33.813  0.00  0.00    +0.168 C 
ATOM     20  C   UNL A   1     -27.166  -0.066  34.198  0.00  0.00    +0.014 C 
BRANCH  20  21
ATOM     21  C   UNL A   1     -26.552   0.878  33.207  0.00  0.00    +0.029 C 
ATOM     22  C   UNL A   1     -26.584   0.385  31.875  0.00  0.00    +0.005 C 
ENDBRANCH  20  21
ENDBRANCH  18  19
ENDBRANCH  17  18
ENDBRANCH  15  17
ENDBRANCH  14  15
ENDBRANCH   1  14
TORSDOF 6
