MODEL 1213
MODEL 1
REMARK VINA RESULT:    -7.019      0.000      0.000
REMARK INTER + INTRA:          -7.760
REMARK INTER:                  -7.429
REMARK INTRA:                  -0.330
REMARK UNBOUND:                -0.330
REMARK  Name = No_1213-gen_results/8p0m/2024-11-26-14-13-15/
REMARK  1 active torsions:
REMARK  status: ('A' for Active; 'I' for Inactive)
REMARK    1  A    between atoms: C_2  and  C_8
REMARK                            x       y       z     vdW  Elec       q    Type
REMARK                         _______ _______ _______ _____ _____    ______ ____
ROOT
ATOM      1  C   UNL A   1     -23.830  -2.828  28.553  0.00  0.00    +0.000 A 
ATOM      2  C   UNL A   1     -24.636  -2.087  29.065  0.00  0.00    +0.005 A 
ATOM      3  C   UNL A   1     -25.825  -2.517  29.621  0.00  0.00    +0.012 A 
ATOM      4  C   UNL A   1     -26.093  -3.914  29.625  0.00  0.00    +0.085 A 
ATOM      5  C   UNL A   1     -25.088  -4.714  29.197  0.00  0.00    +0.151 A 
ATOM      6  C   UNL A   1     -23.965  -4.215  28.718  0.00  0.00    +0.030 A 
ATOM      7  F   UNL A   1     -25.299  -6.024  29.238  0.00  0.00    -0.203 F 
ATOM      8 CL   UNL A   1     -27.562  -4.427  30.324  0.00  0.00    -0.080 Cl
ENDROOT
BRANCH   2   9
ATOM      9  C   UNL A   1     -24.251  -0.599  28.976  0.00  0.00    +0.148 C 
ATOM     10  N   UNL A   1     -23.554   0.035  29.714  0.00  0.00    -0.262 NA
ATOM     11  C   UNL A   1     -22.448   0.204  29.658  0.00  0.00    +0.096 C 
ATOM     12  C   UNL A   1     -21.918   0.739  28.414  0.00  0.00    +0.050 C 
ATOM     13  C   UNL A   1     -22.378   1.294  27.699  0.00  0.00    +0.141 C 
ATOM     14  C   UNL A   1     -23.782   0.803  27.111  0.00  0.00    +0.027 C 
ATOM     15  C   UNL A   1     -24.507  -0.146  27.579  0.00  0.00    +0.004 C 
ATOM     16  F   UNL A   1     -21.820   2.095  26.754  0.00  0.00    -0.204 F 
ENDBRANCH   2   9
TORSDOF 1
ENDMDL
ENDMDL
