REMARK  Name = No_1213-gen_results/8p0m/2024-11-26-14-13-15/
REMARK  1 active torsions:
REMARK  status: ('A' for Active; 'I' for Inactive)
REMARK    1  A    between atoms: C_2  and  C_8
REMARK                            x       y       z     vdW  Elec       q    Type
REMARK                         _______ _______ _______ _____ _____    ______ ____
ROOT
ATOM      1  C   UNL A   1     -28.016  -0.814  28.878  0.00  0.00    +0.000 A 
ATOM      2  C   UNL A   1     -27.064  -0.119  28.608  0.00  0.00    +0.005 A 
ATOM      3  C   UNL A   1     -27.001   0.691  27.491  0.00  0.00    +0.012 A 
ATOM      4  C   UNL A   1     -28.137   0.736  26.635  0.00  0.00    +0.085 A 
ATOM      5  C   UNL A   1     -29.236   0.076  27.069  0.00  0.00    +0.151 A 
ATOM      6  C   UNL A   1     -29.218  -0.643  28.175  0.00  0.00    +0.030 A 
ATOM      7  F   UNL A   1     -30.322   0.145  26.309  0.00  0.00    -0.203 F 
ATOM      8 CL   UNL A   1     -28.044   1.749  25.265  0.00  0.00    -0.080 Cl
ENDROOT
BRANCH   2   9
ATOM      9  C   UNL A   1     -25.888  -0.273  29.590  0.00  0.00    +0.148 C 
ATOM     10  N   UNL A   1     -25.504  -1.263  30.141  0.00  0.00    -0.262 NA
ATOM     11  C   UNL A   1     -24.733  -2.000  29.798  0.00  0.00    +0.096 C 
ATOM     12  C   UNL A   1     -23.423  -1.477  29.443  0.00  0.00    +0.050 C 
ATOM     13  C   UNL A   1     -22.961  -0.626  29.748  0.00  0.00    +0.141 C 
ATOM     14  C   UNL A   1     -23.748   0.764  29.666  0.00  0.00    +0.027 C 
ATOM     15  C   UNL A   1     -24.998   0.911  29.422  0.00  0.00    +0.004 C 
ATOM     16  F   UNL A   1     -21.636  -0.324  29.727  0.00  0.00    -0.204 F 
ENDBRANCH   2   9
TORSDOF 1
