MODEL 1214
MODEL 1
REMARK VINA RESULT:    -7.540      0.000      0.000
REMARK INTER + INTRA:         -10.515
REMARK INTER:                  -9.303
REMARK INTRA:                  -1.213
REMARK UNBOUND:                -1.213
REMARK  Name = No_1214-gen_results/8p0m/2024-11-26-14-13-15/
REMARK  4 active torsions:
REMARK  status: ('A' for Active; 'I' for Inactive)
REMARK    1  A    between atoms: C_2  and  C_7
REMARK    2  A    between atoms: C_7  and  C_8
REMARK    3  A    between atoms: C_7  and  C_14
REMARK    4  A    between atoms: C_15  and  C_16
REMARK                            x       y       z     vdW  Elec       q    Type
REMARK                         _______ _______ _______ _____ _____    ______ ____
ROOT
ATOM      1  C   UNL A   1     -24.971  -1.585  29.042  0.00  0.00    +0.066 C 
ENDROOT
BRANCH   1   3
ATOM      2  C   UNL A   1     -25.400  -0.533  26.930  0.00  0.00    -0.004 A 
ATOM      3  C   UNL A   1     -24.735  -0.617  27.937  0.00  0.00    -0.014 A 
ATOM      4  C   UNL A   1     -23.659   0.235  28.160  0.00  0.00    -0.004 A 
ATOM      5  C   UNL A   1     -23.274   1.215  27.178  0.00  0.00    -0.000 A 
ATOM      6  C   UNL A   1     -24.082   1.228  26.033  0.00  0.00    -0.000 A 
ATOM      7  C   UNL A   1     -25.078   0.389  25.863  0.00  0.00    -0.000 A 
ENDBRANCH   1   3
BRANCH   1   8
ATOM      8  C   UNL A   1     -25.023  -2.605  29.057  0.00  0.00    -0.014 A 
ATOM      9  C   UNL A   1     -26.113  -3.526  29.551  0.00  0.00    -0.004 A 
ATOM     10  C   UNL A   1     -26.086  -4.926  29.589  0.00  0.00    -0.000 A 
ATOM     11  C   UNL A   1     -25.014  -5.556  28.995  0.00  0.00    -0.000 A 
ATOM     12  C   UNL A   1     -24.010  -4.810  28.456  0.00  0.00    -0.000 A 
ATOM     13  C   UNL A   1     -23.950  -3.523  28.489  0.00  0.00    -0.004 A 
ENDBRANCH   1   8
BRANCH   1  14
ATOM     14  C   UNL A   1     -24.342  -0.933  30.298  0.00  0.00    -0.014 C 
ATOM     15  C   UNL A   1     -24.259  -1.510  31.495  0.00  0.00    +0.071 C 
BRANCH  15  16
ATOM     16  C   UNL A   1     -23.735  -0.760  32.533  0.00  0.00    +0.418 C 
ATOM     17  F   UNL A   1     -24.201  -1.045  33.784  0.00  0.00    -0.166 F 
ATOM     18  F   UNL A   1     -22.455  -0.878  32.667  0.00  0.00    -0.166 F 
ATOM     19  F   UNL A   1     -23.956   0.563  32.345  0.00  0.00    -0.166 F 
ENDBRANCH  15  16
ENDBRANCH   1  14
TORSDOF 4
ENDMDL
ENDMDL
