REMARK  Name = No_1214-gen_results/8p0m/2024-11-26-14-13-15/
REMARK  4 active torsions:
REMARK  status: ('A' for Active; 'I' for Inactive)
REMARK    1  A    between atoms: C_2  and  C_7
REMARK    2  A    between atoms: C_7  and  C_8
REMARK    3  A    between atoms: C_7  and  C_14
REMARK    4  A    between atoms: C_15  and  C_16
REMARK                            x       y       z     vdW  Elec       q    Type
REMARK                         _______ _______ _______ _____ _____    ______ ____
ROOT
ATOM      1  C   UNL A   1     -27.106   1.102  27.759  0.00  0.00    +0.066 C 
ENDROOT
BRANCH   1   3
ATOM      2  C   UNL A   1     -28.016  -0.814  28.878  0.00  0.00    -0.004 A 
ATOM      3  C   UNL A   1     -27.064  -0.119  28.608  0.00  0.00    -0.014 A 
ATOM      4  C   UNL A   1     -25.792  -0.430  29.076  0.00  0.00    -0.004 A 
ATOM      5  C   UNL A   1     -25.576  -1.565  29.936  0.00  0.00    -0.000 A 
ATOM      6  C   UNL A   1     -26.735  -2.300  30.217  0.00  0.00    -0.000 A 
ATOM      7  C   UNL A   1     -27.918  -1.954  29.763  0.00  0.00    -0.000 A 
ENDBRANCH   1   3
BRANCH   1   8
ATOM      8  C   UNL A   1     -27.858   1.531  27.216  0.00  0.00    -0.014 A 
ATOM      9  C   UNL A   1     -27.843   2.721  26.286  0.00  0.00    -0.004 A 
ATOM     10  C   UNL A   1     -28.936   3.286  25.617  0.00  0.00    -0.000 A 
ATOM     11  C   UNL A   1     -30.140   2.621  25.695  0.00  0.00    -0.000 A 
ATOM     12  C   UNL A   1     -30.238   1.494  26.453  0.00  0.00    -0.000 A 
ATOM     13  C   UNL A   1     -29.283   0.999  27.162  0.00  0.00    -0.004 A 
ENDBRANCH   1   8
BRANCH   1  14
ATOM     14  C   UNL A   1     -26.113   2.092  28.415  0.00  0.00    -0.014 C 
ATOM     15  C   UNL A   1     -26.134   2.457  29.695  0.00  0.00    +0.071 C 
BRANCH  15  16
ATOM     16  C   UNL A   1     -25.221   3.412  30.105  0.00  0.00    +0.418 C 
ATOM     17  F   UNL A   1     -25.141   3.640  31.448  0.00  0.00    -0.166 F 
ATOM     18  F   UNL A   1     -23.999   3.135  29.785  0.00  0.00    -0.166 F 
ATOM     19  F   UNL A   1     -25.477   4.614  29.537  0.00  0.00    -0.166 F 
ENDBRANCH  15  16
ENDBRANCH   1  14
TORSDOF 4
