REMARK  Name = No_1215-gen_results/8p0m/2024-11-26-14-13-15/
REMARK  3 active torsions:
REMARK  status: ('A' for Active; 'I' for Inactive)
REMARK    1  A    between atoms: C_6  and  C_20
REMARK    2  A    between atoms: C_20  and  O_21
REMARK    3  A    between atoms: O_21  and  C_23
REMARK                            x       y       z     vdW  Elec       q    Type
REMARK                         _______ _______ _______ _____ _____    ______ ____
ROOT
ATOM      1  C   UNL A   1     -28.016  -0.814  28.878  0.00  0.00    +0.008 A 
ATOM      2  C   UNL A   1     -28.469  -0.785  29.829  0.00  0.00    +0.000 A 
ATOM      3  C   UNL A   1     -27.087   0.290  28.638  0.00  0.00    +0.088 A 
ATOM      4  C   UNL A   1     -26.252   0.411  27.422  0.00  0.00    +0.256 C 
ATOM      5  C   UNL A   1     -28.391   0.104  30.980  0.00  0.00    +0.005 A 
ATOM      6  C   UNL A   1     -27.533   1.167  30.787  0.00  0.00    +0.087 A 
ATOM      7  C   UNL A   1     -26.828   1.256  29.645  0.00  0.00    +0.155 A 
ATOM      8  N   UNL A   1     -25.189   0.469  27.361  0.00  0.00    -0.253 N 
ATOM      9  O   UNL A   1     -26.979   0.398  26.280  0.00  0.00    -0.270 OA
ATOM     10  C   UNL A   1     -24.207   0.528  28.505  0.00  0.00    +0.060 A 
ATOM     11  C   UNL A   1     -23.544  -0.634  28.858  0.00  0.00    +0.015 A 
ATOM     12  C   UNL A   1     -22.516  -0.543  29.821  0.00  0.00    +0.001 A 
ATOM     13  C   UNL A   1     -24.131   1.561  29.214  0.00  0.00    +0.090 A 
ATOM     14  C   UNL A   1     -23.177   1.655  30.353  0.00  0.00    +0.008 A 
ATOM     15  C   UNL A   1     -22.414   0.578  30.625  0.00  0.00    +0.000 A 
ATOM     16  C   UNL A   1     -25.282   2.597  29.335  0.00  0.00    +0.347 C 
ATOM     17  O   UNL A   1     -26.514   2.333  29.001  0.00  0.00    -0.421 OA
ATOM     18  O   UNL A   1     -25.024   3.651  30.039  0.00  0.00    -0.244 OA
ATOM     19  C   UNL A   1     -24.355   0.128  26.156  0.00  0.00    +0.120 C 
ENDROOT
BRANCH   6  20
ATOM     20  C   UNL A   1     -27.359   2.232  31.839  0.00  0.00    +0.354 C 
ATOM     21  F   UNL A   1     -26.299   1.973  32.560  0.00  0.00    -0.183 F 
BRANCH  20  22
ATOM     22  O   UNL A   1     -28.082   3.184  31.989  0.00  0.00    -0.446 OA
BRANCH  22  23
ATOM     23  C   UNL A   1     -27.619   4.361  32.272  0.00  0.00    +0.142 A 
ATOM     24  C   UNL A   1     -26.894   4.611  33.382  0.00  0.00    +0.037 A 
ATOM     25  C   UNL A   1     -25.882   5.527  33.331  0.00  0.00    +0.003 A 
ATOM     26  C   UNL A   1     -25.904   6.562  32.361  0.00  0.00    +0.000 A 
ATOM     27  C   UNL A   1     -26.708   6.334  31.235  0.00  0.00    +0.003 A 
ATOM     28  C   UNL A   1     -27.556   5.215  31.154  0.00  0.00    +0.037 A 
ENDBRANCH  22  23
ENDBRANCH  20  22
ENDBRANCH   6  20
TORSDOF 3
