MODEL 1216
MODEL 1
REMARK VINA RESULT:    -5.066      0.000      0.000
REMARK INTER + INTRA:          -5.408
REMARK INTER:                  -5.363
REMARK INTRA:                  -0.046
REMARK UNBOUND:                -0.046
REMARK  Name = No_1216-gen_results/8p0m/2024-11-26-14-13-15/
REMARK  1 active torsions:
REMARK  status: ('A' for Active; 'I' for Inactive)
REMARK    1  A    between atoms: C_3  and  C_7
REMARK                            x       y       z     vdW  Elec       q    Type
REMARK                         _______ _______ _______ _____ _____    ______ ____
ROOT
ATOM      1  C   UNL A   1     -25.054  -5.112  29.076  0.00  0.00    +0.000 A 
ATOM      2  C   UNL A   1     -24.179  -4.301  28.882  0.00  0.00    +0.000 A 
ATOM      3  C   UNL A   1     -24.290  -2.952  29.216  0.00  0.00    +0.001 A 
ATOM      4  C   UNL A   1     -25.536  -2.462  29.774  0.00  0.00    +0.000 A 
ATOM      5  C   UNL A   1     -26.524  -3.427  29.962  0.00  0.00    +0.000 A 
ATOM      6  C   UNL A   1     -26.338  -4.684  29.607  0.00  0.00    +0.000 A 
ENDROOT
BRANCH   3   7
ATOM      7  C   UNL A   1     -23.254  -1.897  29.015  0.00  0.00    +0.019 C 
ATOM      8  C   UNL A   1     -22.953  -0.991  29.976  0.00  0.00    +0.106 C 
ATOM      9  N   UNL A   1     -22.010  -0.088  29.620  0.00  0.00    -0.127 NA
ENDBRANCH   3   7
TORSDOF 1
ENDMDL
ENDMDL
