MODEL 1217
MODEL 1
REMARK VINA RESULT:    -7.111      0.000      0.000
REMARK INTER + INTRA:          -9.905
REMARK INTER:                  -9.189
REMARK INTRA:                  -0.716
REMARK UNBOUND:                -0.716
REMARK  Name = No_1217-gen_results/8p0m/2024-11-26-14-13-15/
REMARK  5 active torsions:
REMARK  status: ('A' for Active; 'I' for Inactive)
REMARK    1  A    between atoms: C_1  and  C_8
REMARK    2  A    between atoms: C_6  and  C_13
REMARK    3  A    between atoms: C_8  and  O_10
REMARK    4  A    between atoms: O_10  and  C_17
REMARK    5  A    between atoms: C_21  and  C_23
REMARK                            x       y       z     vdW  Elec       q    Type
REMARK                         _______ _______ _______ _____ _____    ______ ____
ROOT
ATOM      1  C   UNL A   1     -24.585   0.625  26.023  0.00  0.00    +0.076 C 
ATOM      2  C   UNL A   1     -24.253   0.321  27.145  0.00  0.00    -0.005 C 
ATOM      3  C   UNL A   1     -23.131   0.798  27.801  0.00  0.00    +0.181 C 
ATOM      4  C   UNL A   1     -22.668   0.392  29.107  0.00  0.00    +0.056 C 
ATOM      5  C   UNL A   1     -23.412  -0.580  29.817  0.00  0.00    +0.087 C 
ATOM      6  C   UNL A   1     -24.577  -1.107  29.201  0.00  0.00    +0.041 C 
ATOM      7  C   UNL A   1     -24.915  -0.682  27.954  0.00  0.00    +0.030 C 
ATOM      8 CL   UNL A   1     -22.959  -1.070  31.375  0.00  0.00    -0.115 Cl
ATOM      9  F   UNL A   1     -22.323   1.635  27.204  0.00  0.00    -0.233 F 
ENDROOT
BRANCH   6  10
ATOM     10  C   UNL A   1     -25.378  -2.152  29.936  0.00  0.00    -0.033 C 
ATOM     11  C   UNL A   1     -25.434  -3.357  29.427  0.00  0.00    -0.048 C 
ATOM     12  C   UNL A   1     -26.127  -4.279  29.691  0.00  0.00    +0.026 C 
ATOM     13  C   UNL A   1     -24.139  -3.746  28.874  0.00  0.00    +0.026 C 
ENDBRANCH   6  10
BRANCH   1  14
ATOM     14  C   UNL A   1     -25.907   1.354  25.931  0.00  0.00    +0.343 C 
ATOM     15  O   UNL A   1     -26.280   2.142  26.458  0.00  0.00    -0.245 OA
BRANCH  14  16
ATOM     16  O   UNL A   1     -26.731   0.680  24.938  0.00  0.00    -0.419 OA
BRANCH  16  17
ATOM     17  C   UNL A   1     -27.864   0.936  24.549  0.00  0.00    +0.321 C 
ATOM     18  C   UNL A   1     -28.091   1.678  23.546  0.00  0.00    +0.221 C 
ATOM     19  O   UNL A   1     -29.366   1.944  23.174  0.00  0.00    -0.320 OA
ATOM     20  C   UNL A   1     -30.220   1.191  23.711  0.00  0.00    +0.304 C 
ATOM     21  C   UNL A   1     -29.548  -0.071  23.953  0.00  0.00    +0.242 C 
ATOM     22  O   UNL A   1     -28.550  -0.021  24.789  0.00  0.00    -0.308 OA
ATOM     23  O   UNL A   1     -31.386   1.099  22.908  0.00  0.00    -0.187 OA
BRANCH  21  24
ATOM     24  C   UNL A   1     -30.611  -1.139  24.509  0.00  0.00    +0.242 C 
ATOM     25  O   UNL A   1     -30.317  -2.265  24.416  0.00  0.00    -0.285 OA
ENDBRANCH  21  24
ENDBRANCH  16  17
ENDBRANCH  14  16
ENDBRANCH   1  14
TORSDOF 5
ENDMDL
ENDMDL
