REMARK  Name = No_1217-gen_results/8p0m/2024-11-26-14-13-15/
REMARK  5 active torsions:
REMARK  status: ('A' for Active; 'I' for Inactive)
REMARK    1  A    between atoms: C_1  and  C_8
REMARK    2  A    between atoms: C_6  and  C_13
REMARK    3  A    between atoms: C_8  and  O_10
REMARK    4  A    between atoms: O_10  and  C_17
REMARK    5  A    between atoms: C_21  and  C_23
REMARK                            x       y       z     vdW  Elec       q    Type
REMARK                         _______ _______ _______ _____ _____    ______ ____
ROOT
ATOM      1  C   UNL A   1     -28.016  -0.814  28.878  0.00  0.00    +0.076 C 
ATOM      2  C   UNL A   1     -27.064  -0.119  28.608  0.00  0.00    -0.005 C 
ATOM      3  C   UNL A   1     -26.972   0.714  27.506  0.00  0.00    +0.181 C 
ATOM      4  C   UNL A   1     -25.820   1.491  27.116  0.00  0.00    +0.056 C 
ATOM      5  C   UNL A   1     -24.656   1.424  27.918  0.00  0.00    +0.087 C 
ATOM      6  C   UNL A   1     -24.685   0.590  29.066  0.00  0.00    +0.041 C 
ATOM      7  C   UNL A   1     -25.810  -0.127  29.334  0.00  0.00    +0.030 C 
ATOM      8 CL   UNL A   1     -23.281   2.346  27.553  0.00  0.00    -0.115 Cl
ATOM      9  F   UNL A   1     -27.958   0.786  26.649  0.00  0.00    -0.233 F 
ENDROOT
BRANCH   6  10
ATOM     10  C   UNL A   1     -23.452   0.496  29.928  0.00  0.00    -0.033 C 
ATOM     11  C   UNL A   1     -23.152  -0.666  30.451  0.00  0.00    -0.048 C 
ATOM     12  C   UNL A   1     -22.374  -0.961  31.293  0.00  0.00    +0.026 C 
ATOM     13  C   UNL A   1     -23.409  -1.744  29.499  0.00  0.00    +0.026 C 
ENDBRANCH   6  10
BRANCH   1  14
ATOM     14  C   UNL A   1     -28.709  -0.459  30.175  0.00  0.00    +0.343 C 
ATOM     15  O   UNL A   1     -28.670   0.380  30.752  0.00  0.00    -0.245 OA
BRANCH  14  16
ATOM     16  O   UNL A   1     -29.476  -1.615  30.614  0.00  0.00    -0.419 OA
BRANCH  16  17
ATOM     17  C   UNL A   1     -29.690  -2.680  30.049  0.00  0.00    +0.321 C 
ATOM     18  C   UNL A   1     -29.501  -3.802  30.610  0.00  0.00    +0.221 C 
ATOM     19  O   UNL A   1     -29.735  -4.949  29.929  0.00  0.00    -0.320 OA
ATOM     20  C   UNL A   1     -30.390  -4.785  28.867  0.00  0.00    +0.304 C 
ATOM     21  C   UNL A   1     -31.235  -3.628  29.090  0.00  0.00    +0.242 C 
ATOM     22  O   UNL A   1     -30.605  -2.506  29.289  0.00  0.00    -0.308 OA
ATOM     23  O   UNL A   1     -31.087  -5.971  28.517  0.00  0.00    -0.187 OA
BRANCH  21  24
ATOM     24  C   UNL A   1     -32.212  -3.434  27.830  0.00  0.00    +0.242 C 
ATOM     25  O   UNL A   1     -32.078  -2.453  27.212  0.00  0.00    -0.285 OA
ENDBRANCH  21  24
ENDBRANCH  16  17
ENDBRANCH  14  16
ENDBRANCH   1  14
TORSDOF 5
