MODEL 1218
MODEL 1
REMARK VINA RESULT:    -4.283      0.000      0.000
REMARK INTER + INTRA:          -4.283
REMARK INTER:                  -4.283
REMARK INTRA:                   0.000
REMARK UNBOUND:                 0.000
REMARK  Name = No_1218-gen_results/8p0m/2024-11-26-14-13-15/
REMARK  0 active torsions:
REMARK  status: ('A' for Active; 'I' for Inactive)
REMARK                            x       y       z     vdW  Elec       q    Type
REMARK                         _______ _______ _______ _____ _____    ______ ____
ROOT
ATOM      1  C   UNL A   1     -24.153  -4.930  28.614  0.00  0.00    +0.000 A 
ATOM      2  C   UNL A   1     -25.053  -5.290  29.028  0.00  0.00    +0.000 A 
ATOM      3  C   UNL A   1     -24.020  -3.475  28.678  0.00  0.00    +0.000 A 
ATOM      4  C   UNL A   1     -24.981  -2.678  29.249  0.00  0.00    +0.000 A 
ATOM      5  C   UNL A   1     -26.218  -4.700  29.687  0.00  0.00    +0.000 A 
ATOM      6  C   UNL A   1     -26.099  -3.291  29.754  0.00  0.00    +0.000 A 
ENDROOT
TORSDOF 0
ENDMDL
ENDMDL
