REMARK  Name = No_1219-gen_results/8p0m/2024-11-26-14-13-15/
REMARK  2 active torsions:
REMARK  status: ('A' for Active; 'I' for Inactive)
REMARK    1  A    between atoms: C_1  and  C_2
REMARK    2  A    between atoms: C_5  and  C_10
REMARK                            x       y       z     vdW  Elec       q    Type
REMARK                         _______ _______ _______ _____ _____    ______ ____
ROOT
ATOM      1  C   UNL A   1     -27.064  -0.119  28.608  0.00  0.00    +0.018 A 
ATOM      2  C   UNL A   1     -25.792  -0.430  29.076  0.00  0.00    +0.002 A 
ATOM      3  C   UNL A   1     -24.546   0.349  28.823  0.00  0.00    +0.008 A 
ATOM      4  C   UNL A   1     -24.659   1.420  27.888  0.00  0.00    +0.098 A 
ATOM      5  C   UNL A   1     -25.947   1.681  27.379  0.00  0.00    +0.008 A 
ATOM      6  C   UNL A   1     -27.044   0.974  27.687  0.00  0.00    +0.002 A 
ENDROOT
BRANCH   1   7
ATOM      7  C   UNL A   1     -28.016  -0.814  28.878  0.00  0.00    +0.081 A 
ATOM      8  N   UNL A   1     -29.188  -0.147  29.092  0.00  0.00    -0.244 NA
ATOM      9  C   UNL A   1     -30.202  -0.783  29.730  0.00  0.00    +0.099 A 
ATOM     10  C   UNL A   1     -29.928  -1.980  30.343  0.00  0.00    +0.021 A 
ATOM     11  C   UNL A   1     -28.677  -2.579  30.330  0.00  0.00    +0.003 A 
ATOM     12  C   UNL A   1     -27.677  -1.900  29.783  0.00  0.00    +0.019 A 
ENDBRANCH   1   7
BRANCH   4  13
ATOM     13  C   UNL A   1     -23.451   2.152  27.601  0.00  0.00    +0.477 C 
ATOM     14  N   UNL A   1     -22.517   1.836  27.255  0.00  0.00    +0.205 NA
ATOM     15  N   UNL A   1     -23.536   3.520  27.873  0.00  0.00    +0.205 NA
ENDBRANCH   4  13
TORSDOF 2
