MODEL 1219
MODEL 1
REMARK VINA RESULT:    -6.488      0.000      0.000
REMARK INTER + INTRA:          -7.659
REMARK INTER:                  -7.246
REMARK INTRA:                  -0.412
REMARK UNBOUND:                -0.412
REMARK  Name = No_1219-gen_results/8p0m/2024-11-26-14-13-15/
REMARK  2 active torsions:
REMARK  status: ('A' for Active; 'I' for Inactive)
REMARK    1  A    between atoms: C_1  and  C_2
REMARK    2  A    between atoms: C_5  and  C_10
REMARK                            x       y       z     vdW  Elec       q    Type
REMARK                         _______ _______ _______ _____ _____    ______ ____
ROOT
ATOM      1  C   UNL A   1     -24.143  -1.719  28.680  0.00  0.00    +0.018 A 
ATOM      2  C   UNL A   1     -25.067  -1.063  27.874  0.00  0.00    +0.002 A 
ATOM      3  C   UNL A   1     -24.897   0.284  27.256  0.00  0.00    +0.008 A 
ATOM      4  C   UNL A   1     -23.744   1.017  27.665  0.00  0.00    +0.098 A 
ATOM      5  C   UNL A   1     -22.850   0.356  28.531  0.00  0.00    +0.008 A 
ATOM      6  C   UNL A   1     -23.032  -0.882  29.012  0.00  0.00    +0.002 A 
ENDROOT
BRANCH   1   7
ATOM      7  C   UNL A   1     -24.373  -2.819  29.126  0.00  0.00    +0.081 A 
ATOM      8  N   UNL A   1     -23.728  -3.851  28.507  0.00  0.00    -0.244 NA
ATOM      9  C   UNL A   1     -24.178  -5.117  28.694  0.00  0.00    +0.099 A 
ATOM     10  C   UNL A   1     -25.397  -5.285  29.300  0.00  0.00    +0.021 A 
ATOM     11  C   UNL A   1     -26.184  -4.232  29.744  0.00  0.00    +0.003 A 
ATOM     12  C   UNL A   1     -25.774  -3.001  29.470  0.00  0.00    +0.019 A 
ENDBRANCH   1   7
BRANCH   4  13
ATOM     13  C   UNL A   1     -23.593   2.338  27.110  0.00  0.00    +0.477 C 
ATOM     14  N   UNL A   1     -23.852   3.279  27.484  0.00  0.00    +0.205 NA
ATOM     15  N   UNL A   1     -23.038   2.357  25.827  0.00  0.00    +0.205 NA
ENDBRANCH   4  13
TORSDOF 2
ENDMDL
ENDMDL
