MODEL 121
MODEL 1
REMARK VINA RESULT:    -7.672      0.000      0.000
REMARK INTER + INTRA:         -13.431
REMARK INTER:                  -9.915
REMARK INTRA:                  -3.517
REMARK UNBOUND:                -3.517
REMARK  Name = No_121-gen_results/8p0m/2024-11-26-14-13-15/
REMARK  5 active torsions:
REMARK  status: ('A' for Active; 'I' for Inactive)
REMARK    1  A    between atoms: C_2  and  C_25
REMARK    2  A    between atoms: C_3  and  C_7
REMARK    3  A    between atoms: C_8  and  C_17
REMARK    4  A    between atoms: C_9  and  C_10
REMARK    5  A    between atoms: N_27  and  C_28
REMARK                            x       y       z     vdW  Elec       q    Type
REMARK                         _______ _______ _______ _____ _____    ______ ____
ROOT
ATOM      1  C   UNL A   1     -30.134  -8.858   9.644  0.00  0.00    +0.000 A 
ATOM      2  C   UNL A   1     -29.870  -7.536   9.302  0.00  0.00    +0.000 A 
ATOM      3  C   UNL A   1     -31.221  -9.212  10.408  0.00  0.00    +0.000 A 
ATOM      4  C   UNL A   1     -32.028  -8.136  10.876  0.00  0.00    +0.000 A 
ATOM      5  C   UNL A   1     -30.577  -6.487   9.984  0.00  0.00    +0.000 A 
ATOM      6  C   UNL A   1     -31.659  -6.813  10.709  0.00  0.00    +0.000 A 
ENDROOT
BRANCH   1   9
ATOM      7  C   UNL A   1     -29.547 -10.729   7.970  0.00  0.00    +0.002 A 
ATOM      8  C   UNL A   1     -28.766 -11.360   7.651  0.00  0.00    +0.029 A 
ATOM      9  C   UNL A   1     -29.175  -9.852   9.080  0.00  0.00    +0.000 A 
ATOM     10  C   UNL A   1     -27.914  -9.855   9.622  0.00  0.00    +0.000 A 
ATOM     11  C   UNL A   1     -27.368 -11.575   8.024  0.00  0.00    +0.002 A 
ATOM     12  C   UNL A   1     -26.997 -10.730   9.097  0.00  0.00    +0.000 A 
BRANCH   8  13
ATOM     13  C   UNL A   1     -29.046 -12.415   6.425  0.00  0.00    +0.138 C 
ATOM     14 CL   UNL A   1     -28.975 -11.898   4.959  0.00  0.00    -0.061 Cl
ATOM     15  N   UNL A   1     -29.566 -13.649   6.668  0.00  0.00    -0.234 NA
BRANCH  15  16
ATOM     16  C   UNL A   1     -29.669 -14.173   7.824  0.00  0.00    +0.082 A 
ATOM     17  C   UNL A   1     -29.126 -14.434   8.630  0.00  0.00    +0.019 A 
ATOM     18  C   UNL A   1     -29.445 -15.173   9.885  0.00  0.00    +0.002 A 
ATOM     19  C   UNL A   1     -30.741 -15.667   9.880  0.00  0.00    +0.000 A 
ATOM     20  C   UNL A   1     -31.351 -15.700   9.017  0.00  0.00    +0.002 A 
ATOM     21  C   UNL A   1     -31.123 -14.871   7.802  0.00  0.00    +0.019 A 
ENDBRANCH  15  16
ENDBRANCH   8  13
ENDBRANCH   1   9
BRANCH   3  22
ATOM     22  C   UNL A   1     -31.503 -10.511  10.743  0.00  0.00    +0.000 A 
ATOM     23  C   UNL A   1     -32.528 -11.143  10.048  0.00  0.00    +0.000 A 
ATOM     24  C   UNL A   1     -32.869 -12.486  10.354  0.00  0.00    +0.000 A 
ATOM     25  C   UNL A   1     -32.449 -13.011  11.097  0.00  0.00    +0.000 A 
ATOM     26  C   UNL A   1     -31.336 -12.534  11.997  0.00  0.00    +0.000 A 
ATOM     27  C   UNL A   1     -30.937 -11.286  11.819  0.00  0.00    +0.000 A 
ENDBRANCH   3  22
BRANCH   2  28
ATOM     28  C   UNL A   1     -29.055  -7.187   8.204  0.00  0.00    +0.000 A 
ATOM     29  C   UNL A   1     -29.335  -7.194   7.068  0.00  0.00    +0.000 A 
ATOM     30  C   UNL A   1     -28.405  -6.757   6.028  0.00  0.00    +0.000 A 
ATOM     31  C   UNL A   1     -27.119  -6.338   6.359  0.00  0.00    +0.000 A 
ATOM     32  C   UNL A   1     -27.776  -6.688   8.714  0.00  0.00    +0.000 A 
ATOM     33  C   UNL A   1     -26.812  -6.293   7.761  0.00  0.00    +0.000 A 
ENDBRANCH   2  28
TORSDOF 5
ENDMDL
ENDMDL
