REMARK  Name = No_122-gen_results/8p0m/2024-11-26-14-13-15/
REMARK  1 active torsions:
REMARK  status: ('A' for Active; 'I' for Inactive)
REMARK    1  A    between atoms: C_11  and  C_17
REMARK                            x       y       z     vdW  Elec       q    Type
REMARK                         _______ _______ _______ _____ _____    ______ ____
ROOT
ATOM      1  C   UNL A   1     -28.016  -0.814  28.878  0.00  0.00    +0.002 A 
ATOM      2  C   UNL A   1     -27.064  -0.119  28.608  0.00  0.00    +0.024 A 
ATOM      3  C   UNL A   1     -25.792  -0.430  29.076  0.00  0.00    -0.016 A 
ATOM      4  C   UNL A   1     -25.576  -1.565  29.936  0.00  0.00    -0.004 A 
ATOM      5  C   UNL A   1     -26.735  -2.300  30.217  0.00  0.00    -0.000 A 
ATOM      6  C   UNL A   1     -27.918  -1.954  29.763  0.00  0.00    +0.000 A 
ATOM      7  C   UNL A   1     -27.106   1.102  27.759  0.00  0.00    +0.136 C 
ATOM      8  C   UNL A   1     -26.716   2.235  27.994  0.00  0.00    +0.005 C 
ATOM      9  C   UNL A   1     -26.069   2.477  29.357  0.00  0.00    -0.005 A 
ATOM     10  C   UNL A   1     -26.262   3.449  30.096  0.00  0.00    +0.006 A 
ATOM     11  C   UNL A   1     -25.634   3.582  31.419  0.00  0.00    +0.080 A 
ATOM     12  C   UNL A   1     -24.672   2.659  31.791  0.00  0.00    +0.006 A 
ATOM     13  C   UNL A   1     -24.374   1.633  30.948  0.00  0.00    -0.004 A 
ATOM     14  C   UNL A   1     -25.002   1.528  29.739  0.00  0.00    -0.018 A 
ATOM     15  C   UNL A   1     -24.931   0.209  29.205  0.00  0.00    +0.053 C 
ATOM     16  F   UNL A   1     -28.378   1.080  27.179  0.00  0.00    -0.204 F 
ATOM     17  C   UNL A   1     -26.852   3.453  27.238  0.00  0.00    +0.033 C 
ENDROOT
BRANCH  11  18
ATOM     18  C   UNL A   1     -25.852   4.814  32.297  0.00  0.00    +0.388 C 
ATOM     19  O   UNL A   1     -25.828   5.764  31.883  0.00  0.00    -0.241 OA
ATOM     20  O   UNL A   1     -26.349   4.436  33.547  0.00  0.00    -0.241 OA
ENDBRANCH  11  18
TORSDOF 1
