MODEL 1220
MODEL 1
REMARK VINA RESULT:    -7.217      0.000      0.000
REMARK INTER + INTRA:         -11.119
REMARK INTER:                  -9.749
REMARK INTRA:                  -1.370
REMARK UNBOUND:                -1.370
REMARK  Name = No_1220-gen_results/8p0m/2024-11-26-14-13-15/
REMARK  6 active torsions:
REMARK  status: ('A' for Active; 'I' for Inactive)
REMARK    1  A    between atoms: C_2  and  C_7
REMARK    2  A    between atoms: C_3  and  O_18
REMARK    3  A    between atoms: C_4  and  C_10
REMARK    4  A    between atoms: C_13  and  C_15
REMARK    5  A    between atoms: O_18  and  C_19
REMARK    6  A    between atoms: C_19  and  C_21
REMARK                            x       y       z     vdW  Elec       q    Type
REMARK                         _______ _______ _______ _____ _____    ______ ____
ROOT
ATOM      1  C   UNL A   1     -23.872  -2.617  29.584  0.00  0.00    +0.044 A 
ATOM      2  C   UNL A   1     -24.763  -3.178  29.547  0.00  0.00    +0.083 A 
ATOM      3  C   UNL A   1     -23.980  -1.242  30.098  0.00  0.00    +0.148 A 
ATOM      4  C   UNL A   1     -25.208  -0.766  30.643  0.00  0.00    +0.072 A 
ATOM      5  C   UNL A   1     -26.129  -2.946  30.091  0.00  0.00    +0.007 A 
ATOM      6  C   UNL A   1     -26.271  -1.676  30.567  0.00  0.00    +0.006 A 
ENDROOT
BRANCH   4   7
ATOM      7  C   UNL A   1     -25.360   0.567  31.149  0.00  0.00    +0.188 A 
ATOM      8  N   UNL A   1     -25.234   0.891  32.183  0.00  0.00    -0.127 NA
ATOM      9  N   UNL A   1     -25.686   1.557  30.222  0.00  0.00    -0.199 NA
ATOM     10  C   UNL A   1     -25.726   2.748  30.956  0.00  0.00    +0.266 A 
ATOM     11  N   UNL A   1     -25.498   2.277  32.176  0.00  0.00    -0.120 NA
BRANCH  10  12
ATOM     12  C   UNL A   1     -26.013   4.049  30.533  0.00  0.00    +0.425 C 
ATOM     13  O   UNL A   1     -25.400   4.220  29.575  0.00  0.00    -0.237 OA
ATOM     14  O   UNL A   1     -26.482   4.868  31.325  0.00  0.00    -0.237 OA
ENDBRANCH  10  12
ENDBRANCH   4   7
BRANCH   2  15
ATOM     15  C   UNL A   1     -24.684  -4.679  29.015  0.00  0.00    +0.388 C 
ATOM     16  O   UNL A   1     -23.827  -4.958  28.116  0.00  0.00    -0.241 OA
ATOM     17  O   UNL A   1     -25.385  -5.506  29.615  0.00  0.00    -0.241 OA
ENDBRANCH   2  15
BRANCH   3  18
ATOM     18  O   UNL A   1     -22.910  -0.406  30.100  0.00  0.00    -0.453 OA
BRANCH  18  19
ATOM     19  C   UNL A   1     -22.278  -0.040  28.888  0.00  0.00    +0.145 C 
ATOM     20  C   UNL A   1     -20.974  -0.425  28.772  0.00  0.00    +0.041 C 
BRANCH  19  21
ATOM     21  C   UNL A   1     -22.877   0.691  27.881  0.00  0.00    +0.035 A 
ATOM     22  C   UNL A   1     -22.269   1.805  27.234  0.00  0.00    +0.003 A 
ATOM     23  C   UNL A   1     -23.079   2.380  26.151  0.00  0.00    +0.000 A 
ATOM     24  C   UNL A   1     -24.287   1.890  25.885  0.00  0.00    +0.000 A 
ATOM     25  C   UNL A   1     -24.056   0.229  27.262  0.00  0.00    +0.003 A 
ATOM     26  C   UNL A   1     -24.732   0.749  26.269  0.00  0.00    +0.000 A 
ENDBRANCH  19  21
ENDBRANCH  18  19
ENDBRANCH   3  18
TORSDOF 6
ENDMDL
ENDMDL
