REMARK  Name = No_1220-gen_results/8p0m/2024-11-26-14-13-15/
REMARK  6 active torsions:
REMARK  status: ('A' for Active; 'I' for Inactive)
REMARK    1  A    between atoms: C_2  and  C_7
REMARK    2  A    between atoms: C_3  and  O_18
REMARK    3  A    between atoms: C_4  and  C_10
REMARK    4  A    between atoms: C_13  and  C_15
REMARK    5  A    between atoms: O_18  and  C_19
REMARK    6  A    between atoms: C_19  and  C_21
REMARK                            x       y       z     vdW  Elec       q    Type
REMARK                         _______ _______ _______ _____ _____    ______ ____
ROOT
ATOM      1  C   UNL A   1     -28.016  -0.814  28.878  0.00  0.00    +0.044 A 
ATOM      2  C   UNL A   1     -28.469  -0.785  29.829  0.00  0.00    +0.083 A 
ATOM      3  C   UNL A   1     -26.546  -0.876  28.850  0.00  0.00    +0.148 A 
ATOM      4  C   UNL A   1     -25.804  -1.032  30.057  0.00  0.00    +0.072 A 
ATOM      5  C   UNL A   1     -27.944  -0.987  31.207  0.00  0.00    +0.007 A 
ATOM      6  C   UNL A   1     -26.582  -1.039  31.223  0.00  0.00    +0.006 A 
ENDROOT
BRANCH   4   7
ATOM      7  C   UNL A   1     -24.371  -1.092  30.078  0.00  0.00    +0.188 A 
ATOM      8  N   UNL A   1     -23.756  -1.817  30.612  0.00  0.00    -0.127 NA
ATOM      9  N   UNL A   1     -23.692  -0.136  29.323  0.00  0.00    -0.199 NA
ATOM     10  C   UNL A   1     -22.336  -0.444  29.476  0.00  0.00    +0.266 A 
ATOM     11  N   UNL A   1     -22.422  -1.456  30.330  0.00  0.00    -0.120 NA
BRANCH  10  12
ATOM     12  C   UNL A   1     -21.210   0.193  28.946  0.00  0.00    +0.425 C 
ATOM     13  O   UNL A   1     -21.600   1.096  28.350  0.00  0.00    -0.237 OA
ATOM     14  O   UNL A   1     -20.144  -0.417  28.845  0.00  0.00    -0.237 OA
ENDBRANCH  10  12
ENDBRANCH   4   7
BRANCH   2  15
ATOM     15  C   UNL A   1     -30.061  -0.737  29.902  0.00  0.00    +0.388 C 
ATOM     16  O   UNL A   1     -30.605   0.086  30.707  0.00  0.00    -0.241 OA
ATOM     17  O   UNL A   1     -30.665  -1.422  29.065  0.00  0.00    -0.241 OA
ENDBRANCH   2  15
BRANCH   3  18
ATOM     18  O   UNL A   1     -25.862  -0.824  27.679  0.00  0.00    -0.453 OA
BRANCH  18  19
ATOM     19  C   UNL A   1     -25.887   0.345  26.880  0.00  0.00    +0.145 C 
ATOM     20  C   UNL A   1     -25.431   0.187  25.604  0.00  0.00    +0.041 C 
BRANCH  19  21
ATOM     21  C   UNL A   1     -26.292   1.588  27.323  0.00  0.00    +0.035 A 
ATOM     22  C   UNL A   1     -26.750   1.853  28.645  0.00  0.00    +0.003 A 
ATOM     23  C   UNL A   1     -27.066   3.267  28.894  0.00  0.00    +0.000 A 
ATOM     24  C   UNL A   1     -26.962   4.160  27.913  0.00  0.00    +0.000 A 
ATOM     25  C   UNL A   1     -26.055   2.740  26.546  0.00  0.00    +0.003 A 
ATOM     26  C   UNL A   1     -26.315   3.994  26.817  0.00  0.00    +0.000 A 
ENDBRANCH  19  21
ENDBRANCH  18  19
ENDBRANCH   3  18
TORSDOF 6
