REMARK  Name = No_1221-gen_results/8p0m/2024-11-26-14-13-15/
REMARK  4 active torsions:
REMARK  status: ('A' for Active; 'I' for Inactive)
REMARK    1  A    between atoms: C_7  and  C_9
REMARK    2  A    between atoms: C_9  and  C_10
REMARK    3  A    between atoms: C_9  and  C_17
REMARK    4  A    between atoms: C_10  and  C_11
REMARK                            x       y       z     vdW  Elec       q    Type
REMARK                         _______ _______ _______ _____ _____    ______ ____
ROOT
ATOM      1  C   UNL A   1     -26.380   2.363  30.854  0.00  0.00    +0.047 C 
ENDROOT
BRANCH   1   8
ATOM      2  O   UNL A   1     -28.123  -1.335  28.487  0.00  0.00    -0.273 OA
ATOM      3  C   UNL A   1     -27.481  -0.404  28.709  0.00  0.00    +0.243 C 
ATOM      4  N   UNL A   1     -27.241   0.391  29.510  0.00  0.00    -0.207 NA
ATOM      5  C   UNL A   1     -26.239  -0.338  27.678  0.00  0.00    +0.103 C 
ATOM      6  C   UNL A   1     -25.309   0.691  27.752  0.00  0.00    +0.091 C 
ATOM      7  C   UNL A   1     -25.362   1.542  28.828  0.00  0.00    +0.039 C 
ATOM      8  C   UNL A   1     -26.355   1.406  29.747  0.00  0.00    +0.101 C 
ATOM      9 CL   UNL A   1     -24.069   0.634  26.632  0.00  0.00    -0.114 Cl
ENDBRANCH   1   8
BRANCH   1  10
ATOM     10  C   UNL A   1     -27.014   3.607  30.660  0.00  0.00    -0.021 A 
ATOM     11  C   UNL A   1     -28.304   3.696  30.119  0.00  0.00    -0.004 A 
ATOM     12  C   UNL A   1     -28.856   4.916  29.978  0.00  0.00    -0.000 A 
ATOM     13  C   UNL A   1     -26.295   4.770  30.975  0.00  0.00    -0.004 A 
ATOM     14  C   UNL A   1     -26.845   6.040  30.829  0.00  0.00    -0.000 A 
ATOM     15  C   UNL A   1     -28.147   6.106  30.314  0.00  0.00    -0.000 A 
ENDBRANCH   1  10
BRANCH   1  16
ATOM     16  C   UNL A   1     -25.982   1.933  32.080  0.00  0.00    +0.032 C 
BRANCH  16  17
ATOM     17  C   UNL A   1     -26.472   2.012  33.039  0.00  0.00    -0.022 A 
ATOM     18  C   UNL A   1     -27.813   1.767  33.235  0.00  0.00    -0.004 A 
ATOM     19  C   UNL A   1     -28.321   1.497  34.474  0.00  0.00    -0.000 A 
ATOM     20  C   UNL A   1     -27.608   1.784  35.614  0.00  0.00    -0.000 A 
ATOM     21  C   UNL A   1     -26.308   2.175  35.545  0.00  0.00    -0.000 A 
ATOM     22  C   UNL A   1     -25.706   2.212  34.358  0.00  0.00    -0.004 A 
ENDBRANCH  16  17
ENDBRANCH   1  16
TORSDOF 4
