REMARK  Name = No_1222-gen_results/8p0m/2024-11-26-14-13-15/
REMARK  6 active torsions:
REMARK  status: ('A' for Active; 'I' for Inactive)
REMARK    1  A    between atoms: C_3  and  C_4
REMARK    2  A    between atoms: C_4  and  C_8
REMARK    3  A    between atoms: C_7  and  C_17
REMARK    4  A    between atoms: C_12  and  C_14
REMARK    5  A    between atoms: C_17  and  C_18
REMARK    6  A    between atoms: C_18  and  C_20
REMARK                            x       y       z     vdW  Elec       q    Type
REMARK                         _______ _______ _______ _____ _____    ______ ____
ROOT
ATOM      1  C   UNL A   1     -28.016  -0.814  28.878  0.00  0.00    -0.004 A 
ATOM      2  C   UNL A   1     -28.469  -0.785  29.829  0.00  0.00    -0.000 A 
ATOM      3  C   UNL A   1     -26.546  -0.876  28.850  0.00  0.00    -0.022 A 
ATOM      4  C   UNL A   1     -27.918  -1.003  31.188  0.00  0.00    -0.000 A 
ATOM      5  C   UNL A   1     -26.653  -0.921  31.234  0.00  0.00    -0.005 A 
ATOM      6  C   UNL A   1     -25.795  -0.950  30.110  0.00  0.00    -0.026 A 
ENDROOT
BRANCH   6   7
ATOM      7  C   UNL A   1     -24.406  -0.942  30.197  0.00  0.00    +0.029 C 
ATOM      8  C   UNL A   1     -23.937  -2.359  30.554  0.00  0.00    +0.005 C 
BRANCH   7   9
ATOM      9  C   UNL A   1     -23.575  -0.119  30.033  0.00  0.00    +0.069 C 
ATOM     10  C   UNL A   1     -23.720   1.279  30.343  0.00  0.00    +0.009 C 
BRANCH   9  11
ATOM     11  C   UNL A   1     -22.240  -0.392  29.358  0.00  0.00    +0.207 C 
ATOM     12  O   UNL A   1     -21.808  -1.479  29.151  0.00  0.00    -0.288 OA
ENDBRANCH   9  11
ENDBRANCH   7   9
ENDBRANCH   6   7
BRANCH   3  13
ATOM     13  C   UNL A   1     -25.683  -0.777  27.683  0.00  0.00    +0.052 C 
BRANCH  13  14
ATOM     14  C   UNL A   1     -25.869   0.253  26.751  0.00  0.00    -0.018 A 
ATOM     15  C   UNL A   1     -24.880   0.780  26.073  0.00  0.00    -0.004 A 
ATOM     16  C   UNL A   1     -24.189   1.809  26.257  0.00  0.00    -0.000 A 
ATOM     17  C   UNL A   1     -24.383   2.647  27.411  0.00  0.00    +0.007 A 
ATOM     18  C   UNL A   1     -25.660   2.668  27.895  0.00  0.00    +0.080 A 
ATOM     19  C   UNL A   1     -26.400   1.606  27.826  0.00  0.00    +0.003 A 
BRANCH  18  20
ATOM     20  C   UNL A   1     -26.038   3.678  28.886  0.00  0.00    +0.388 C 
ATOM     21  O   UNL A   1     -26.933   3.629  29.535  0.00  0.00    -0.241 OA
ATOM     22  O   UNL A   1     -25.399   4.935  28.663  0.00  0.00    -0.241 OA
ENDBRANCH  18  20
ENDBRANCH  13  14
ENDBRANCH   3  13
TORSDOF 6
