MODEL 1222
MODEL 1
REMARK VINA RESULT:    -6.070      0.000      0.000
REMARK INTER + INTRA:          -9.904
REMARK INTER:                  -8.199
REMARK INTRA:                  -1.706
REMARK UNBOUND:                -1.706
REMARK  Name = No_1222-gen_results/8p0m/2024-11-26-14-13-15/
REMARK  6 active torsions:
REMARK  status: ('A' for Active; 'I' for Inactive)
REMARK    1  A    between atoms: C_3  and  C_4
REMARK    2  A    between atoms: C_4  and  C_8
REMARK    3  A    between atoms: C_7  and  C_17
REMARK    4  A    between atoms: C_12  and  C_14
REMARK    5  A    between atoms: C_17  and  C_18
REMARK    6  A    between atoms: C_18  and  C_20
REMARK                            x       y       z     vdW  Elec       q    Type
REMARK                         _______ _______ _______ _____ _____    ______ ____
ROOT
ATOM      1  C   UNL A   1     -23.694   2.155  26.336  0.00  0.00    -0.004 A 
ATOM      2  C   UNL A   1     -22.659   2.211  26.147  0.00  0.00    -0.000 A 
ATOM      3  C   UNL A   1     -24.108   1.370  27.510  0.00  0.00    -0.022 A 
ATOM      4  C   UNL A   1     -21.487   1.815  26.964  0.00  0.00    -0.000 A 
ATOM      5  C   UNL A   1     -21.781   1.018  27.907  0.00  0.00    -0.005 A 
ATOM      6  C   UNL A   1     -23.091   0.763  28.377  0.00  0.00    -0.026 A 
ENDROOT
BRANCH   6   7
ATOM      7  C   UNL A   1     -23.375  -0.054  29.468  0.00  0.00    +0.029 C 
ATOM      8  C   UNL A   1     -23.288  -1.516  29.011  0.00  0.00    +0.005 C 
BRANCH   7   9
ATOM      9  C   UNL A   1     -23.626   0.147  30.604  0.00  0.00    +0.069 C 
ATOM     10  C   UNL A   1     -23.868   1.443  31.183  0.00  0.00    +0.009 C 
BRANCH   9  11
ATOM     11  C   UNL A   1     -23.625  -0.935  31.672  0.00  0.00    +0.207 C 
ATOM     12  O   UNL A   1     -22.775  -1.063  32.491  0.00  0.00    -0.288 OA
ENDBRANCH   9  11
ENDBRANCH   7   9
ENDBRANCH   6   7
BRANCH   3  13
ATOM     13  C   UNL A   1     -25.465   1.018  27.899  0.00  0.00    +0.052 C 
BRANCH  13  14
ATOM     14  C   UNL A   1     -26.161   0.015  27.211  0.00  0.00    -0.018 A 
ATOM     15  C   UNL A   1     -25.638  -0.648  26.209  0.00  0.00    -0.004 A 
ATOM     16  C   UNL A   1     -25.719  -0.498  24.968  0.00  0.00    -0.000 A 
ATOM     17  C   UNL A   1     -26.465   0.590  24.391  0.00  0.00    +0.007 A 
ATOM     18  C   UNL A   1     -27.531   1.011  25.134  0.00  0.00    +0.080 A 
ATOM     19  C   UNL A   1     -27.477   0.975  26.428  0.00  0.00    +0.003 A 
BRANCH  18  20
ATOM     20  C   UNL A   1     -28.513   1.917  24.534  0.00  0.00    +0.388 C 
ATOM     21  O   UNL A   1     -29.216   1.647  23.723  0.00  0.00    -0.241 OA
ATOM     22  O   UNL A   1     -28.216   3.292  24.778  0.00  0.00    -0.241 OA
ENDBRANCH  18  20
ENDBRANCH  13  14
ENDBRANCH   3  13
TORSDOF 6
ENDMDL
ENDMDL
