MODEL 1223
MODEL 1
REMARK VINA RESULT:    -7.417      0.000      0.000
REMARK INTER + INTRA:         -10.705
REMARK INTER:                  -9.585
REMARK INTRA:                  -1.120
REMARK UNBOUND:                -1.120
REMARK  Name = No_1223-gen_results/8p0m/2024-11-26-14-13-15/
REMARK  5 active torsions:
REMARK  status: ('A' for Active; 'I' for Inactive)
REMARK    1  A    between atoms: C_3  and  C_5
REMARK    2  A    between atoms: N_4  and  C_12
REMARK    3  A    between atoms: C_12  and  C_20
REMARK    4  A    between atoms: C_14  and  C_16
REMARK    5  A    between atoms: N_18  and  C_19
REMARK                            x       y       z     vdW  Elec       q    Type
REMARK                         _______ _______ _______ _____ _____    ______ ____
ROOT
ATOM      1  O   UNL A   1      -8.518   0.006  37.510  0.00  0.00    -0.275 OA
ATOM      2  C   UNL A   1      -9.399   0.248  36.817  0.00  0.00    +0.230 C 
ATOM      3  C   UNL A   1     -10.435   0.189  36.853  0.00  0.00    +0.099 C 
ATOM      4  N   UNL A   1      -8.852   0.490  35.438  0.00  0.00    -0.275 N 
ATOM      5  C   UNL A   1      -9.639   0.754  34.283  0.00  0.00    +0.094 C 
ATOM      6  C   UNL A   1     -10.331   1.807  34.448  0.00  0.00    +0.031 C 
ATOM      7  C   UNL A   1     -11.654   1.633  35.235  0.00  0.00    +0.081 C 
ATOM      8  C   UNL A   1     -11.687   0.846  36.142  0.00  0.00    +0.023 C 
ENDROOT
BRANCH   3   9
ATOM      9  C   UNL A   1     -11.108  -0.644  37.802  0.00  0.00    -0.014 A 
ATOM     10  C   UNL A   1     -11.392  -1.970  37.818  0.00  0.00    -0.004 A 
ATOM     11  C   UNL A   1     -12.149  -2.677  38.886  0.00  0.00    -0.001 A 
ATOM     12  C   UNL A   1     -12.392  -1.959  40.079  0.00  0.00    -0.004 A 
ATOM     13  C   UNL A   1     -12.044  -0.628  40.127  0.00  0.00    -0.022 A 
ATOM     14  C   UNL A   1     -11.421  -0.013  39.084  0.00  0.00    -0.008 A 
ATOM     15  C   UNL A   1     -12.302   0.088  41.343  0.00  0.00    +0.031 C 
ENDBRANCH   3   9
BRANCH   7  16
ATOM     16  C   UNL A   1     -12.813   2.433  34.879  0.00  0.00    +0.245 C 
ATOM     17  O   UNL A   1     -13.008   2.927  33.901  0.00  0.00    -0.273 OA
ATOM     18  N   UNL A   1     -13.729   2.572  35.931  0.00  0.00    -0.178 NA
BRANCH  18  19
ATOM     19  C   UNL A   1     -14.922   3.271  35.801  0.00  0.00    +0.084 C 
ATOM     20  C   UNL A   1     -15.483   3.586  36.918  0.00  0.00    -0.008 C 
ATOM     21  C   UNL A   1     -16.531   4.158  37.188  0.00  0.00    +0.032 C 
ENDBRANCH  18  19
ENDBRANCH   7  16
BRANCH   4  22
ATOM     22  C   UNL A   1      -7.355   0.564  35.222  0.00  0.00    +0.125 C 
BRANCH  22  23
ATOM     23  C   UNL A   1      -6.934  -0.468  34.481  0.00  0.00    +0.056 C 
ATOM     24  C   UNL A   1      -5.707  -1.186  34.955  0.00  0.00    +0.276 C 
ATOM     25  F   UNL A   1      -4.982  -0.515  35.710  0.00  0.00    -0.172 F 
ATOM     26  F   UNL A   1      -5.348  -2.337  34.662  0.00  0.00    -0.172 F 
ENDBRANCH  22  23
ENDBRANCH   4  22
TORSDOF 5
ENDMDL
ENDMDL
