REMARK  Name = No_1223-gen_results/8p0m/2024-11-26-14-13-15/
REMARK  5 active torsions:
REMARK  status: ('A' for Active; 'I' for Inactive)
REMARK    1  A    between atoms: C_3  and  C_5
REMARK    2  A    between atoms: N_4  and  C_12
REMARK    3  A    between atoms: C_12  and  C_20
REMARK    4  A    between atoms: C_14  and  C_16
REMARK    5  A    between atoms: N_18  and  C_19
REMARK                            x       y       z     vdW  Elec       q    Type
REMARK                         _______ _______ _______ _____ _____    ______ ____
ROOT
ATOM      1  O   UNL A   1     -28.123  -1.335  28.487  0.00  0.00    -0.275 OA
ATOM      2  C   UNL A   1     -28.521  -0.436  29.078  0.00  0.00    +0.230 C 
ATOM      3  C   UNL A   1     -28.589   0.592  28.946  0.00  0.00    +0.099 C 
ATOM      4  N   UNL A   1     -28.787  -0.887  30.487  0.00  0.00    -0.275 N 
ATOM      5  C   UNL A   1     -29.225  -0.044  31.544  0.00  0.00    +0.094 C 
ATOM      6  C   UNL A   1     -30.343   0.488  31.254  0.00  0.00    +0.031 C 
ATOM      7  C   UNL A   1     -30.282   1.748  30.356  0.00  0.00    +0.081 C 
ATOM      8  C   UNL A   1     -29.445   1.804  29.496  0.00  0.00    +0.023 C 
ENDROOT
BRANCH   3   9
ATOM      9  C   UNL A   1     -27.784   1.282  27.987  0.00  0.00    -0.014 A 
ATOM     10  C   UNL A   1     -27.294   2.546  27.941  0.00  0.00    -0.004 A 
ATOM     11  C   UNL A   1     -26.493   3.121  26.827  0.00  0.00    -0.001 A 
ATOM     12  C   UNL A   1     -26.014   2.217  25.852  0.00  0.00    -0.004 A 
ATOM     13  C   UNL A   1     -26.428   0.905  25.913  0.00  0.00    -0.022 A 
ATOM     14  C   UNL A   1     -27.228   0.453  26.917  0.00  0.00    -0.008 A 
ATOM     15  C   UNL A   1     -25.937   0.001  24.913  0.00  0.00    +0.031 C 
ENDBRANCH   3   9
BRANCH   7  16
ATOM     16  C   UNL A   1     -31.243   2.819  30.553  0.00  0.00    +0.245 C 
ATOM     17  O   UNL A   1     -32.063   2.850  31.305  0.00  0.00    -0.273 OA
ATOM     18  N   UNL A   1     -31.074   3.882  29.655  0.00  0.00    -0.178 NA
BRANCH  18  19
ATOM     19  C   UNL A   1     -31.865   5.024  29.685  0.00  0.00    +0.084 C 
ATOM     20  C   UNL A   1     -31.749   5.782  28.649  0.00  0.00    -0.008 C 
ATOM     21  C   UNL A   1     -32.251   6.858  28.348  0.00  0.00    +0.032 C 
ENDBRANCH  18  19
ENDBRANCH   7  16
BRANCH   4  22
ATOM     22  C   UNL A   1     -28.688  -2.356  30.840  0.00  0.00    +0.125 C 
BRANCH  22  23
ATOM     23  C   UNL A   1     -27.442  -2.805  30.644  0.00  0.00    +0.056 C 
ATOM     24  C   UNL A   1     -27.299  -4.205  30.129  0.00  0.00    +0.276 C 
ATOM     25  F   UNL A   1     -28.287  -4.930  30.340  0.00  0.00    -0.172 F 
ATOM     26  F   UNL A   1     -26.318  -4.698  29.551  0.00  0.00    -0.172 F 
ENDBRANCH  22  23
ENDBRANCH   4  22
TORSDOF 5
