MODEL 1224
MODEL 1
REMARK VINA RESULT:    -7.556      0.000      0.000
REMARK INTER + INTRA:         -10.849
REMARK INTER:                 -10.206
REMARK INTRA:                  -0.643
REMARK UNBOUND:                -0.643
REMARK  Name = No_1224-gen_results/8p0m/2024-11-26-14-13-15/
REMARK  6 active torsions:
REMARK  status: ('A' for Active; 'I' for Inactive)
REMARK    1  A    between atoms: N_4  and  C_6
REMARK    2  A    between atoms: C_5  and  C_13
REMARK    3  A    between atoms: C_6  and  N_17
REMARK    4  A    between atoms: N_17  and  C_18
REMARK    5  A    between atoms: C_18  and  C_20
REMARK    6  A    between atoms: N_22  and  C_23
REMARK                            x       y       z     vdW  Elec       q    Type
REMARK                         _______ _______ _______ _____ _____    ______ ____
ROOT
ATOM      1  C   UNL A   1     -23.450   1.016  29.959  0.00  0.00    +0.320 C 
ATOM      2  F   UNL A   1     -23.833   1.597  31.034  0.00  0.00    -0.194 F 
ENDROOT
BRANCH   1   6
ATOM      3  O   UNL A   1     -26.090   0.211  30.328  0.00  0.00    -0.270 OA
ATOM      4  C   UNL A   1     -25.375  -0.733  29.973  0.00  0.00    +0.252 C 
ATOM      5  C   UNL A   1     -25.353  -1.772  29.973  0.00  0.00    +0.056 A 
ATOM      6  N   UNL A   1     -23.875  -0.233  29.825  0.00  0.00    -0.235 N 
ATOM      7  C   UNL A   1     -26.594  -2.570  29.991  0.00  0.00    +0.084 A 
ATOM      8  C   UNL A   1     -24.343  -2.704  29.253  0.00  0.00    -0.016 A 
ATOM      9  C   UNL A   1     -24.458  -4.074  29.119  0.00  0.00    -0.004 A 
ATOM     10  C   UNL A   1     -25.663  -4.724  29.298  0.00  0.00    -0.000 A 
ATOM     11  C   UNL A   1     -26.738  -3.975  29.845  0.00  0.00    +0.007 A 
ATOM     12  C   UNL A   1     -22.835  -1.085  29.452  0.00  0.00    +0.102 C 
ATOM     13  C   UNL A   1     -23.007  -2.263  29.161  0.00  0.00    +0.048 C 
BRANCH   7  14
ATOM     14  C   UNL A   1     -27.770  -1.910  30.603  0.00  0.00    +0.388 C 
ATOM     15  O   UNL A   1     -27.872  -1.890  31.724  0.00  0.00    -0.241 OA
ATOM     16  O   UNL A   1     -28.702  -1.469  29.811  0.00  0.00    -0.241 OA
ENDBRANCH   7  14
ENDBRANCH   1   6
BRANCH   1  17
ATOM     17  N   UNL A   1     -24.072   1.866  28.819  0.00  0.00    -0.149 NA
BRANCH  17  18
ATOM     18  C   UNL A   1     -23.322   1.786  27.614  0.00  0.00    +0.211 C 
ATOM     19 BR   UNL A   1     -21.546   1.697  27.418  0.00  0.00    -0.052 Br
BRANCH  18  20
ATOM     20  C   UNL A   1     -24.160   1.842  26.412  0.00  0.00    +0.273 C 
ATOM     21  O   UNL A   1     -23.748   1.916  25.379  0.00  0.00    -0.271 OA
ATOM     22  N   UNL A   1     -25.565   1.706  26.666  0.00  0.00    -0.175 NA
BRANCH  22  23
ATOM     23  C   UNL A   1     -26.510   1.600  25.640  0.00  0.00    +0.101 A 
ATOM     24  C   UNL A   1     -27.082   2.618  25.367  0.00  0.00    +0.019 A 
ATOM     25  C   UNL A   1     -27.985   2.622  24.243  0.00  0.00    +0.002 A 
ATOM     26  C   UNL A   1     -28.221   1.382  23.581  0.00  0.00    +0.002 A 
ATOM     27  C   UNL A   1     -27.495   0.246  23.938  0.00  0.00    +0.031 A 
ATOM     28  C   UNL A   1     -26.529   0.304  25.014  0.00  0.00    +0.155 A 
ATOM     29  F   UNL A   1     -25.842  -0.713  25.367  0.00  0.00    -0.203 F 
ENDBRANCH  22  23
ENDBRANCH  18  20
ENDBRANCH  17  18
ENDBRANCH   1  17
TORSDOF 6
ENDMDL
ENDMDL
