REMARK  Name = No_1224-gen_results/8p0m/2024-11-26-14-13-15/
REMARK  6 active torsions:
REMARK  status: ('A' for Active; 'I' for Inactive)
REMARK    1  A    between atoms: N_4  and  C_6
REMARK    2  A    between atoms: C_5  and  C_13
REMARK    3  A    between atoms: C_6  and  N_17
REMARK    4  A    between atoms: N_17  and  C_18
REMARK    5  A    between atoms: C_18  and  C_20
REMARK    6  A    between atoms: N_22  and  C_23
REMARK                            x       y       z     vdW  Elec       q    Type
REMARK                         _______ _______ _______ _____ _____    ______ ____
ROOT
ATOM      1  C   UNL A   1     -26.692  -3.066  30.134  0.00  0.00    +0.320 C 
ATOM      2  F   UNL A   1     -26.102  -4.045  29.557  0.00  0.00    -0.194 F 
ENDROOT
BRANCH   1   6
ATOM      3  O   UNL A   1     -28.123  -1.335  28.487  0.00  0.00    -0.270 OA
ATOM      4  C   UNL A   1     -27.064  -0.824  28.869  0.00  0.00    +0.252 C 
ATOM      5  C   UNL A   1     -26.402  -0.062  28.622  0.00  0.00    +0.056 A 
ATOM      6  N   UNL A   1     -26.265  -1.867  29.761  0.00  0.00    -0.235 N 
ATOM      7  C   UNL A   1     -26.844   1.134  27.880  0.00  0.00    +0.084 A 
ATOM      8  C   UNL A   1     -25.198   0.460  29.450  0.00  0.00    -0.016 A 
ATOM      9  C   UNL A   1     -24.461   1.597  29.180  0.00  0.00    -0.004 A 
ATOM     10  C   UNL A   1     -24.936   2.592  28.349  0.00  0.00    -0.000 A 
ATOM     11  C   UNL A   1     -26.110   2.317  27.599  0.00  0.00    +0.007 A 
ATOM     12  C   UNL A   1     -25.020  -1.576  30.319  0.00  0.00    +0.102 C 
ATOM     13  C   UNL A   1     -24.476  -0.484  30.209  0.00  0.00    +0.048 C 
BRANCH   7  14
ATOM     14  C   UNL A   1     -28.027   0.945  27.008  0.00  0.00    +0.388 C 
ATOM     15  O   UNL A   1     -29.050   1.199  27.403  0.00  0.00    -0.241 OA
ATOM     16  O   UNL A   1     -27.846   0.388  25.848  0.00  0.00    -0.241 OA
ENDBRANCH   7  14
ENDBRANCH   1   6
BRANCH   1  17
ATOM     17  N   UNL A   1     -28.178  -3.207  29.710  0.00  0.00    -0.149 NA
BRANCH  17  18
ATOM     18  C   UNL A   1     -28.859  -4.210  30.451  0.00  0.00    +0.211 C 
ATOM     19 BR   UNL A   1     -28.233  -5.212  31.795  0.00  0.00    -0.052 Br
BRANCH  18  20
ATOM     20  C   UNL A   1     -30.225  -4.448  29.974  0.00  0.00    +0.273 C 
ATOM     21  O   UNL A   1     -30.945  -3.630  29.740  0.00  0.00    -0.271 OA
ATOM     22  N   UNL A   1     -30.538  -5.829  29.747  0.00  0.00    -0.175 NA
BRANCH  22  23
ATOM     23  C   UNL A   1     -31.741  -6.244  29.166  0.00  0.00    +0.101 A 
ATOM     24  C   UNL A   1     -32.633  -6.457  29.939  0.00  0.00    +0.019 A 
ATOM     25  C   UNL A   1     -33.939  -6.774  29.415  0.00  0.00    +0.002 A 
ATOM     26  C   UNL A   1     -34.068  -6.913  28.003  0.00  0.00    +0.002 A 
ATOM     27  C   UNL A   1     -32.991  -6.619  27.167  0.00  0.00    +0.031 A 
ATOM     28  C   UNL A   1     -31.719  -6.215  27.727  0.00  0.00    +0.155 A 
ATOM     29  F   UNL A   1     -30.712  -5.934  26.995  0.00  0.00    -0.203 F 
ENDBRANCH  22  23
ENDBRANCH  18  20
ENDBRANCH  17  18
ENDBRANCH   1  17
TORSDOF 6
