MODEL 1225
MODEL 1
REMARK VINA RESULT:    -4.312      0.000      0.000
REMARK INTER + INTRA:          -4.312
REMARK INTER:                  -4.312
REMARK INTRA:                   0.000
REMARK UNBOUND:                 0.000
REMARK  Name = No_1225-gen_results/8p0m/2024-11-26-14-13-15/
REMARK  0 active torsions:
REMARK  status: ('A' for Active; 'I' for Inactive)
REMARK                            x       y       z     vdW  Elec       q    Type
REMARK                         _______ _______ _______ _____ _____    ______ ____
ROOT
ATOM      1  C   UNL A   1     -26.197  -3.588  29.765  0.00  0.00    +0.000 A 
ATOM      2  C   UNL A   1     -26.104  -4.786  29.627  0.00  0.00    +0.000 A 
ATOM      3  C   UNL A   1     -25.033  -5.403  29.011  0.00  0.00    +0.000 A 
ATOM      4  C   UNL A   1     -23.965  -4.582  28.550  0.00  0.00    +0.000 A 
ATOM      5  C   UNL A   1     -24.037  -3.272  28.880  0.00  0.00    +0.000 A 
ATOM      6  C   UNL A   1     -25.084  -2.774  29.509  0.00  0.00    +0.000 A 
ENDROOT
TORSDOF 0
ENDMDL
ENDMDL
