MODEL 1226
MODEL 1
REMARK VINA RESULT:    -7.088      0.000      0.000
REMARK INTER + INTRA:          -7.608
REMARK INTER:                  -7.502
REMARK INTRA:                  -0.105
REMARK UNBOUND:                -0.105
REMARK  Name = No_1226-gen_results/8p0m/2024-11-26-14-13-15/
REMARK  1 active torsions:
REMARK  status: ('A' for Active; 'I' for Inactive)
REMARK    1  A    between atoms: C_15  and  C_18
REMARK                            x       y       z     vdW  Elec       q    Type
REMARK                         _______ _______ _______ _____ _____    ______ ____
ROOT
ATOM      1  C   UNL A   1     -28.622  -4.245  30.839  0.00  0.00    +0.001 A 
ATOM      2  C   UNL A   1     -27.687  -3.526  30.569  0.00  0.00    +0.015 A 
ATOM      3  C   UNL A   1     -27.670  -2.192  30.962  0.00  0.00    +0.070 A 
ATOM      4  C   UNL A   1     -28.787  -1.612  31.662  0.00  0.00    +0.017 A 
ATOM      5  C   UNL A   1     -29.835  -2.507  31.912  0.00  0.00    +0.001 A 
ATOM      6  C   UNL A   1     -29.809  -3.755  31.504  0.00  0.00    +0.000 A 
ATOM      7  C   UNL A   1     -26.466  -3.948  29.831  0.00  0.00    +0.003 A 
ATOM      8  C   UNL A   1     -26.153  -4.859  29.493  0.00  0.00    +0.000 A 
ATOM      9  C   UNL A   1     -24.860  -5.270  28.829  0.00  0.00    +0.000 A 
ATOM     10  C   UNL A   1     -23.889  -4.298  28.688  0.00  0.00    +0.000 A 
ATOM     11  C   UNL A   1     -24.145  -3.016  29.179  0.00  0.00    +0.001 A 
ATOM     12  C   UNL A   1     -25.363  -2.750  29.733  0.00  0.00    +0.015 A 
ATOM     13  C   UNL A   1     -23.153  -1.964  28.999  0.00  0.00    +0.000 A 
ATOM     14  C   UNL A   1     -23.387  -0.792  29.870  0.00  0.00    +0.005 A 
ATOM     15  C   UNL A   1     -24.709  -0.606  30.357  0.00  0.00    +0.087 A 
ATOM     16  C   UNL A   1     -25.628  -1.537  30.363  0.00  0.00    +0.074 A 
ATOM     17  N   UNL A   1     -26.691  -1.291  30.848  0.00  0.00    -0.212 NA
ENDROOT
BRANCH  15  18
ATOM     18  C   UNL A   1     -24.943   0.727  30.997  0.00  0.00    +0.420 C 
ATOM     19  F   UNL A   1     -25.382   0.914  32.073  0.00  0.00    -0.166 F 
ATOM     20  F   UNL A   1     -23.663   1.445  30.970  0.00  0.00    -0.166 F 
ATOM     21  F   UNL A   1     -25.718   1.445  30.109  0.00  0.00    -0.166 F 
ENDBRANCH  15  18
TORSDOF 1
ENDMDL
ENDMDL
