REMARK  Name = No_1227-gen_results/8p0m/2024-11-26-14-13-15/
REMARK  5 active torsions:
REMARK  status: ('A' for Active; 'I' for Inactive)
REMARK    1  A    between atoms: C_2  and  C_7
REMARK    2  A    between atoms: C_7  and  C_9
REMARK    3  A    between atoms: C_9  and  N_10
REMARK    4  A    between atoms: C_11  and  C_12
REMARK    5  A    between atoms: C_12  and  C_14
REMARK                            x       y       z     vdW  Elec       q    Type
REMARK                         _______ _______ _______ _____ _____    ______ ____
ROOT
ATOM      1  C   UNL A   1     -30.585  -0.398  28.487  0.00  0.00    +0.267 C 
ATOM      2  O   UNL A   1     -31.340  -1.145  27.854  0.00  0.00    -0.271 OA
ENDROOT
BRANCH   1   3
ATOM      3  C   UNL A   1     -30.074  -0.836  29.861  0.00  0.00    +0.192 C 
ATOM      4  N   UNL A   1     -30.653  -1.794  30.268  0.00  0.00    -0.118 NA
BRANCH   3   6
ATOM      5  C   UNL A   1     -28.016  -0.814  28.878  0.00  0.00    -0.002 A 
ATOM      6  C   UNL A   1     -28.469  -0.785  29.829  0.00  0.00    +0.004 A 
ATOM      7  C   UNL A   1     -26.504  -0.778  28.877  0.00  0.00    -0.000 A 
ATOM      8  C   UNL A   1     -25.810  -0.853  30.103  0.00  0.00    -0.000 A 
ATOM      9  C   UNL A   1     -27.991  -0.892  31.226  0.00  0.00    -0.002 A 
ATOM     10  C   UNL A   1     -26.604  -0.868  31.265  0.00  0.00    -0.000 A 
ENDBRANCH   3   6
ENDBRANCH   1   3
BRANCH   1  11
ATOM     11  N   UNL A   1     -30.175   0.635  27.923  0.00  0.00    -0.181 NA
ATOM     12  C   UNL A   1     -30.731   1.427  27.186  0.00  0.00    +0.067 C 
BRANCH  12  13
ATOM     13  C   UNL A   1     -32.046   1.344  27.035  0.00  0.00    +0.070 C 
BRANCH  13  14
ATOM     14  C   UNL A   1     -32.865   1.151  27.703  0.00  0.00    -0.016 A 
ATOM     15  C   UNL A   1     -32.659   1.289  29.150  0.00  0.00    -0.004 A 
ATOM     16  C   UNL A   1     -33.701   0.879  30.092  0.00  0.00    -0.000 A 
ATOM     17  C   UNL A   1     -34.850   0.744  29.625  0.00  0.00    -0.000 A 
ATOM     18  C   UNL A   1     -35.188   0.751  28.272  0.00  0.00    -0.000 A 
ATOM     19  C   UNL A   1     -34.236   0.939  27.374  0.00  0.00    -0.004 A 
ENDBRANCH  13  14
ENDBRANCH  12  13
ENDBRANCH   1  11
TORSDOF 5
