MODEL 1227
MODEL 1
REMARK VINA RESULT:    -5.185      0.000      0.000
REMARK INTER + INTRA:          -8.825
REMARK INTER:                  -6.701
REMARK INTRA:                  -2.124
REMARK UNBOUND:                -2.124
REMARK  Name = No_1227-gen_results/8p0m/2024-11-26-14-13-15/
REMARK  5 active torsions:
REMARK  status: ('A' for Active; 'I' for Inactive)
REMARK    1  A    between atoms: C_2  and  C_7
REMARK    2  A    between atoms: C_7  and  C_9
REMARK    3  A    between atoms: C_9  and  N_10
REMARK    4  A    between atoms: C_11  and  C_12
REMARK    5  A    between atoms: C_12  and  C_14
REMARK                            x       y       z     vdW  Elec       q    Type
REMARK                         _______ _______ _______ _____ _____    ______ ____
ROOT
ATOM      1  C   UNL A   1      -6.144  -0.983   9.771  0.00  0.00    +0.267 C 
ATOM      2  O   UNL A   1      -5.130  -1.184  10.449  0.00  0.00    -0.271 OA
ENDROOT
BRANCH   1   3
ATOM      3  C   UNL A   1      -6.019  -0.250   8.434  0.00  0.00    +0.192 C 
ATOM      4  N   UNL A   1      -6.113  -0.993   7.507  0.00  0.00    -0.118 NA
BRANCH   3   6
ATOM      5  C   UNL A   1      -7.779   1.112   7.934  0.00  0.00    -0.002 A 
ATOM      6  C   UNL A   1      -6.904   1.088   8.521  0.00  0.00    +0.004 A 
ATOM      7  C   UNL A   1      -8.586   2.388   8.024  0.00  0.00    -0.000 A 
ATOM      8  C   UNL A   1      -8.068   3.485   8.744  0.00  0.00    -0.000 A 
ATOM      9  C   UNL A   1      -6.139   2.078   9.312  0.00  0.00    -0.002 A 
ATOM     10  C   UNL A   1      -6.848   3.267   9.411  0.00  0.00    -0.000 A 
ENDBRANCH   3   6
ENDBRANCH   1   3
BRANCH   1  11
ATOM     11  N   UNL A   1      -7.215  -1.493  10.153  0.00  0.00    -0.181 NA
ATOM     12  C   UNL A   1      -7.943  -1.234  11.093  0.00  0.00    +0.067 C 
BRANCH  12  13
ATOM     13  C   UNL A   1      -7.719  -0.127  11.787  0.00  0.00    +0.070 C 
BRANCH  13  14
ATOM     14  C   UNL A   1      -8.240   0.806  11.895  0.00  0.00    -0.016 A 
ATOM     15  C   UNL A   1      -9.583   0.950  11.321  0.00  0.00    -0.004 A 
ATOM     16  C   UNL A   1     -10.252   2.251  11.308  0.00  0.00    -0.000 A 
ATOM     17  C   UNL A   1      -9.799   3.115  12.086  0.00  0.00    -0.000 A 
ATOM     18  C   UNL A   1      -8.609   3.023  12.806  0.00  0.00    -0.000 A 
ATOM     19  C   UNL A   1      -7.879   1.926  12.701  0.00  0.00    -0.004 A 
ENDBRANCH  13  14
ENDBRANCH  12  13
ENDBRANCH   1  11
TORSDOF 5
ENDMDL
ENDMDL
