REMARK  Name = No_1228-gen_results/8p0m/2024-11-26-14-13-15/
REMARK  1 active torsions:
REMARK  status: ('A' for Active; 'I' for Inactive)
REMARK    1  A    between atoms: C_7  and  C_8
REMARK                            x       y       z     vdW  Elec       q    Type
REMARK                         _______ _______ _______ _____ _____    ______ ____
ROOT
ATOM      1  C   UNL A   1     -28.016  -0.814  28.878  0.00  0.00    -0.003 A 
ATOM      2  C   UNL A   1     -28.469  -0.785  29.829  0.00  0.00    -0.000 A 
ATOM      3  C   UNL A   1     -28.182   0.428  28.113  0.00  0.00    -0.004 A 
ATOM      4  C   UNL A   1     -28.984   1.415  28.515  0.00  0.00    +0.062 A 
ATOM      5  C   UNL A   1     -29.380   0.138  30.461  0.00  0.00    +0.001 A 
ATOM      6  C   UNL A   1     -29.541   1.274  29.724  0.00  0.00    +0.016 A 
ATOM      7  C   UNL A   1     -27.445   0.487  26.773  0.00  0.00    +0.041 C 
ATOM      8  C   UNL A   1     -27.937  -0.518  25.758  0.00  0.00    +0.008 C 
ATOM      9  C   UNL A   1     -27.905   1.897  26.210  0.00  0.00    +0.029 C 
ATOM     10  N   UNL A   1     -29.066   2.501  27.756  0.00  0.00    -0.238 NA
ATOM     11  C   UNL A   1     -28.567   2.795  26.615  0.00  0.00    +0.113 C 
ATOM     12  C   UNL A   1     -28.652   0.092  24.597  0.00  0.00    +0.001 C 
ATOM     13  C   UNL A   1     -27.858   1.728  24.632  0.00  0.00    +0.002 C 
ENDROOT
BRANCH   7  14
ATOM     14  C   UNL A   1     -26.001   0.397  26.791  0.00  0.00    -0.019 A 
ATOM     15  C   UNL A   1     -25.246   1.086  25.914  0.00  0.00    -0.004 A 
ATOM     16  C   UNL A   1     -23.850   1.147  26.009  0.00  0.00    -0.005 A 
ATOM     17  C   UNL A   1     -23.372   1.417  27.289  0.00  0.00    -0.022 A 
ATOM     18  C   UNL A   1     -24.107   0.721  28.345  0.00  0.00    -0.005 A 
ATOM     19  C   UNL A   1     -25.380   0.345  28.162  0.00  0.00    -0.004 A 
ATOM     20  C   UNL A   1     -21.929   1.644  27.480  0.00  0.00    +0.031 C 
ENDBRANCH   7  14
TORSDOF 1
