MODEL 1228
MODEL 1
REMARK VINA RESULT:    -6.976      0.000      0.000
REMARK INTER + INTRA:          -8.176
REMARK INTER:                  -7.384
REMARK INTRA:                  -0.792
REMARK UNBOUND:                -0.792
REMARK  Name = No_1228-gen_results/8p0m/2024-11-26-14-13-15/
REMARK  1 active torsions:
REMARK  status: ('A' for Active; 'I' for Inactive)
REMARK    1  A    between atoms: C_7  and  C_8
REMARK                            x       y       z     vdW  Elec       q    Type
REMARK                         _______ _______ _______ _____ _____    ______ ____
ROOT
ATOM      1  C   UNL A   1     -26.409  -3.468  30.044  0.00  0.00    -0.003 A 
ATOM      2  C   UNL A   1     -26.374  -4.451  29.668  0.00  0.00    -0.000 A 
ATOM      3  C   UNL A   1     -25.212  -2.678  29.727  0.00  0.00    -0.004 A 
ATOM      4  C   UNL A   1     -24.122  -3.217  29.181  0.00  0.00    +0.062 A 
ATOM      5  C   UNL A   1     -25.324  -5.247  29.079  0.00  0.00    +0.001 A 
ATOM      6  C   UNL A   1     -24.213  -4.502  28.815  0.00  0.00    +0.016 A 
ATOM      7  C   UNL A   1     -25.257  -1.206  30.145  0.00  0.00    +0.041 C 
ATOM      8  C   UNL A   1     -25.327  -0.995  31.640  0.00  0.00    +0.008 C 
ATOM      9  C   UNL A   1     -23.812  -0.704  29.727  0.00  0.00    +0.029 C 
ATOM     10  N   UNL A   1     -23.091  -2.421  28.928  0.00  0.00    -0.238 NA
ATOM     11  C   UNL A   1     -22.876  -1.184  29.177  0.00  0.00    +0.113 C 
ATOM     12  C   UNL A   1     -24.088  -0.401  32.227  0.00  0.00    +0.001 C 
ATOM     13  C   UNL A   1     -23.490   0.470  30.746  0.00  0.00    +0.002 C 
ENDROOT
BRANCH   7  14
ATOM     14  C   UNL A   1     -26.275  -0.366  29.552  0.00  0.00    -0.019 A 
ATOM     15  C   UNL A   1     -26.828   0.653  30.238  0.00  0.00    -0.004 A 
ATOM     16  C   UNL A   1     -27.692   1.580  29.642  0.00  0.00    -0.005 A 
ATOM     17  C   UNL A   1     -27.245   2.079  28.421  0.00  0.00    -0.022 A 
ATOM     18  C   UNL A   1     -26.623   1.066  27.568  0.00  0.00    -0.005 A 
ATOM     19  C   UNL A   1     -26.060  -0.027  28.101  0.00  0.00    -0.004 A 
ATOM     20  C   UNL A   1     -28.002   3.164  27.772  0.00  0.00    +0.031 C 
ENDBRANCH   7  14
TORSDOF 1
ENDMDL
ENDMDL
