MODEL 122
MODEL 1
REMARK VINA RESULT:    -7.338      0.000      0.000
REMARK INTER + INTRA:          -7.895
REMARK INTER:                  -7.767
REMARK INTRA:                  -0.128
REMARK UNBOUND:                -0.128
REMARK  Name = No_122-gen_results/8p0m/2024-11-26-14-13-15/
REMARK  1 active torsions:
REMARK  status: ('A' for Active; 'I' for Inactive)
REMARK    1  A    between atoms: C_11  and  C_17
REMARK                            x       y       z     vdW  Elec       q    Type
REMARK                         _______ _______ _______ _____ _____    ______ ____
ROOT
ATOM      1  C   UNL A   1     -10.733  -1.795  37.654  0.00  0.00    +0.002 A 
ATOM      2  C   UNL A   1     -10.511  -0.617  37.499  0.00  0.00    +0.024 A 
ATOM      3  C   UNL A   1     -11.120   0.341  38.303  0.00  0.00    -0.016 A 
ATOM      4  C   UNL A   1     -12.070  -0.039  39.317  0.00  0.00    -0.004 A 
ATOM      5  C   UNL A   1     -12.286  -1.420  39.412  0.00  0.00    -0.000 A 
ATOM      6  C   UNL A   1     -11.698  -2.283  38.615  0.00  0.00    +0.000 A 
ATOM      7  C   UNL A   1      -9.583  -0.044  36.487  0.00  0.00    +0.136 C 
ATOM      8  C   UNL A   1      -9.778   0.810  35.637  0.00  0.00    +0.005 C 
ATOM      9  C   UNL A   1     -11.178   1.419  35.576  0.00  0.00    -0.005 A 
ATOM     10  C   UNL A   1     -11.829   1.656  34.551  0.00  0.00    +0.006 A 
ATOM     11  C   UNL A   1     -13.195   2.200  34.582  0.00  0.00    +0.080 A 
ATOM     12  C   UNL A   1     -13.719   2.606  35.797  0.00  0.00    +0.006 A 
ATOM     13  C   UNL A   1     -12.979   2.444  36.927  0.00  0.00    -0.004 A 
ATOM     14  C   UNL A   1     -11.724   1.906  36.860  0.00  0.00    -0.018 A 
ATOM     15  C   UNL A   1     -11.289   1.391  38.115  0.00  0.00    +0.053 C 
ATOM     16  F   UNL A   1      -8.885  -1.149  35.989  0.00  0.00    -0.204 F 
ATOM     17  C   UNL A   1      -8.933   1.293  34.576  0.00  0.00    +0.033 C 
ENDROOT
BRANCH  11  18
ATOM     18  C   UNL A   1     -13.963   2.526  33.301  0.00  0.00    +0.388 C 
ATOM     19  O   UNL A   1     -14.635   3.315  33.280  0.00  0.00    -0.241 OA
ATOM     20  O   UNL A   1     -13.410   1.841  32.216  0.00  0.00    -0.241 OA
ENDBRANCH  11  18
TORSDOF 1
ENDMDL
ENDMDL
