REMARK  Name = No_123-gen_results/8p0m/2024-11-26-14-13-15/
REMARK  3 active torsions:
REMARK  status: ('A' for Active; 'I' for Inactive)
REMARK    1  A    between atoms: C_7  and  C_15
REMARK    2  A    between atoms: C_15  and  C_16
REMARK    3  A    between atoms: C_16  and  C_18
REMARK                            x       y       z     vdW  Elec       q    Type
REMARK                         _______ _______ _______ _____ _____    ______ ____
ROOT
ATOM      1  C   UNL A   1     -28.016  -0.814  28.878  0.00  0.00    -0.000 A 
ATOM      2  C   UNL A   1     -27.064  -0.119  28.608  0.00  0.00    -0.004 A 
ATOM      3  C   UNL A   1     -25.792  -0.430  29.076  0.00  0.00    -0.000 A 
ATOM      4  C   UNL A   1     -25.576  -1.565  29.936  0.00  0.00    -0.000 A 
ATOM      5  C   UNL A   1     -26.735  -2.300  30.217  0.00  0.00    -0.000 A 
ATOM      6  C   UNL A   1     -27.918  -1.954  29.763  0.00  0.00    -0.000 A 
ATOM      7  C   UNL A   1     -27.106   1.102  27.759  0.00  0.00    -0.026 A 
ATOM      8  C   UNL A   1     -26.122   1.482  27.023  0.00  0.00    -0.026 A 
ATOM      9  C   UNL A   1     -24.714   1.130  27.489  0.00  0.00    -0.004 A 
ATOM     10  C   UNL A   1     -24.572   0.097  28.407  0.00  0.00    -0.000 A 
ATOM     11  C   UNL A   1     -23.548   1.768  26.901  0.00  0.00    -0.000 A 
ATOM     12  C   UNL A   1     -22.396   1.912  27.720  0.00  0.00    -0.000 A 
ATOM     13  C   UNL A   1     -22.151   0.923  28.718  0.00  0.00    -0.000 A 
ATOM     14  C   UNL A   1     -23.289   0.029  29.148  0.00  0.00    -0.000 A 
ATOM     15  C   UNL A   1     -26.253   2.044  25.689  0.00  0.00    +0.031 C 
ENDROOT
BRANCH   7  16
ATOM     16  C   UNL A   1     -27.670   2.199  28.616  0.00  0.00    +0.031 C 
BRANCH  16  17
ATOM     17  C   UNL A   1     -29.061   2.463  28.086  0.00  0.00    +0.031 C 
BRANCH  17  18
ATOM     18  C   UNL A   1     -29.321   2.169  26.989  0.00  0.00    -0.022 A 
ATOM     19  C   UNL A   1     -30.678   2.330  26.528  0.00  0.00    -0.004 A 
ATOM     20  C   UNL A   1     -31.046   1.865  25.238  0.00  0.00    -0.001 A 
ATOM     21  C   UNL A   1     -30.091   1.240  24.401  0.00  0.00    -0.004 A 
ATOM     22  C   UNL A   1     -28.872   0.950  24.892  0.00  0.00    -0.022 A 
ATOM     23  C   UNL A   1     -27.912   0.217  24.147  0.00  0.00    +0.031 C 
ATOM     24  C   UNL A   1     -28.503   1.422  26.234  0.00  0.00    -0.009 A 
ENDBRANCH  17  18
ENDBRANCH  16  17
ENDBRANCH   7  16
TORSDOF 3
