MODEL 1230
MODEL 1
REMARK VINA RESULT:    -6.535      0.000      0.000
REMARK INTER + INTRA:         -12.513
REMARK INTER:                 -10.356
REMARK INTRA:                  -2.158
REMARK UNBOUND:                -2.158
REMARK  Name = No_1230-gen_results/8p0m/2024-11-26-14-13-15/
REMARK  10 active torsions:
REMARK  status: ('A' for Active; 'I' for Inactive)
REMARK    1  A    between atoms: C_6  and  O_12
REMARK    2  A    between atoms: O_12  and  C_13
REMARK    3  A    between atoms: C_13  and  C_14
REMARK    4  A    between atoms: C_14  and  O_15
REMARK    5  A    between atoms: C_14  and  C_16
REMARK    6  A    between atoms: O_15  and  C_34
REMARK    7  A    between atoms: C_21  and  N_22
REMARK    8  A    between atoms: C_26  and  C_28
REMARK    9  A    between atoms: C_29  and  C_30
REMARK   10  A    between atoms: C_31  and  C_32
REMARK                            x       y       z     vdW  Elec       q    Type
REMARK                         _______ _______ _______ _____ _____    ______ ____
ROOT
ATOM      1  C   UNL A   1     -29.888  -8.563   8.956  0.00  0.00    +0.163 C 
ATOM      2  C   UNL A   1     -29.892  -8.237   7.613  0.00  0.00    +0.289 C 
ATOM      3  N   UNL A   1     -28.526  -8.132   9.431  0.00  0.00    -0.207 NA
ATOM      4  C   UNL A   1     -27.557  -9.022   9.209  0.00  0.00    +0.140 C 
ATOM      5  O   UNL A   1     -28.783  -8.797   6.863  0.00  0.00    -0.309 OA
ATOM      6  C   UNL A   1     -27.646  -8.882   7.736  0.00  0.00    +0.212 C 
ATOM      7  O   UNL A   1     -31.084  -8.674   6.834  0.00  0.00    -0.188 OA
ENDROOT
BRANCH   6   8
ATOM      8  N   UNL A   1     -26.876 -10.100   6.995  0.00  0.00    -0.283 N 
ATOM      9  C   UNL A   1     -26.150  -9.950   5.979  0.00  0.00    +0.059 C 
ATOM     10  C   UNL A   1     -25.431 -11.100   5.548  0.00  0.00    -0.005 C 
ATOM     11  C   UNL A   1     -27.031 -11.419   7.290  0.00  0.00    +0.102 C 
ATOM     12  C   UNL A   1     -26.062 -12.101   6.440  0.00  0.00    +0.065 C 
BRANCH  12  13
ATOM     13  C   UNL A   1     -25.740 -13.461   6.462  0.00  0.00    -0.020 C 
ATOM     14  C   UNL A   1     -26.299 -14.303   6.797  0.00  0.00    -0.004 C 
BRANCH  14  15
ATOM     15  C   UNL A   1     -26.767 -15.169   7.054  0.00  0.00    -0.000 C 
ATOM     16  C   UNL A   1     -26.875 -16.212   7.921  0.00  0.00    -0.000 C 
BRANCH  16  17
ATOM     17  C   UNL A   1     -26.967 -17.430   8.486  0.00  0.00    -0.000 C 
ATOM     18  C   UNL A   1     -26.736 -17.972   9.589  0.00  0.00    -0.000 C 
ENDBRANCH  16  17
ENDBRANCH  14  15
ENDBRANCH  12  13
ENDBRANCH   6   8
BRANCH   1  19
ATOM     19  C   UNL A   1     -30.994  -7.856   9.828  0.00  0.00    +0.180 C 
BRANCH  19  20
ATOM     20  C   UNL A   1     -31.673  -8.745  10.563  0.00  0.00    +0.236 C 
BRANCH  20  21
ATOM     21  O   UNL A   1     -31.787  -9.928   9.927  0.00  0.00    -0.473 OA
BRANCH  21  27
ATOM     22  C   UNL A   1     -30.971 -11.089  11.928  0.00  0.00    +0.037 A 
ATOM     23  C   UNL A   1     -30.636 -12.112  12.480  0.00  0.00    +0.005 A 
ATOM     24  C   UNL A   1     -30.411 -13.278  11.756  0.00  0.00    +0.028 A 
ATOM     25  C   UNL A   1     -30.007 -14.599  12.317  0.00  0.00    +0.140 A 
ATOM     26  C   UNL A   1     -29.797 -15.800  11.554  0.00  0.00    +0.030 A 
ATOM     27  C   UNL A   1     -31.330 -11.104  10.501  0.00  0.00    +0.139 A 
ATOM     28  C   UNL A   1     -31.076 -12.172   9.693  0.00  0.00    +0.037 A 
ATOM     29  C   UNL A   1     -30.590 -13.337  10.309  0.00  0.00    +0.005 A 
ATOM     30  C   UNL A   1     -29.729 -15.581  10.154  0.00  0.00    +0.002 A 
ATOM     31  C   UNL A   1     -30.248 -14.476   9.544  0.00  0.00    +0.000 A 
ATOM     32  F   UNL A   1     -29.835 -14.729  13.617  0.00  0.00    -0.204 F 
ENDBRANCH  21  27
ENDBRANCH  20  21
ENDBRANCH  19  20
BRANCH  19  33
ATOM     33  O   UNL A   1     -30.536  -6.961  10.380  0.00  0.00    -0.351 OA
BRANCH  33  34
ATOM     34  C   UNL A   1     -31.117  -5.645  10.089  0.00  0.00    +0.142 C 
ATOM     35  C   UNL A   1     -31.855  -5.230  11.091  0.00  0.00    +0.035 C 
ENDBRANCH  33  34
ENDBRANCH  19  33
ENDBRANCH   1  19
TORSDOF 10
ENDMDL
ENDMDL
