MODEL 1231
MODEL 1
REMARK VINA RESULT:    -6.281      0.000      0.000
REMARK INTER + INTRA:         -10.445
REMARK INTER:                  -8.117
REMARK INTRA:                  -2.328
REMARK UNBOUND:                -2.328
REMARK  Name = No_1231-gen_results/8p0m/2024-11-26-14-13-15/
REMARK  5 active torsions:
REMARK  status: ('A' for Active; 'I' for Inactive)
REMARK    1  A    between atoms: C_3  and  C_7
REMARK    2  A    between atoms: C_7  and  C_8
REMARK    3  A    between atoms: C_7  and  C_17
REMARK    4  A    between atoms: C_8  and  C_9
REMARK    5  A    between atoms: C_9  and  C_10
REMARK                            x       y       z     vdW  Elec       q    Type
REMARK                         _______ _______ _______ _____ _____    ______ ____
ROOT
ATOM      1  C   UNL A   1     -23.074  -1.129  29.277  0.00  0.00    +0.044 C 
ENDROOT
BRANCH   1   4
ATOM      2  C   UNL A   1     -24.189   0.319  27.510  0.00  0.00    -0.004 A 
ATOM      3  C   UNL A   1     -24.115   1.189  26.921  0.00  0.00    -0.000 A 
ATOM      4  C   UNL A   1     -22.993   0.057  28.319  0.00  0.00    -0.018 A 
ATOM      5  C   UNL A   1     -21.864   0.752  28.174  0.00  0.00    -0.004 A 
ATOM      6  C   UNL A   1     -23.020   2.069  26.592  0.00  0.00    -0.000 A 
ATOM      7  C   UNL A   1     -21.910   1.794  27.336  0.00  0.00    -0.000 A 
ENDBRANCH   1   4
BRANCH   1   8
ATOM      8  C   UNL A   1     -23.599  -2.337  28.839  0.00  0.00    -0.027 C 
ATOM      9  C   UNL A   1     -24.206  -3.159  29.540  0.00  0.00    -0.030 C 
ATOM     10  C   UNL A   1     -24.829  -4.379  28.990  0.00  0.00    +0.030 C 
ENDBRANCH   1   8
BRANCH   1  11
ATOM     11  C   UNL A   1     -22.677  -0.930  30.644  0.00  0.00    +0.013 C 
BRANCH  11  12
ATOM     12  C   UNL A   1     -23.596  -0.515  31.608  0.00  0.00    +0.023 C 
ATOM     13  C   UNL A   1     -23.614  -1.155  32.921  0.00  0.00    +0.005 C 
BRANCH  12  14
ATOM     14  C   UNL A   1     -24.600   0.415  31.270  0.00  0.00    -0.022 A 
ATOM     15  C   UNL A   1     -25.839   0.029  30.922  0.00  0.00    -0.004 A 
ATOM     16  C   UNL A   1     -26.741   0.972  30.332  0.00  0.00    -0.000 A 
ATOM     17  C   UNL A   1     -26.478   2.319  30.428  0.00  0.00    -0.000 A 
ATOM     18  C   UNL A   1     -25.197   2.757  30.822  0.00  0.00    -0.000 A 
ATOM     19  C   UNL A   1     -24.244   1.768  31.197  0.00  0.00    -0.004 A 
ENDBRANCH  12  14
ENDBRANCH  11  12
ENDBRANCH   1  11
TORSDOF 5
ENDMDL
ENDMDL
