MODEL 1232
MODEL 1
REMARK VINA RESULT:    -6.642      0.000      0.000
REMARK INTER + INTRA:          -7.221
REMARK INTER:                  -7.030
REMARK INTRA:                  -0.191
REMARK UNBOUND:                -0.191
REMARK  Name = No_1232-gen_results/8p0m/2024-11-26-14-13-15/
REMARK  1 active torsions:
REMARK  status: ('A' for Active; 'I' for Inactive)
REMARK    1  A    between atoms: C_9  and  C_11
REMARK                            x       y       z     vdW  Elec       q    Type
REMARK                         _______ _______ _______ _____ _____    ______ ____
ROOT
ATOM      1  C   UNL A   1     -26.574  -3.963  29.842  0.00  0.00    -0.000 A 
ATOM      2  C   UNL A   1     -26.190  -4.929  29.669  0.00  0.00    -0.000 A 
ATOM      3  C   UNL A   1     -25.675  -2.835  29.551  0.00  0.00    -0.000 A 
ATOM      4  C   UNL A   1     -25.906  -1.428  29.839  0.00  0.00    -0.000 A 
ATOM      5  C   UNL A   1     -24.961  -5.391  28.982  0.00  0.00    -0.000 A 
ATOM      6  C   UNL A   1     -24.059  -4.381  28.666  0.00  0.00    -0.000 A 
ATOM      7  C   UNL A   1     -24.376  -3.060  28.907  0.00  0.00    -0.000 A 
ATOM      8  C   UNL A   1     -24.820  -0.548  30.089  0.00  0.00    +0.004 A 
ATOM      9  C   UNL A   1     -23.599  -0.818  29.410  0.00  0.00    +0.071 A 
ATOM     10  C   UNL A   1     -23.353  -2.053  28.905  0.00  0.00    +0.004 A 
ENDROOT
BRANCH   9  11
ATOM     11  C   UNL A   1     -22.545   0.231  29.438  0.00  0.00    +0.419 C 
ATOM     12  F   UNL A   1     -22.402   0.795  28.363  0.00  0.00    -0.166 F 
ATOM     13  F   UNL A   1     -21.302  -0.346  29.717  0.00  0.00    -0.166 F 
ATOM     14  F   UNL A   1     -22.814   1.164  30.384  0.00  0.00    -0.166 F 
ENDBRANCH   9  11
TORSDOF 1
ENDMDL
ENDMDL
