REMARK  Name = No_1232-gen_results/8p0m/2024-11-26-14-13-15/
REMARK  1 active torsions:
REMARK  status: ('A' for Active; 'I' for Inactive)
REMARK    1  A    between atoms: C_9  and  C_11
REMARK                            x       y       z     vdW  Elec       q    Type
REMARK                         _______ _______ _______ _____ _____    ______ ____
ROOT
ATOM      1  C   UNL A   1     -28.016  -0.814  28.878  0.00  0.00    -0.000 A 
ATOM      2  C   UNL A   1     -28.469  -0.785  29.829  0.00  0.00    -0.000 A 
ATOM      3  C   UNL A   1     -26.546  -0.876  28.850  0.00  0.00    -0.000 A 
ATOM      4  C   UNL A   1     -25.683  -0.777  27.683  0.00  0.00    -0.000 A 
ATOM      5  C   UNL A   1     -27.918  -1.003  31.188  0.00  0.00    -0.000 A 
ATOM      6  C   UNL A   1     -26.531  -1.079  31.246  0.00  0.00    -0.000 A 
ATOM      7  C   UNL A   1     -25.780  -1.046  30.090  0.00  0.00    -0.000 A 
ATOM      8  C   UNL A   1     -24.368  -0.250  27.792  0.00  0.00    +0.004 A 
ATOM      9  C   UNL A   1     -23.681  -0.476  29.017  0.00  0.00    +0.071 A 
ATOM     10  C   UNL A   1     -24.369  -0.787  30.144  0.00  0.00    +0.004 A 
ENDROOT
BRANCH   9  11
ATOM     11  C   UNL A   1     -22.223  -0.181  29.057  0.00  0.00    +0.419 C 
ATOM     12  F   UNL A   1     -21.918   0.610  29.937  0.00  0.00    -0.166 F 
ATOM     13  F   UNL A   1     -21.825   0.428  27.863  0.00  0.00    -0.166 F 
ATOM     14  F   UNL A   1     -21.503  -1.317  29.228  0.00  0.00    -0.166 F 
ENDBRANCH   9  11
TORSDOF 1
