MODEL 1233
MODEL 1
REMARK VINA RESULT:    -5.263      0.000      0.000
REMARK INTER + INTRA:          -5.753
REMARK INTER:                  -5.571
REMARK INTRA:                  -0.182
REMARK UNBOUND:                -0.182
REMARK  Name = No_1233-gen_results/8p0m/2024-11-26-14-13-15/
REMARK  1 active torsions:
REMARK  status: ('A' for Active; 'I' for Inactive)
REMARK    1  A    between atoms: C_2  and  C_8
REMARK                            x       y       z     vdW  Elec       q    Type
REMARK                         _______ _______ _______ _____ _____    ______ ____
ROOT
ATOM      1  C   UNL A   1     -24.340  -2.841  28.861  0.00  0.00    -0.043 C 
ATOM      2  C   UNL A   1     -23.471  -2.249  28.929  0.00  0.00    +0.036 C 
ATOM      3  C   UNL A   1     -24.155  -4.256  29.022  0.00  0.00    +0.022 C 
ATOM      4  C   UNL A   1     -25.314  -5.162  29.153  0.00  0.00    +0.004 C 
ATOM      5  C   UNL A   1     -26.504  -4.674  29.725  0.00  0.00    +0.001 C 
ATOM      6  C   UNL A   1     -26.620  -3.292  29.981  0.00  0.00    +0.004 C 
ATOM      7  C   UNL A   1     -25.605  -2.452  29.705  0.00  0.00    +0.022 C 
ENDROOT
BRANCH   2   8
ATOM      8  C   UNL A   1     -23.566  -0.724  28.651  0.00  0.00    +0.340 C 
ATOM      9  F   UNL A   1     -24.074  -0.313  27.556  0.00  0.00    -0.193 F 
ATOM     10  F   UNL A   1     -22.315  -0.151  28.696  0.00  0.00    -0.193 F 
ENDBRANCH   2   8
TORSDOF 1
ENDMDL
ENDMDL
