MODEL 1234
MODEL 1
REMARK VINA RESULT:    -5.224      0.000      0.000
REMARK INTER + INTRA:          -5.578
REMARK INTER:                  -5.530
REMARK INTRA:                  -0.048
REMARK UNBOUND:                -0.048
REMARK  Name = No_1234-gen_results/8p0m/2024-11-26-14-13-15/
REMARK  1 active torsions:
REMARK  status: ('A' for Active; 'I' for Inactive)
REMARK    1  A    between atoms: C_6  and  C_8
REMARK                            x       y       z     vdW  Elec       q    Type
REMARK                         _______ _______ _______ _____ _____    ______ ____
ROOT
ATOM      1  C   UNL A   1     -28.345 -11.827  30.844  0.00  0.00    +0.018 A 
ATOM      2  C   UNL A   1     -29.162 -11.213  30.198  0.00  0.00    +0.058 A 
ATOM      3  C   UNL A   1     -29.910 -10.190  30.770  0.00  0.00    +0.011 A 
ATOM      4  C   UNL A   1     -29.768  -9.860  32.165  0.00  0.00    +0.001 A 
ATOM      5  C   UNL A   1     -28.818 -10.635  32.844  0.00  0.00    +0.007 A 
ATOM      6  C   UNL A   1     -28.148 -11.602  32.259  0.00  0.00    +0.081 A 
ATOM      7 CL   UNL A   1     -29.496 -11.505  28.543  0.00  0.00    -0.082 Cl
ENDROOT
BRANCH   6   8
ATOM      8  C   UNL A   1     -27.214 -12.379  33.106  0.00  0.00    +0.388 C 
ATOM      9  O   UNL A   1     -26.414 -12.989  32.635  0.00  0.00    -0.241 OA
ATOM     10  O   UNL A   1     -27.410 -12.350  34.409  0.00  0.00    -0.241 OA
ENDBRANCH   6   8
TORSDOF 1
ENDMDL
ENDMDL
