MODEL 1235
MODEL 1
REMARK VINA RESULT:    -6.793      0.000      0.000
REMARK INTER + INTRA:          -6.793
REMARK INTER:                  -6.793
REMARK INTRA:                   0.000
REMARK UNBOUND:                 0.000
REMARK  Name = No_1235-gen_results/8p0m/2024-11-26-14-13-15/
REMARK  0 active torsions:
REMARK  status: ('A' for Active; 'I' for Inactive)
REMARK                            x       y       z     vdW  Elec       q    Type
REMARK                         _______ _______ _______ _____ _____    ______ ____
ROOT
ATOM      1  C   UNL A   1     -30.871  -9.841  29.196  0.00  0.00    +0.000 A 
ATOM      2  C   UNL A   1     -30.823 -10.243  28.223  0.00  0.00    +0.000 A 
ATOM      3  C   UNL A   1     -29.998 -10.371  30.171  0.00  0.00    +0.000 A 
ATOM      4  C   UNL A   1     -29.114 -11.392  29.883  0.00  0.00    +0.000 A 
ATOM      5  C   UNL A   1     -28.198 -11.963  30.859  0.00  0.00    +0.002 A 
ATOM      6  C   UNL A   1     -30.010 -11.274  27.592  0.00  0.00    +0.000 A 
ATOM      7  C   UNL A   1     -29.089 -11.868  28.546  0.00  0.00    +0.000 A 
ATOM      8  C   UNL A   1     -28.123 -11.679  32.037  0.00  0.00    +0.019 A 
ATOM      9  C   UNL A   1     -27.218 -12.285  33.009  0.00  0.00    +0.099 A 
ATOM     10  C   UNL A   1     -28.867 -10.539  32.593  0.00  0.00    +0.003 A 
ATOM     11  C   UNL A   1     -29.921  -9.836  31.574  0.00  0.00    +0.000 A 
ATOM     12  N   UNL A   1     -27.192 -11.651  34.275  0.00  0.00    -0.242 NA
ATOM     13  C   UNL A   1     -27.675 -10.444  34.436  0.00  0.00    +0.099 A 
ATOM     14  C   UNL A   1     -28.680  -9.923  33.743  0.00  0.00    +0.021 A 
ENDROOT
TORSDOF 0
ENDMDL
ENDMDL
