REMARK  Name = No_1235-gen_results/8p0m/2024-11-26-14-13-15/
REMARK  0 active torsions:
REMARK  status: ('A' for Active; 'I' for Inactive)
REMARK                            x       y       z     vdW  Elec       q    Type
REMARK                         _______ _______ _______ _____ _____    ______ ____
ROOT
ATOM      1  C   UNL A   1     -28.016  -0.814  28.878  0.00  0.00    +0.000 A 
ATOM      2  C   UNL A   1     -28.469  -0.785  29.829  0.00  0.00    +0.000 A 
ATOM      3  C   UNL A   1     -27.136   0.236  28.535  0.00  0.00    +0.000 A 
ATOM      4  C   UNL A   1     -26.875   1.282  29.398  0.00  0.00    +0.000 A 
ATOM      5  C   UNL A   1     -25.974   2.380  29.083  0.00  0.00    +0.002 A 
ATOM      6  C   UNL A   1     -28.392   0.130  30.960  0.00  0.00    +0.000 A 
ATOM      7  C   UNL A   1     -27.503   1.242  30.670  0.00  0.00    +0.000 A 
ATOM      8  C   UNL A   1     -25.391   2.562  28.034  0.00  0.00    +0.019 A 
ATOM      9  C   UNL A   1     -24.514   3.687  27.724  0.00  0.00    +0.099 A 
ATOM     10  C   UNL A   1     -25.393   1.540  26.976  0.00  0.00    +0.003 A 
ATOM     11  C   UNL A   1     -26.376   0.272  27.239  0.00  0.00    +0.000 A 
ATOM     12  N   UNL A   1     -23.807   3.573  26.503  0.00  0.00    -0.242 NA
ATOM     13  C   UNL A   1     -23.697   2.420  25.891  0.00  0.00    +0.099 A 
ATOM     14  C   UNL A   1     -24.595   1.443  25.931  0.00  0.00    +0.021 A 
ENDROOT
TORSDOF 0
