MODEL 1236
MODEL 1
REMARK VINA RESULT:    -6.634      0.000      0.000
REMARK INTER + INTRA:          -9.319
REMARK INTER:                  -8.573
REMARK INTRA:                  -0.746
REMARK UNBOUND:                -0.746
REMARK  Name = No_1236-gen_results/8p0m/2024-11-26-14-13-15/
REMARK  5 active torsions:
REMARK  status: ('A' for Active; 'I' for Inactive)
REMARK    1  A    between atoms: C_1  and  C_2
REMARK    2  A    between atoms: C_1  and  C_8
REMARK    3  A    between atoms: C_5  and  C_10
REMARK    4  A    between atoms: C_8  and  C_9
REMARK    5  A    between atoms: C_10  and  C_12
REMARK                            x       y       z     vdW  Elec       q    Type
REMARK                         _______ _______ _______ _____ _____    ______ ____
ROOT
ATOM      1  C   UNL A   1     -22.853  -0.417  28.660  0.00  0.00    -0.022 A 
ATOM      2  C   UNL A   1     -21.970   0.514  28.439  0.00  0.00    -0.004 A 
ATOM      3  C   UNL A   1     -22.159   1.721  27.597  0.00  0.00    +0.001 A 
ATOM      4  C   UNL A   1     -23.414   1.840  26.935  0.00  0.00    +0.024 A 
ATOM      5  C   UNL A   1     -24.326   0.831  27.117  0.00  0.00    +0.001 A 
ATOM      6  C   UNL A   1     -24.108  -0.263  27.883  0.00  0.00    -0.004 A 
ENDROOT
BRANCH   4   7
ATOM      7  C   UNL A   1     -23.715   2.988  26.113  0.00  0.00    +0.159 C 
ATOM      8  N   UNL A   1     -23.341   3.434  25.162  0.00  0.00    -0.143 NA
BRANCH   7   9
ATOM      9  C   UNL A   1     -24.761   3.954  26.804  0.00  0.00    +0.304 C 
ATOM     10  N   UNL A   1     -24.744   4.512  27.763  0.00  0.00    -0.082 NA
ATOM     11  O   UNL A   1     -26.057   3.775  26.273  0.00  0.00    -0.265 OA
ENDBRANCH   7   9
ENDBRANCH   4   7
BRANCH   1  12
ATOM     12  C   UNL A   1     -22.730  -1.412  29.336  0.00  0.00    +0.031 C 
BRANCH  12  13
ATOM     13  C   UNL A   1     -23.947  -1.730  30.202  0.00  0.00    +0.031 C 
BRANCH  13  14
ATOM     14  C   UNL A   1     -24.636  -2.747  30.002  0.00  0.00    -0.022 A 
ATOM     15  C   UNL A   1     -26.026  -2.756  30.339  0.00  0.00    -0.004 A 
ATOM     16  C   UNL A   1     -26.821  -3.895  29.917  0.00  0.00    -0.000 A 
ATOM     17  C   UNL A   1     -26.366  -4.783  29.482  0.00  0.00    -0.000 A 
ATOM     18  C   UNL A   1     -25.013  -5.021  29.078  0.00  0.00    -0.000 A 
ATOM     19  C   UNL A   1     -24.176  -3.946  29.319  0.00  0.00    -0.004 A 
ENDBRANCH  13  14
ENDBRANCH  12  13
ENDBRANCH   1  12
TORSDOF 5
ENDMDL
ENDMDL
