REMARK  Name = No_1236-gen_results/8p0m/2024-11-26-14-13-15/
REMARK  5 active torsions:
REMARK  status: ('A' for Active; 'I' for Inactive)
REMARK    1  A    between atoms: C_1  and  C_2
REMARK    2  A    between atoms: C_1  and  C_8
REMARK    3  A    between atoms: C_5  and  C_10
REMARK    4  A    between atoms: C_8  and  C_9
REMARK    5  A    between atoms: C_10  and  C_12
REMARK                            x       y       z     vdW  Elec       q    Type
REMARK                         _______ _______ _______ _____ _____    ______ ____
ROOT
ATOM      1  C   UNL A   1     -27.064  -0.119  28.608  0.00  0.00    -0.022 A 
ATOM      2  C   UNL A   1     -26.876   1.133  28.913  0.00  0.00    -0.004 A 
ATOM      3  C   UNL A   1     -25.688   1.952  28.567  0.00  0.00    +0.001 A 
ATOM      4  C   UNL A   1     -24.639   1.283  27.875  0.00  0.00    +0.024 A 
ATOM      5  C   UNL A   1     -24.807  -0.051  27.604  0.00  0.00    +0.001 A 
ATOM      6  C   UNL A   1     -25.902  -0.767  27.951  0.00  0.00    -0.004 A 
ENDROOT
BRANCH   4   7
ATOM      7  C   UNL A   1     -23.450   1.991  27.465  0.00  0.00    +0.159 C 
ATOM      8  N   UNL A   1     -23.143   2.658  26.625  0.00  0.00    -0.143 NA
BRANCH   7   9
ATOM      9  C   UNL A   1     -22.201   1.623  28.364  0.00  0.00    +0.304 C 
ATOM     10  N   UNL A   1     -21.167   1.306  28.115  0.00  0.00    -0.082 NA
ATOM     11  O   UNL A   1     -22.591   1.304  29.683  0.00  0.00    -0.265 OA
ENDBRANCH   7   9
ENDBRANCH   4   7
BRANCH   1  12
ATOM     12  C   UNL A   1     -28.016  -0.814  28.878  0.00  0.00    +0.031 C 
BRANCH  12  13
ATOM     13  C   UNL A   1     -28.639  -0.512  30.240  0.00  0.00    +0.031 C 
BRANCH  13  14
ATOM     14  C   UNL A   1     -29.654  -1.114  30.635  0.00  0.00    -0.022 A 
ATOM     15  C   UNL A   1     -30.232  -2.154  29.840  0.00  0.00    -0.004 A 
ATOM     16  C   UNL A   1     -31.297  -2.946  30.427  0.00  0.00    -0.000 A 
ATOM     17  C   UNL A   1     -31.748  -2.684  31.382  0.00  0.00    -0.000 A 
ATOM     18  C   UNL A   1     -31.369  -1.687  32.337  0.00  0.00    -0.000 A 
ATOM     19  C   UNL A   1     -30.273  -0.941  31.939  0.00  0.00    -0.004 A 
ENDBRANCH  13  14
ENDBRANCH  12  13
ENDBRANCH   1  12
TORSDOF 5
