REMARK  Name = No_1237-gen_results/8p0m/2024-11-26-14-13-15/
REMARK  2 active torsions:
REMARK  status: ('A' for Active; 'I' for Inactive)
REMARK    1  A    between atoms: C_4  and  C_5
REMARK    2  A    between atoms: C_5  and  C_9
REMARK                            x       y       z     vdW  Elec       q    Type
REMARK                         _______ _______ _______ _____ _____    ______ ____
ROOT
ATOM      1  C   UNL A   1     -28.016  -0.814  28.878  0.00  0.00    +0.137 A 
ATOM      2  C   UNL A   1     -28.469  -0.785  29.829  0.00  0.00    +0.029 A 
ATOM      3  F   UNL A   1     -26.916  -1.564  28.737  0.00  0.00    -0.204 F 
ATOM      4  C   UNL A   1     -28.165   0.026  27.758  0.00  0.00    +0.010 A 
ATOM      5  C   UNL A   1     -29.467   0.134  30.237  0.00  0.00    +0.002 A 
ATOM      6  C   UNL A   1     -29.771   1.001  29.143  0.00  0.00    -0.000 A 
ATOM      7  C   UNL A   1     -29.152   1.065  27.954  0.00  0.00    -0.002 A 
ENDROOT
BRANCH   4   8
ATOM      8  C   UNL A   1     -27.185   0.312  26.807  0.00  0.00    +0.055 C 
BRANCH   8   9
ATOM      9  C   UNL A   1     -25.787   0.343  27.148  0.00  0.00    -0.018 A 
ATOM     10  C   UNL A   1     -24.870   1.198  26.477  0.00  0.00    -0.004 A 
ATOM     11  C   UNL A   1     -23.563   1.369  26.986  0.00  0.00    -0.000 A 
ATOM     12  C   UNL A   1     -23.065   0.577  28.032  0.00  0.00    -0.000 A 
ATOM     13  C   UNL A   1     -23.923  -0.351  28.633  0.00  0.00    -0.000 A 
ATOM     14  C   UNL A   1     -25.217  -0.424  28.258  0.00  0.00    -0.004 A 
ENDBRANCH   8   9
ENDBRANCH   4   8
TORSDOF 2
