MODEL 1237
MODEL 1
REMARK VINA RESULT:    -6.690      0.000      0.000
REMARK INTER + INTRA:          -8.010
REMARK INTER:                  -7.472
REMARK INTRA:                  -0.537
REMARK UNBOUND:                -0.537
REMARK  Name = No_1237-gen_results/8p0m/2024-11-26-14-13-15/
REMARK  2 active torsions:
REMARK  status: ('A' for Active; 'I' for Inactive)
REMARK    1  A    between atoms: C_4  and  C_5
REMARK    2  A    between atoms: C_5  and  C_9
REMARK                            x       y       z     vdW  Elec       q    Type
REMARK                         _______ _______ _______ _____ _____    ______ ____
ROOT
ATOM      1  C   UNL A   1     -24.342   0.324  27.162  0.00  0.00    +0.137 A 
ATOM      2  C   UNL A   1     -23.999   1.133  26.580  0.00  0.00    +0.029 A 
ATOM      3  F   UNL A   1     -25.630  -0.023  27.045  0.00  0.00    -0.204 F 
ATOM      4  C   UNL A   1     -23.780  -0.309  28.287  0.00  0.00    +0.010 A 
ATOM      5  C   UNL A   1     -22.762   1.803  26.751  0.00  0.00    +0.002 A 
ATOM      6  C   UNL A   1     -22.050   1.189  27.827  0.00  0.00    -0.000 A 
ATOM      7  C   UNL A   1     -22.488   0.228  28.654  0.00  0.00    -0.002 A 
ENDROOT
BRANCH   4   8
ATOM      8  C   UNL A   1     -24.483  -0.921  29.324  0.00  0.00    +0.055 C 
BRANCH   8   9
ATOM      9  C   UNL A   1     -24.726  -2.340  29.339  0.00  0.00    -0.018 A 
ATOM     10  C   UNL A   1     -25.906  -2.894  29.907  0.00  0.00    -0.004 A 
ATOM     11  C   UNL A   1     -26.216  -4.257  29.701  0.00  0.00    -0.000 A 
ATOM     12  C   UNL A   1     -25.303  -5.144  29.111  0.00  0.00    -0.000 A 
ATOM     13  C   UNL A   1     -24.085  -4.635  28.644  0.00  0.00    -0.000 A 
ATOM     14  C   UNL A   1     -23.835  -3.311  28.699  0.00  0.00    -0.004 A 
ENDBRANCH   8   9
ENDBRANCH   4   8
TORSDOF 2
ENDMDL
ENDMDL
