MODEL 1238
MODEL 1
REMARK VINA RESULT:    -7.269      0.000      0.000
REMARK INTER + INTRA:         -12.484
REMARK INTER:                  -9.819
REMARK INTRA:                  -2.665
REMARK UNBOUND:                -2.665
REMARK  Name = No_1238-gen_results/8p0m/2024-11-26-14-13-15/
REMARK  6 active torsions:
REMARK  status: ('A' for Active; 'I' for Inactive)
REMARK    1  A    between atoms: C_2  and  C_29
REMARK    2  A    between atoms: C_3  and  C_4
REMARK    3  A    between atoms: C_6  and  C_23
REMARK    4  A    between atoms: C_8  and  C_9
REMARK    5  A    between atoms: C_15  and  O_19
REMARK    6  A    between atoms: O_19  and  C_20
REMARK                            x       y       z     vdW  Elec       q    Type
REMARK                         _______ _______ _______ _____ _____    ______ ____
ROOT
ATOM      1  C   UNL A   1      -9.892   1.599  37.369  0.00  0.00    +0.034 A 
ATOM      2  C   UNL A   1      -9.843   0.594  38.175  0.00  0.00    +0.003 A 
ATOM      3  C   UNL A   1      -8.874   2.578  37.210  0.00  0.00    +0.138 A 
ATOM      4  C   UNL A   1      -7.612   2.317  37.658  0.00  0.00    +0.037 A 
ATOM      5  C   UNL A   1      -7.505   1.194  38.625  0.00  0.00    +0.003 A 
ATOM      6  C   UNL A   1      -8.562   0.359  38.861  0.00  0.00    +0.000 A 
ENDROOT
BRANCH   1   9
ATOM      7  C   UNL A   1     -11.200   1.387  35.138  0.00  0.00    -0.003 A 
ATOM      8  C   UNL A   1     -12.154   1.546  34.720  0.00  0.00    -0.006 A 
ATOM      9  C   UNL A   1     -11.095   1.813  36.534  0.00  0.00    +0.003 A 
ATOM     10  C   UNL A   1     -13.413   2.095  35.204  0.00  0.00    -0.003 A 
ATOM     11  C   UNL A   1     -13.350   2.521  36.515  0.00  0.00    -0.000 A 
ATOM     12  C   UNL A   1     -12.218   2.343  37.220  0.00  0.00    +0.000 A 
BRANCH  11  13
ATOM     13  C   UNL A   1     -14.522   3.220  37.138  0.00  0.00    -0.000 A 
ATOM     14  C   UNL A   1     -14.671   3.360  38.389  0.00  0.00    -0.000 A 
ATOM     15  C   UNL A   1     -15.841   3.926  38.994  0.00  0.00    -0.000 A 
ATOM     16  C   UNL A   1     -16.890   4.391  38.167  0.00  0.00    +0.000 A 
ATOM     17  C   UNL A   1     -16.748   4.237  36.781  0.00  0.00    -0.000 A 
ATOM     18  C   UNL A   1     -15.603   3.602  36.234  0.00  0.00    -0.000 A 
ENDBRANCH  11  13
BRANCH   8  19
ATOM     19  C   UNL A   1     -12.418   1.138  33.183  0.00  0.00    +0.121 C 
ATOM     20 CL   UNL A   1     -11.649   0.706  32.082  0.00  0.00    -0.108 Cl
ENDBRANCH   8  19
ENDBRANCH   1   9
BRANCH   2  21
ATOM     21  C   UNL A   1     -10.812  -0.429  38.237  0.00  0.00    +0.000 A 
ATOM     22  C   UNL A   1     -11.690  -0.470  39.415  0.00  0.00    +0.000 A 
ATOM     23  C   UNL A   1     -12.271  -1.622  39.850  0.00  0.00    +0.000 A 
ATOM     24  C   UNL A   1     -12.304  -2.720  38.959  0.00  0.00    +0.000 A 
ATOM     25  C   UNL A   1     -11.760  -2.609  37.703  0.00  0.00    +0.000 A 
ATOM     26  C   UNL A   1     -10.889  -1.530  37.412  0.00  0.00    +0.000 A 
ENDBRANCH   2  21
BRANCH   3  27
ATOM     27  O   UNL A   1      -9.001   3.568  36.319  0.00  0.00    -0.479 OA
BRANCH  27  28
ATOM     28  C   UNL A   1      -9.534   4.767  36.747  0.00  0.00    +0.166 C 
ATOM     29  C   UNL A   1      -9.356   5.280  37.852  0.00  0.00    +0.047 C 
ATOM     30  C   UNL A   1     -10.392   5.305  35.728  0.00  0.00    +0.047 C 
ENDBRANCH  27  28
ENDBRANCH   3  27
TORSDOF 6
ENDMDL
ENDMDL
