REMARK  Name = No_1238-gen_results/8p0m/2024-11-26-14-13-15/
REMARK  6 active torsions:
REMARK  status: ('A' for Active; 'I' for Inactive)
REMARK    1  A    between atoms: C_2  and  C_29
REMARK    2  A    between atoms: C_3  and  C_4
REMARK    3  A    between atoms: C_6  and  C_23
REMARK    4  A    between atoms: C_8  and  C_9
REMARK    5  A    between atoms: C_15  and  O_19
REMARK    6  A    between atoms: O_19  and  C_20
REMARK                            x       y       z     vdW  Elec       q    Type
REMARK                         _______ _______ _______ _____ _____    ______ ____
ROOT
ATOM      1  C   UNL A   1     -26.252   0.411  27.422  0.00  0.00    +0.034 A 
ATOM      2  C   UNL A   1     -24.967   0.411  27.525  0.00  0.00    +0.003 A 
ATOM      3  C   UNL A   1     -26.981   0.543  26.209  0.00  0.00    +0.138 A 
ATOM      4  C   UNL A   1     -26.352   0.328  25.017  0.00  0.00    +0.037 A 
ATOM      5  C   UNL A   1     -24.868   0.361  25.072  0.00  0.00    +0.003 A 
ATOM      6  C   UNL A   1     -24.203   0.383  26.267  0.00  0.00    +0.000 A 
ENDROOT
BRANCH   1   9
ATOM      7  C   UNL A   1     -28.016  -0.814  28.878  0.00  0.00    -0.003 A 
ATOM      8  C   UNL A   1     -28.469  -0.785  29.829  0.00  0.00    -0.006 A 
ATOM      9  C   UNL A   1     -27.087   0.290  28.638  0.00  0.00    +0.003 A 
ATOM     10  C   UNL A   1     -28.391   0.104  30.980  0.00  0.00    -0.003 A 
ATOM     11  C   UNL A   1     -27.533   1.167  30.787  0.00  0.00    -0.000 A 
ATOM     12  C   UNL A   1     -26.828   1.256  29.645  0.00  0.00    +0.000 A 
BRANCH  11  13
ATOM     13  C   UNL A   1     -27.421   2.244  31.825  0.00  0.00    -0.000 A 
ATOM     14  C   UNL A   1     -27.939   3.395  31.701  0.00  0.00    -0.000 A 
ATOM     15  C   UNL A   1     -27.741   4.463  32.636  0.00  0.00    -0.000 A 
ATOM     16  C   UNL A   1     -26.951   4.237  33.787  0.00  0.00    +0.000 A 
ATOM     17  C   UNL A   1     -26.362   2.974  33.938  0.00  0.00    -0.000 A 
ATOM     18  C   UNL A   1     -26.527   1.972  32.947  0.00  0.00    -0.000 A 
ENDBRANCH  11  13
BRANCH   8  19
ATOM     19  C   UNL A   1     -29.528  -1.931  30.233  0.00  0.00    +0.121 C 
ATOM     20 CL   UNL A   1     -29.884  -2.645  31.396  0.00  0.00    -0.108 Cl
ENDBRANCH   8  19
ENDBRANCH   1   9
BRANCH   2  21
ATOM     21  C   UNL A   1     -24.261   0.165  28.721  0.00  0.00    +0.000 A 
ATOM     22  C   UNL A   1     -22.802   0.342  28.703  0.00  0.00    +0.000 A 
ATOM     23  C   UNL A   1     -21.978  -0.324  29.559  0.00  0.00    +0.000 A 
ATOM     24  C   UNL A   1     -22.560  -0.927  30.698  0.00  0.00    +0.000 A 
ATOM     25  C   UNL A   1     -23.913  -0.836  30.915  0.00  0.00    +0.000 A 
ATOM     26  C   UNL A   1     -24.764  -0.431  29.857  0.00  0.00    +0.000 A 
ENDBRANCH   2  21
BRANCH   3  27
ATOM     27  O   UNL A   1     -28.318   0.495  26.198  0.00  0.00    -0.479 OA
BRANCH  27  28
ATOM     28  C   UNL A   1     -29.003   1.513  25.565  0.00  0.00    +0.166 C 
ATOM     29  C   UNL A   1     -28.852   2.717  25.770  0.00  0.00    +0.047 C 
ATOM     30  C   UNL A   1     -29.977   0.954  24.669  0.00  0.00    +0.047 C 
ENDBRANCH  27  28
ENDBRANCH   3  27
TORSDOF 6
