REMARK  Name = No_1239-gen_results/8p0m/2024-11-26-14-13-15/
REMARK  0 active torsions:
REMARK  status: ('A' for Active; 'I' for Inactive)
REMARK                            x       y       z     vdW  Elec       q    Type
REMARK                         _______ _______ _______ _____ _____    ______ ____
ROOT
ATOM      1  C   UNL A   1     -28.016  -0.814  28.878  0.00  0.00    +0.000 A 
ATOM      2  C   UNL A   1     -28.469  -0.785  29.829  0.00  0.00    +0.000 A 
ATOM      3  C   UNL A   1     -27.087   0.290  28.638  0.00  0.00    +0.000 A 
ATOM      4  C   UNL A   1     -26.252   0.411  27.422  0.00  0.00    +0.000 A 
ATOM      5  C   UNL A   1     -29.431  -1.931  30.271  0.00  0.00    +0.000 A 
ATOM      6  C   UNL A   1     -25.146   1.240  27.356  0.00  0.00    +0.000 A 
ATOM      7  C   UNL A   1     -24.781   1.984  28.503  0.00  0.00    +0.000 A 
ATOM      8  C   UNL A   1     -25.474   1.847  29.636  0.00  0.00    +0.000 A 
ATOM      9  C   UNL A   1     -26.503   1.002  29.769  0.00  0.00    +0.000 A 
ATOM     10  C   UNL A   1     -30.178  -1.960  31.436  0.00  0.00    +0.000 A 
ATOM     11  C   UNL A   1     -29.943  -0.898  32.352  0.00  0.00    +0.000 A 
ATOM     12  C   UNL A   1     -29.107   0.106  32.094  0.00  0.00    +0.000 A 
ATOM     13  C   UNL A   1     -28.433   0.189  30.970  0.00  0.00    +0.000 A 
ATOM     14  C   UNL A   1     -27.340   1.075  30.739  0.00  0.00    +0.000 A 
ATOM     15  C   UNL A   1     -24.363   1.379  26.109  0.00  0.00    +0.000 A 
ATOM     16  C   UNL A   1     -23.682   2.089  25.823  0.00  0.00    +0.000 A 
ATOM     17  C   UNL A   1     -23.060   2.934  27.001  0.00  0.00    +0.000 A 
ATOM     18  C   UNL A   1     -23.659   2.878  28.214  0.00  0.00    +0.000 A 
ENDROOT
TORSDOF 0
