MODEL 1239
MODEL 1
REMARK VINA RESULT:    -6.911      0.000      0.000
REMARK INTER + INTRA:          -6.911
REMARK INTER:                  -6.911
REMARK INTRA:                   0.000
REMARK UNBOUND:                 0.000
REMARK  Name = No_1239-gen_results/8p0m/2024-11-26-14-13-15/
REMARK  0 active torsions:
REMARK  status: ('A' for Active; 'I' for Inactive)
REMARK                            x       y       z     vdW  Elec       q    Type
REMARK                         _______ _______ _______ _____ _____    ______ ____
ROOT
ATOM      1  C   UNL A   1     -11.312   1.703  34.601  0.00  0.00    +0.000 A 
ATOM      2  C   UNL A   1     -10.469   1.223  35.012  0.00  0.00    +0.000 A 
ATOM      3  C   UNL A   1     -12.407   1.881  35.556  0.00  0.00    +0.000 A 
ATOM      4  C   UNL A   1     -13.653   2.618  35.248  0.00  0.00    +0.000 A 
ATOM      5  C   UNL A   1      -9.186   1.023  34.146  0.00  0.00    +0.000 A 
ATOM      6  C   UNL A   1     -14.510   3.078  36.233  0.00  0.00    +0.000 A 
ATOM      7  C   UNL A   1     -14.171   2.859  37.589  0.00  0.00    +0.000 A 
ATOM      8  C   UNL A   1     -13.022   2.255  37.902  0.00  0.00    +0.000 A 
ATOM      9  C   UNL A   1     -12.128   1.861  36.987  0.00  0.00    +0.000 A 
ATOM     10  C   UNL A   1      -8.058   0.312  34.518  0.00  0.00    +0.000 A 
ATOM     11  C   UNL A   1      -8.040  -0.170  35.856  0.00  0.00    +0.000 A 
ATOM     12  C   UNL A   1      -9.063  -0.012  36.694  0.00  0.00    +0.000 A 
ATOM     13  C   UNL A   1     -10.169   0.605  36.346  0.00  0.00    +0.000 A 
ATOM     14  C   UNL A   1     -11.180   1.038  37.253  0.00  0.00    +0.000 A 
ATOM     15  C   UNL A   1     -15.774   3.765  35.892  0.00  0.00    +0.000 A 
ATOM     16  C   UNL A   1     -16.603   3.961  36.461  0.00  0.00    +0.000 A 
ATOM     17  C   UNL A   1     -16.376   3.895  38.021  0.00  0.00    +0.000 A 
ATOM     18  C   UNL A   1     -15.240   3.317  38.478  0.00  0.00    +0.000 A 
ENDROOT
TORSDOF 0
ENDMDL
ENDMDL
