MODEL 123
MODEL 1
REMARK VINA RESULT:    -7.966      0.000      0.000
REMARK INTER + INTRA:         -10.710
REMARK INTER:                  -9.363
REMARK INTRA:                  -1.347
REMARK UNBOUND:                -1.347
REMARK  Name = No_123-gen_results/8p0m/2024-11-26-14-13-15/
REMARK  3 active torsions:
REMARK  status: ('A' for Active; 'I' for Inactive)
REMARK    1  A    between atoms: C_7  and  C_15
REMARK    2  A    between atoms: C_15  and  C_16
REMARK    3  A    between atoms: C_16  and  C_18
REMARK                            x       y       z     vdW  Elec       q    Type
REMARK                         _______ _______ _______ _____ _____    ______ ____
ROOT
ATOM      1  C   UNL A   1     -23.715   1.905  26.263  0.00  0.00    -0.000 A 
ATOM      2  C   UNL A   1     -24.270   0.986  26.819  0.00  0.00    -0.004 A 
ATOM      3  C   UNL A   1     -23.614   0.225  27.780  0.00  0.00    -0.000 A 
ATOM      4  C   UNL A   1     -22.235   0.478  28.110  0.00  0.00    -0.000 A 
ATOM      5  C   UNL A   1     -21.662   1.543  27.403  0.00  0.00    -0.000 A 
ATOM      6  C   UNL A   1     -22.322   2.222  26.492  0.00  0.00    -0.000 A 
ATOM      7  C   UNL A   1     -25.678   0.566  26.584  0.00  0.00    -0.026 A 
ATOM      8  C   UNL A   1     -26.418   0.043  27.497  0.00  0.00    -0.026 A 
ATOM      9  C   UNL A   1     -25.728  -0.772  28.585  0.00  0.00    -0.004 A 
ATOM     10  C   UNL A   1     -24.369  -0.568  28.787  0.00  0.00    -0.000 A 
ATOM     11  C   UNL A   1     -26.489  -1.642  29.466  0.00  0.00    -0.000 A 
ATOM     12  C   UNL A   1     -25.830  -2.789  29.984  0.00  0.00    -0.000 A 
ATOM     13  C   UNL A   1     -24.425  -2.711  30.216  0.00  0.00    -0.000 A 
ATOM     14  C   UNL A   1     -23.637  -1.618  29.536  0.00  0.00    -0.000 A 
ATOM     15  C   UNL A   1     -27.831   0.329  27.684  0.00  0.00    +0.031 C 
ENDROOT
BRANCH   7  16
ATOM     16  C   UNL A   1     -25.685  -0.204  25.294  0.00  0.00    +0.031 C 
BRANCH  16  17
ATOM     17  C   UNL A   1     -26.209   0.752  24.246  0.00  0.00    +0.031 C 
BRANCH  17  18
ATOM     18  C   UNL A   1     -27.348   0.765  24.003  0.00  0.00    -0.022 A 
ATOM     19  C   UNL A   1     -28.048   2.026  24.014  0.00  0.00    -0.004 A 
ATOM     20  C   UNL A   1     -29.457   2.054  23.842  0.00  0.00    -0.001 A 
ATOM     21  C   UNL A   1     -30.182   0.852  23.663  0.00  0.00    -0.004 A 
ATOM     22  C   UNL A   1     -29.551  -0.328  23.810  0.00  0.00    -0.022 A 
ATOM     23  C   UNL A   1     -30.243  -1.566  23.765  0.00  0.00    +0.031 C 
ATOM     24  C   UNL A   1     -28.094  -0.349  24.003  0.00  0.00    -0.009 A 
ENDBRANCH  17  18
ENDBRANCH  16  17
ENDBRANCH   7  16
TORSDOF 3
ENDMDL
ENDMDL
