REMARK  Name = No_124-gen_results/8p0m/2024-11-26-14-13-15/
REMARK  2 active torsions:
REMARK  status: ('A' for Active; 'I' for Inactive)
REMARK    1  A    between atoms: C_1  and  C_2
REMARK    2  A    between atoms: C_4  and  C_12
REMARK                            x       y       z     vdW  Elec       q    Type
REMARK                         _______ _______ _______ _____ _____    ______ ____
ROOT
ATOM      1  C   UNL A   1     -28.016  -0.814  28.878  0.00  0.00    +0.118 A 
ATOM      2  C   UNL A   1     -28.182   0.428  28.113  0.00  0.00    +0.008 A 
ATOM      3  C   UNL A   1     -27.450   0.643  26.850  0.00  0.00    +0.005 A 
ATOM      4  C   UNL A   1     -26.181   0.036  26.715  0.00  0.00    +0.139 A 
ATOM      5  C   UNL A   1     -25.780  -0.933  27.694  0.00  0.00    +0.071 A 
ATOM      6  C   UNL A   1     -26.557  -1.213  28.741  0.00  0.00    +0.204 A 
ATOM      7  F   UNL A   1     -25.367   0.277  25.707  0.00  0.00    -0.204 F 
ATOM      8  O   UNL A   1     -25.990  -2.194  29.527  0.00  0.00    -0.286 OA
ENDROOT
BRANCH   3   9
ATOM      9  C   UNL A   1     -27.680   1.438  25.648  0.00  0.00    +0.021 C 
ATOM     10  C   UNL A   1     -27.922   2.735  25.925  0.00  0.00    +0.004 C 
ATOM     11  C   UNL A   1     -28.666   0.698  24.793  0.00  0.00    +0.004 C 
ATOM     12  C   UNL A   1     -26.451   1.724  24.714  0.00  0.00    +0.004 C 
ENDBRANCH   3   9
BRANCH   1  13
ATOM     13  C   UNL A   1     -28.469  -0.785  29.829  0.00  0.00    +0.391 C 
ATOM     14  O   UNL A   1     -28.532  -1.949  30.614  0.00  0.00    -0.240 OA
ATOM     15  O   UNL A   1     -29.086   0.152  30.569  0.00  0.00    -0.240 OA
ENDBRANCH   1  13
TORSDOF 2
