MODEL 1240
MODEL 1
REMARK VINA RESULT:    -7.584      0.000      0.000
REMARK INTER + INTRA:         -10.911
REMARK INTER:                  -9.801
REMARK INTRA:                  -1.111
REMARK UNBOUND:                -1.111
REMARK  Name = No_1240-gen_results/8p0m/2024-11-26-14-13-15/
REMARK  5 active torsions:
REMARK  status: ('A' for Active; 'I' for Inactive)
REMARK    1  A    between atoms: C_3  and  N_15
REMARK    2  A    between atoms: N_4  and  C_8
REMARK    3  A    between atoms: C_19  and  O_21
REMARK    4  A    between atoms: O_21  and  C_26
REMARK    5  A    between atoms: C_26  and  C_27
REMARK                            x       y       z     vdW  Elec       q    Type
REMARK                         _______ _______ _______ _____ _____    ______ ____
ROOT
ATOM      1  N   UNL A   1      -9.927   0.100  36.918  0.00  0.00    -0.260 NA
ATOM      2  C   UNL A   1      -8.999  -0.144  36.008  0.00  0.00    +0.101 C 
ATOM      3  C   UNL A   1      -8.772   0.796  35.082  0.00  0.00    +0.010 A 
ATOM      4  C   UNL A   1      -9.854   1.490  34.562  0.00  0.00    +0.085 A 
ATOM      5  C   UNL A   1     -11.031   1.575  35.484  0.00  0.00    +0.171 C 
ATOM      6  C   UNL A   1     -11.168   0.671  36.473  0.00  0.00    +0.109 C 
ATOM      7  N   UNL A   1      -9.538   2.852  34.028  0.00  0.00    -0.246 NA
ATOM      8  C   UNL A   1      -7.472   1.110  34.629  0.00  0.00    -0.000 A 
ATOM      9  C   UNL A   1      -7.165   2.255  33.987  0.00  0.00    +0.020 A 
ATOM     10  C   UNL A   1      -8.324   3.084  33.516  0.00  0.00    +0.099 A 
ENDROOT
BRANCH   1  13
ATOM     11  O   UNL A   1      -8.962   0.184  39.402  0.00  0.00    -0.273 OA
ATOM     12  C   UNL A   1      -9.826  -0.521  39.131  0.00  0.00    +0.246 C 
ATOM     13  C   UNL A   1     -10.353  -0.629  37.972  0.00  0.00    +0.136 C 
ATOM     14  N   UNL A   1     -10.338  -1.333  40.259  0.00  0.00    -0.231 N 
ATOM     15  C   UNL A   1     -11.374  -2.262  40.077  0.00  0.00    +0.243 C 
ATOM     16  C   UNL A   1     -11.428  -1.622  37.728  0.00  0.00    +0.030 C 
ATOM     17  C   UNL A   1     -11.907  -2.382  38.828  0.00  0.00    +0.059 C 
ATOM     18  F   UNL A   1     -11.730  -2.904  41.025  0.00  0.00    -0.214 F 
BRANCH  14  19
ATOM     19  C   UNL A   1      -9.730  -1.212  41.554  0.00  0.00    +0.056 A 
ATOM     20  C   UNL A   1     -10.091  -0.471  42.326  0.00  0.00    +0.015 A 
ATOM     21  C   UNL A   1      -9.433  -0.295  43.645  0.00  0.00    +0.001 A 
ATOM     22  C   UNL A   1      -8.383  -1.128  44.038  0.00  0.00    +0.000 A 
ATOM     23  C   UNL A   1      -7.984  -2.088  43.035  0.00  0.00    +0.001 A 
ATOM     24  C   UNL A   1      -8.640  -2.166  41.814  0.00  0.00    +0.015 A 
ENDBRANCH  14  19
ENDBRANCH   1  13
BRANCH   5  25
ATOM     25  O   UNL A   1     -12.192   1.774  34.669  0.00  0.00    -0.344 OA
BRANCH  25  26
ATOM     26  C   UNL A   1     -13.070   2.750  34.839  0.00  0.00    +0.169 C 
BRANCH  26  27
ATOM     27  C   UNL A   1     -14.043   2.825  35.656  0.00  0.00    +0.007 A 
ATOM     28  C   UNL A   1     -15.353   3.448  35.325  0.00  0.00    -0.002 A 
ATOM     29  C   UNL A   1     -16.378   3.704  36.194  0.00  0.00    -0.000 A 
ATOM     30  C   UNL A   1     -16.114   3.775  37.571  0.00  0.00    -0.000 A 
ATOM     31  C   UNL A   1     -14.804   3.302  37.995  0.00  0.00    -0.000 A 
ATOM     32  C   UNL A   1     -13.885   2.856  37.127  0.00  0.00    -0.002 A 
ENDBRANCH  26  27
ENDBRANCH  25  26
ENDBRANCH   5  25
TORSDOF 5
ENDMDL
ENDMDL
