REMARK  Name = No_1240-gen_results/8p0m/2024-11-26-14-13-15/
REMARK  5 active torsions:
REMARK  status: ('A' for Active; 'I' for Inactive)
REMARK    1  A    between atoms: C_3  and  N_15
REMARK    2  A    between atoms: N_4  and  C_8
REMARK    3  A    between atoms: C_19  and  O_21
REMARK    4  A    between atoms: O_21  and  C_26
REMARK    5  A    between atoms: C_26  and  C_27
REMARK                            x       y       z     vdW  Elec       q    Type
REMARK                         _______ _______ _______ _____ _____    ______ ____
ROOT
ATOM      1  N   UNL A   1     -30.619  -0.466  28.135  0.00  0.00    -0.260 NA
ATOM      2  C   UNL A   1     -31.939  -0.386  28.133  0.00  0.00    +0.101 C 
ATOM      3  C   UNL A   1     -32.602  -1.039  27.170  0.00  0.00    +0.010 A 
ATOM      4  C   UNL A   1     -32.070  -1.050  25.890  0.00  0.00    +0.085 A 
ATOM      5  C   UNL A   1     -30.582  -0.893  25.840  0.00  0.00    +0.171 C 
ATOM      6  C   UNL A   1     -29.938  -0.326  26.878  0.00  0.00    +0.109 C 
ATOM      7  N   UNL A   1     -32.478  -2.215  25.042  0.00  0.00    -0.246 NA
ATOM      8  C   UNL A   1     -33.812  -1.723  27.418  0.00  0.00    -0.000 A 
ATOM      9  C   UNL A   1     -34.315  -2.666  26.596  0.00  0.00    +0.020 A 
ATOM     10  C   UNL A   1     -33.676  -2.776  25.243  0.00  0.00    +0.099 A 
ENDROOT
BRANCH   1  13
ATOM     11  O   UNL A   1     -28.123  -1.335  28.487  0.00  0.00    -0.273 OA
ATOM     12  C   UNL A   1     -28.521  -0.436  29.078  0.00  0.00    +0.246 C 
ATOM     13  C   UNL A   1     -29.698   0.051  28.976  0.00  0.00    +0.136 C 
ATOM     14  N   UNL A   1     -27.541   0.176  30.005  0.00  0.00    -0.231 N 
ATOM     15  C   UNL A   1     -27.889   1.266  30.818  0.00  0.00    +0.243 C 
ATOM     16  C   UNL A   1     -30.117   1.182  29.840  0.00  0.00    +0.030 C 
ATOM     17  C   UNL A   1     -29.157   1.756  30.714  0.00  0.00    +0.059 C 
ATOM     18  F   UNL A   1     -27.057   1.704  31.562  0.00  0.00    -0.214 F 
BRANCH  14  19
ATOM     19  C   UNL A   1     -26.225  -0.387  30.120  0.00  0.00    +0.056 A 
ATOM     20  C   UNL A   1     -25.851  -0.863  31.073  0.00  0.00    +0.015 A 
ATOM     21  C   UNL A   1     -24.473  -1.393  31.223  0.00  0.00    +0.001 A 
ATOM     22  C   UNL A   1     -23.596  -1.424  30.136  0.00  0.00    +0.000 A 
ATOM     23  C   UNL A   1     -24.133  -0.844  28.927  0.00  0.00    +0.001 A 
ATOM     24  C   UNL A   1     -25.428  -0.345  28.884  0.00  0.00    +0.015 A 
ENDBRANCH  14  19
ENDBRANCH   1  13
BRANCH   5  25
ATOM     25  O   UNL A   1     -30.256  -0.360  24.551  0.00  0.00    -0.344 OA
BRANCH  25  26
ATOM     26  C   UNL A   1     -29.872   0.887  24.330  0.00  0.00    +0.169 C 
BRANCH  26  27
ATOM     27  C   UNL A   1     -28.715   1.406  24.443  0.00  0.00    +0.007 A 
ATOM     28  C   UNL A   1     -27.511   0.651  24.882  0.00  0.00    -0.002 A 
ATOM     29  C   UNL A   1     -26.281   1.174  25.175  0.00  0.00    -0.000 A 
ATOM     30  C   UNL A   1     -26.168   2.539  25.486  0.00  0.00    -0.000 A 
ATOM     31  C   UNL A   1     -27.341   3.356  25.209  0.00  0.00    -0.000 A 
ATOM     32  C   UNL A   1     -28.477   2.840  24.719  0.00  0.00    -0.002 A 
ENDBRANCH  26  27
ENDBRANCH  25  26
ENDBRANCH   5  25
TORSDOF 5
