MODEL 1241
MODEL 1
REMARK VINA RESULT:    -5.428      0.000      0.000
REMARK INTER + INTRA:          -5.428
REMARK INTER:                  -5.428
REMARK INTRA:                   0.000
REMARK UNBOUND:                 0.000
REMARK  Name = No_1241-gen_results/8p0m/2024-11-26-14-13-15/
REMARK  0 active torsions:
REMARK  status: ('A' for Active; 'I' for Inactive)
REMARK                            x       y       z     vdW  Elec       q    Type
REMARK                         _______ _______ _______ _____ _____    ______ ____
ROOT
ATOM      1  C   UNL A   1     -26.472  -3.873  29.873  0.00  0.00    +0.000 A 
ATOM      2  C   UNL A   1     -26.175  -4.839  29.574  0.00  0.00    +0.000 A 
ATOM      3  C   UNL A   1     -25.554  -2.816  29.691  0.00  0.00    +0.000 A 
ATOM      4  C   UNL A   1     -24.299  -3.023  29.154  0.00  0.00    +0.000 A 
ATOM      5  C   UNL A   1     -23.992  -4.322  28.783  0.00  0.00    +0.000 A 
ATOM      6  C   UNL A   1     -24.947  -5.308  28.949  0.00  0.00    +0.000 A 
ATOM      7  C   UNL A   1     -25.857  -1.389  30.057  0.00  0.00    +0.000 A 
ATOM      8  C   UNL A   1     -24.808  -0.435  29.905  0.00  0.00    +0.000 A 
ATOM      9  C   UNL A   1     -23.613  -0.720  29.322  0.00  0.00    +0.000 A 
ATOM     10  C   UNL A   1     -23.313  -2.035  28.975  0.00  0.00    +0.000 A 
ENDROOT
TORSDOF 0
ENDMDL
ENDMDL
