REMARK  Name = No_1241-gen_results/8p0m/2024-11-26-14-13-15/
REMARK  0 active torsions:
REMARK  status: ('A' for Active; 'I' for Inactive)
REMARK                            x       y       z     vdW  Elec       q    Type
REMARK                         _______ _______ _______ _____ _____    ______ ____
ROOT
ATOM      1  C   UNL A   1     -28.016  -0.814  28.878  0.00  0.00    +0.000 A 
ATOM      2  C   UNL A   1     -28.469  -0.785  29.829  0.00  0.00    +0.000 A 
ATOM      3  C   UNL A   1     -27.136   0.236  28.535  0.00  0.00    +0.000 A 
ATOM      4  C   UNL A   1     -26.875   1.282  29.398  0.00  0.00    +0.000 A 
ATOM      5  C   UNL A   1     -27.507   1.238  30.630  0.00  0.00    +0.000 A 
ATOM      6  C   UNL A   1     -28.327   0.164  30.924  0.00  0.00    +0.000 A 
ATOM      7  C   UNL A   1     -26.411   0.307  27.219  0.00  0.00    +0.000 A 
ATOM      8  C   UNL A   1     -25.622   1.468  26.966  0.00  0.00    +0.000 A 
ATOM      9  C   UNL A   1     -25.384   2.431  27.896  0.00  0.00    +0.000 A 
ATOM     10  C   UNL A   1     -26.045   2.383  29.121  0.00  0.00    +0.000 A 
ENDROOT
TORSDOF 0
