MODEL 1242
MODEL 1
REMARK VINA RESULT:    -6.167      0.000      0.000
REMARK INTER + INTRA:          -8.140
REMARK INTER:                  -7.248
REMARK INTRA:                  -0.892
REMARK UNBOUND:                -0.892
REMARK  Name = No_1242-gen_results/8p0m/2024-11-26-14-13-15/
REMARK  3 active torsions:
REMARK  status: ('A' for Active; 'I' for Inactive)
REMARK    1  A    between atoms: C_2  and  C_3
REMARK    2  A    between atoms: N_4  and  C_10
REMARK    3  A    between atoms: C_5  and  C_18
REMARK                            x       y       z     vdW  Elec       q    Type
REMARK                         _______ _______ _______ _____ _____    ______ ____
ROOT
ATOM      1  O   UNL A   1     -25.203   1.459  30.299  0.00  0.00    -0.270 OA
ATOM      2  C   UNL A   1     -25.122   0.443  29.761  0.00  0.00    +0.253 C 
ATOM      3  N   UNL A   1     -25.032  -0.848  30.468  0.00  0.00    -0.253 N 
ATOM      4  C   UNL A   1     -24.998  -0.665  31.940  0.00  0.00    +0.120 C 
ENDROOT
BRANCH   2   5
ATOM      5  C   UNL A   1     -25.246   0.342  28.390  0.00  0.00    +0.051 A 
ATOM      6  C   UNL A   1     -26.492   0.359  27.711  0.00  0.00    +0.023 A 
ATOM      7  C   UNL A   1     -26.552   0.227  26.300  0.00  0.00    +0.002 A 
ATOM      8  C   UNL A   1     -25.412   0.445  25.537  0.00  0.00    -0.000 A 
ATOM      9  C   UNL A   1     -24.216   0.691  26.198  0.00  0.00    -0.004 A 
ATOM     10  C   UNL A   1     -24.080   0.656  27.552  0.00  0.00    -0.017 A 
ATOM     11  C   UNL A   1     -22.773   0.877  28.137  0.00  0.00    +0.031 C 
BRANCH   6  12
ATOM     12  C   UNL A   1     -27.712   0.104  28.453  0.00  0.00    +0.093 C 
ATOM     13  N   UNL A   1     -28.765   0.111  27.955  0.00  0.00    -0.267 NA
ATOM     14  C   UNL A   1     -30.044  -0.005  28.559  0.00  0.00    +0.152 C 
ENDBRANCH   6  12
ENDBRANCH   2   5
BRANCH   3  15
ATOM     15  C   UNL A   1     -24.989  -2.143  29.954  0.00  0.00    +0.054 A 
ATOM     16  C   UNL A   1     -26.017  -2.799  30.092  0.00  0.00    +0.015 A 
ATOM     17  C   UNL A   1     -26.087  -4.198  29.592  0.00  0.00    +0.001 A 
ATOM     18  C   UNL A   1     -24.927  -4.717  28.922  0.00  0.00    +0.000 A 
ATOM     19  C   UNL A   1     -23.845  -3.867  28.758  0.00  0.00    +0.001 A 
ATOM     20  C   UNL A   1     -23.841  -2.577  29.253  0.00  0.00    +0.015 A 
ENDBRANCH   3  15
TORSDOF 3
ENDMDL
ENDMDL
