REMARK  Name = No_1242-gen_results/8p0m/2024-11-26-14-13-15/
REMARK  3 active torsions:
REMARK  status: ('A' for Active; 'I' for Inactive)
REMARK    1  A    between atoms: C_2  and  C_3
REMARK    2  A    between atoms: N_4  and  C_10
REMARK    3  A    between atoms: C_5  and  C_18
REMARK                            x       y       z     vdW  Elec       q    Type
REMARK                         _______ _______ _______ _____ _____    ______ ____
ROOT
ATOM      1  O   UNL A   1     -28.123  -1.335  28.487  0.00  0.00    -0.270 OA
ATOM      2  C   UNL A   1     -27.481  -0.404  28.709  0.00  0.00    +0.253 C 
ATOM      3  N   UNL A   1     -27.666   0.447  29.899  0.00  0.00    -0.253 N 
ATOM      4  C   UNL A   1     -28.809  -0.011  30.728  0.00  0.00    +0.120 C 
ENDROOT
BRANCH   2   5
ATOM      5  C   UNL A   1     -26.380  -0.087  27.939  0.00  0.00    +0.051 A 
ATOM      6  C   UNL A   1     -26.409   0.857  26.880  0.00  0.00    +0.023 A 
ATOM      7  C   UNL A   1     -25.247   1.120  26.110  0.00  0.00    +0.002 A 
ATOM      8  C   UNL A   1     -23.999   0.750  26.596  0.00  0.00    -0.000 A 
ATOM      9  C   UNL A   1     -23.941   0.039  27.787  0.00  0.00    -0.004 A 
ATOM     10  C   UNL A   1     -25.042  -0.384  28.468  0.00  0.00    -0.017 A 
ATOM     11  C   UNL A   1     -24.868  -1.165  29.676  0.00  0.00    +0.031 C 
BRANCH   6  12
ATOM     12  C   UNL A   1     -27.683   1.253  26.312  0.00  0.00    +0.093 C 
ATOM     13  N   UNL A   1     -28.423   1.967  26.861  0.00  0.00    -0.267 NA
ATOM     14  C   UNL A   1     -29.739   2.351  26.493  0.00  0.00    +0.152 C 
ENDBRANCH   6  12
ENDBRANCH   2   5
BRANCH   3  15
ATOM     15  C   UNL A   1     -26.935   1.556  30.322  0.00  0.00    +0.054 A 
ATOM     16  C   UNL A   1     -27.046   1.838  31.511  0.00  0.00    +0.015 A 
ATOM     17  C   UNL A   1     -26.321   3.007  32.076  0.00  0.00    +0.001 A 
ATOM     18  C   UNL A   1     -25.475   3.751  31.184  0.00  0.00    +0.000 A 
ATOM     19  C   UNL A   1     -25.367   3.304  29.877  0.00  0.00    +0.001 A 
ATOM     20  C   UNL A   1     -26.074   2.211  29.413  0.00  0.00    +0.015 A 
ENDBRANCH   3  15
TORSDOF 3
