MODEL 1243
MODEL 1
REMARK VINA RESULT:    -7.989      0.000      0.000
REMARK INTER + INTRA:         -12.889
REMARK INTER:                 -11.258
REMARK INTRA:                  -1.631
REMARK UNBOUND:                -1.631
REMARK  Name = No_1243-gen_results/8p0m/2024-11-26-14-13-15/
REMARK  7 active torsions:
REMARK  status: ('A' for Active; 'I' for Inactive)
REMARK    1  A    between atoms: C_2  and  C_3
REMARK    2  A    between atoms: N_4  and  C_10
REMARK    3  A    between atoms: N_4  and  C_11
REMARK    4  A    between atoms: C_5  and  C_34
REMARK    5  A    between atoms: C_9  and  C_20
REMARK    6  A    between atoms: C_15  and  C_17
REMARK    7  A    between atoms: C_24  and  C_26
REMARK                            x       y       z     vdW  Elec       q    Type
REMARK                         _______ _______ _______ _____ _____    ______ ____
ROOT
ATOM      1  O   UNL A   1      -8.281   0.593  38.489  0.00  0.00    -0.269 OA
ATOM      2  C   UNL A   1      -8.871   1.006  37.589  0.00  0.00    +0.256 C 
ATOM      3  N   UNL A   1     -10.247   0.592  37.261  0.00  0.00    -0.234 N 
ENDROOT
BRANCH   2   4
ATOM      4  C   UNL A   1      -8.379   2.040  36.818  0.00  0.00    +0.051 A 
ATOM      5  C   UNL A   1      -8.847   3.267  37.047  0.00  0.00    -0.002 A 
ATOM      6  C   UNL A   1      -8.376   4.472  36.374  0.00  0.00    -0.003 A 
ATOM      7  C   UNL A   1      -7.755   4.202  35.131  0.00  0.00    -0.000 A 
ATOM      8  C   UNL A   1      -7.333   2.919  34.808  0.00  0.00    +0.000 A 
ATOM      9  C   UNL A   1      -7.667   1.855  35.584  0.00  0.00    +0.004 A 
BRANCH   9  10
ATOM     10  C   UNL A   1      -7.065   0.552  35.302  0.00  0.00    +0.000 A 
ATOM     11  C   UNL A   1      -7.673  -0.349  34.541  0.00  0.00    +0.000 A 
ATOM     12  C   UNL A   1      -7.084  -1.557  34.338  0.00  0.00    +0.000 A 
ATOM     13  C   UNL A   1      -5.774  -1.871  34.445  0.00  0.00    +0.007 A 
ATOM     14  C   UNL A   1      -5.021  -0.799  35.102  0.00  0.00    +0.080 A 
ATOM     15  C   UNL A   1      -5.653   0.343  35.502  0.00  0.00    +0.007 A 
BRANCH  14  16
ATOM     16  C   UNL A   1      -3.596  -1.114  35.366  0.00  0.00    +0.388 C 
ATOM     17  O   UNL A   1      -3.252  -2.199  35.698  0.00  0.00    -0.241 OA
ATOM     18  O   UNL A   1      -2.687  -0.259  34.973  0.00  0.00    -0.241 OA
ENDBRANCH  14  16
ENDBRANCH   9  10
BRANCH   5  19
ATOM     19  C   UNL A   1      -9.600   3.624  38.330  0.00  0.00    +0.121 C 
ATOM     20 CL   UNL A   1     -10.840   4.554  38.511  0.00  0.00    -0.108 Cl
ENDBRANCH   5  19
ENDBRANCH   2   4
BRANCH   3  21
ATOM     21  C   UNL A   1     -10.829  -0.442  38.077  0.00  0.00    +0.058 A 
ATOM     22  C   UNL A   1     -11.306  -0.159  39.282  0.00  0.00    +0.015 A 
ATOM     23  C   UNL A   1     -11.993  -1.092  39.950  0.00  0.00    +0.001 A 
ATOM     24  C   UNL A   1     -12.214  -2.339  39.377  0.00  0.00    +0.000 A 
ATOM     25  C   UNL A   1     -11.737  -2.638  38.101  0.00  0.00    +0.001 A 
ATOM     26  C   UNL A   1     -11.067  -1.657  37.487  0.00  0.00    +0.015 A 
ENDBRANCH   3  21
BRANCH   3  27
ATOM     27  C   UNL A   1     -10.985   1.133  36.225  0.00  0.00    +0.059 A 
ATOM     28  C   UNL A   1     -10.805   0.961  35.200  0.00  0.00    +0.015 A 
ATOM     29  C   UNL A   1     -11.726   1.512  34.140  0.00  0.00    +0.002 A 
ATOM     30  C   UNL A   1     -12.888   2.138  34.558  0.00  0.00    +0.007 A 
ATOM     31  C   UNL A   1     -13.120   2.255  35.925  0.00  0.00    +0.081 A 
ATOM     32  C   UNL A   1     -12.185   1.769  36.778  0.00  0.00    +0.022 A 
BRANCH  31  33
ATOM     33  C   UNL A   1     -14.368   3.010  36.252  0.00  0.00    +0.388 C 
ATOM     34  O   UNL A   1     -15.044   3.428  35.592  0.00  0.00    -0.241 OA
ATOM     35  O   UNL A   1     -14.474   3.249  37.613  0.00  0.00    -0.241 OA
ENDBRANCH  31  33
ENDBRANCH   3  27
TORSDOF 7
ENDMDL
ENDMDL
