REMARK  Name = No_1244-gen_results/8p0m/2024-11-26-14-13-15/
REMARK  3 active torsions:
REMARK  status: ('A' for Active; 'I' for Inactive)
REMARK    1  A    between atoms: C_3  and  N_11
REMARK    2  A    between atoms: C_17  and  C_18
REMARK    3  A    between atoms: C_18  and  C_19
REMARK                            x       y       z     vdW  Elec       q    Type
REMARK                         _______ _______ _______ _____ _____    ______ ____
ROOT
ATOM      1  C   UNL A   1     -28.016  -0.814  28.878  0.00  0.00    +0.003 A 
ATOM      2  C   UNL A   1     -27.064  -0.119  28.608  0.00  0.00    +0.036 A 
ATOM      3  C   UNL A   1     -27.001   0.691  27.491  0.00  0.00    +0.162 A 
ATOM      4  N   UNL A   1     -25.865   1.038  26.942  0.00  0.00    -0.227 NA
ATOM      5  C   UNL A   1     -27.960  -1.638  30.084  0.00  0.00    +0.000 A 
ATOM      6  C   UNL A   1     -26.749  -1.862  30.729  0.00  0.00    +0.000 A 
ATOM      7  C   UNL A   1     -25.610  -1.230  30.274  0.00  0.00    +0.000 A 
ATOM      8  C   UNL A   1     -25.719  -0.353  29.134  0.00  0.00    +0.004 A 
ATOM      9  C   UNL A   1     -24.626   0.919  27.555  0.00  0.00    +0.079 A 
ATOM     10  C   UNL A   1     -24.532   0.119  28.632  0.00  0.00    +0.018 A 
ATOM     11  C   UNL A   1     -23.196  -0.017  29.289  0.00  0.00    +0.002 A 
ATOM     12  C   UNL A   1     -22.029   0.318  28.602  0.00  0.00    -0.000 A 
ATOM     13  C   UNL A   1     -22.169   1.252  27.509  0.00  0.00    -0.003 A 
ATOM     14  C   UNL A   1     -23.401   1.517  26.944  0.00  0.00    -0.004 A 
ATOM     15  C   UNL A   1     -23.479   2.343  25.756  0.00  0.00    +0.033 C 
ENDROOT
BRANCH   3  16
ATOM     16  N   UNL A   1     -28.083   0.932  26.711  0.00  0.00    -0.229 NA
ATOM     17  C   UNL A   1     -28.519   1.802  26.245  0.00  0.00    +0.079 C 
BRANCH  17  18
ATOM     18  C   UNL A   1     -29.186   2.409  25.693  0.00  0.00    +0.073 C 
BRANCH  18  19
ATOM     19  C   UNL A   1     -30.226   2.093  24.876  0.00  0.00    -0.016 A 
ATOM     20  C   UNL A   1     -31.119   2.982  24.145  0.00  0.00    -0.004 A 
ATOM     21  C   UNL A   1     -31.995   2.605  23.233  0.00  0.00    -0.000 A 
ATOM     22  C   UNL A   1     -32.127   1.200  23.015  0.00  0.00    -0.000 A 
ATOM     23  C   UNL A   1     -31.342   0.315  23.675  0.00  0.00    -0.000 A 
ATOM     24  C   UNL A   1     -31.422  -1.086  23.535  0.00  0.00    -0.000 A 
ATOM     25  C   UNL A   1     -30.354   0.818  24.612  0.00  0.00    -0.004 A 
ATOM     26  C   UNL A   1     -30.507  -1.907  24.259  0.00  0.00    -0.000 A 
ATOM     27  C   UNL A   1     -29.645  -1.233  24.933  0.00  0.00    -0.000 A 
ATOM     28  C   UNL A   1     -29.509  -0.138  25.198  0.00  0.00    -0.000 A 
ENDBRANCH  18  19
ENDBRANCH  17  18
ENDBRANCH   3  16
TORSDOF 3
