MODEL 1244
MODEL 1
REMARK VINA RESULT:    -7.999      0.000      0.000
REMARK INTER + INTRA:         -10.042
REMARK INTER:                  -9.402
REMARK INTRA:                  -0.640
REMARK UNBOUND:                -0.640
REMARK  Name = No_1244-gen_results/8p0m/2024-11-26-14-13-15/
REMARK  3 active torsions:
REMARK  status: ('A' for Active; 'I' for Inactive)
REMARK    1  A    between atoms: C_3  and  N_11
REMARK    2  A    between atoms: C_17  and  C_18
REMARK    3  A    between atoms: C_18  and  C_19
REMARK                            x       y       z     vdW  Elec       q    Type
REMARK                         _______ _______ _______ _____ _____    ______ ____
ROOT
ATOM      1  C   UNL A   1     -32.160  -6.442  10.999  0.00  0.00    +0.003 A 
ATOM      2  C   UNL A   1     -31.402  -6.856  10.153  0.00  0.00    +0.036 A 
ATOM      3  C   UNL A   1     -30.943  -8.158  10.109  0.00  0.00    +0.162 A 
ATOM      4  N   UNL A   1     -29.806  -8.481   9.547  0.00  0.00    -0.227 NA
ATOM      5  C   UNL A   1     -32.567  -5.039  10.947  0.00  0.00    +0.000 A 
ATOM      6  C   UNL A   1     -31.873  -4.133  10.153  0.00  0.00    +0.000 A 
ATOM      7  C   UNL A   1     -30.849  -4.584   9.344  0.00  0.00    +0.000 A 
ATOM      8  C   UNL A   1     -30.534  -5.991   9.355  0.00  0.00    +0.004 A 
ATOM      9  C   UNL A   1     -29.097  -7.661   8.681  0.00  0.00    +0.079 A 
ATOM     10  C   UNL A   1     -29.409  -6.353   8.656  0.00  0.00    +0.018 A 
ATOM     11  C   UNL A   1     -28.640  -5.467   7.729  0.00  0.00    +0.002 A 
ATOM     12  C   UNL A   1     -27.401  -5.868   7.228  0.00  0.00    -0.000 A 
ATOM     13  C   UNL A   1     -27.149  -7.290   7.191  0.00  0.00    -0.003 A 
ATOM     14  C   UNL A   1     -27.912  -8.174   7.928  0.00  0.00    -0.004 A 
ATOM     15  C   UNL A   1     -27.534  -9.571   7.982  0.00  0.00    +0.033 C 
ENDROOT
BRANCH   3  16
ATOM     16  N   UNL A   1     -31.464  -9.135  10.891  0.00  0.00    -0.229 NA
ATOM     17  C   UNL A   1     -31.342 -10.204  10.974  0.00  0.00    +0.079 C 
BRANCH  17  18
ATOM     18  C   UNL A   1     -31.474 -11.201  11.301  0.00  0.00    +0.073 C 
BRANCH  18  19
ATOM     19  C   UNL A   1     -31.526 -12.375  10.618  0.00  0.00    -0.016 A 
ATOM     20  C   UNL A   1     -32.009 -12.627   9.267  0.00  0.00    -0.004 A 
ATOM     21  C   UNL A   1     -31.868 -13.759   8.603  0.00  0.00    -0.000 A 
ATOM     22  C   UNL A   1     -31.265 -14.844   9.309  0.00  0.00    -0.000 A 
ATOM     23  C   UNL A   1     -30.811 -14.685  10.576  0.00  0.00    -0.000 A 
ATOM     24  C   UNL A   1     -30.224 -15.707  11.350  0.00  0.00    -0.000 A 
ATOM     25  C   UNL A   1     -30.943 -13.386  11.209  0.00  0.00    -0.004 A 
ATOM     26  C   UNL A   1     -29.749 -15.397  12.659  0.00  0.00    -0.000 A 
ATOM     27  C   UNL A   1     -29.865 -14.153  12.959  0.00  0.00    -0.000 A 
ATOM     28  C   UNL A   1     -30.373 -13.256  12.486  0.00  0.00    -0.000 A 
ENDBRANCH  18  19
ENDBRANCH  17  18
ENDBRANCH   3  16
TORSDOF 3
ENDMDL
ENDMDL
