MODEL 1245
MODEL 1
REMARK VINA RESULT:    -3.466      0.000      0.000
REMARK INTER + INTRA:          -3.770
REMARK INTER:                  -3.669
REMARK INTRA:                  -0.101
REMARK UNBOUND:                -0.101
REMARK  Name = No_1245-gen_results/8p0m/2024-11-26-14-13-15/
REMARK  1 active torsions:
REMARK  status: ('A' for Active; 'I' for Inactive)
REMARK    1  A    between atoms: C_2  and  C_3
REMARK                            x       y       z     vdW  Elec       q    Type
REMARK                         _______ _______ _______ _____ _____    ______ ____
ROOT
ATOM      1  O   UNL A   1     -27.647 -12.506  34.624  0.00  0.00    -0.254 OA
ATOM      2  C   UNL A   1     -27.232 -11.983  33.584  0.00  0.00    +0.333 C 
ATOM      3  F   UNL A   1     -26.331 -10.959  33.758  0.00  0.00    -0.159 F 
ENDROOT
BRANCH   2   4
ATOM      4  C   UNL A   1     -27.302 -12.498  32.412  0.00  0.00    +0.069 C 
ATOM      5  C   UNL A   1     -28.015 -11.893  31.350  0.00  0.00    -0.020 C 
ATOM      6  C   UNL A   1     -29.080 -10.931  31.809  0.00  0.00    +0.031 C 
ENDBRANCH   2   4
TORSDOF 1
ENDMDL
ENDMDL
