REMARK  Name = No_1246-gen_results/8p0m/2024-11-26-14-13-15/
REMARK  1 active torsions:
REMARK  status: ('A' for Active; 'I' for Inactive)
REMARK    1  A    between atoms: C_4  and  C_11
REMARK                            x       y       z     vdW  Elec       q    Type
REMARK                         _______ _______ _______ _____ _____    ______ ____
ROOT
ATOM      1  C   UNL A   1     -24.591   1.591  27.992  0.00  0.00    +0.253 C 
ATOM      2  N   UNL A   1     -24.791   2.652  28.527  0.00  0.00    -0.256 N 
ATOM      3  O   UNL A   1     -24.428   1.486  26.733  0.00  0.00    -0.270 OA
ATOM      4  C   UNL A   1     -24.888   3.984  27.859  0.00  0.00    +0.099 C 
ATOM      5  C   UNL A   1     -25.014   2.866  30.049  0.00  0.00    +0.050 A 
ATOM      6  C   UNL A   1     -26.002   3.883  30.391  0.00  0.00    -0.008 A 
ATOM      7  C   UNL A   1     -26.322   3.792  31.705  0.00  0.00    -0.003 A 
ATOM      8  C   UNL A   1     -25.974   2.745  32.435  0.00  0.00    -0.000 A 
ATOM      9  C   UNL A   1     -25.054   1.783  32.049  0.00  0.00    +0.001 A 
ATOM     10  C   UNL A   1     -24.634   1.848  30.793  0.00  0.00    +0.015 A 
ATOM     11  C   UNL A   1     -26.364   4.865  29.506  0.00  0.00    +0.029 C 
ATOM     12  C   UNL A   1     -25.764   4.955  28.240  0.00  0.00    +0.027 C 
ENDROOT
BRANCH   1  16
ATOM     13  C   UNL A   1     -28.016  -0.814  28.878  0.00  0.00    +0.000 A 
ATOM     14  C   UNL A   1     -27.064  -0.119  28.608  0.00  0.00    +0.000 A 
ATOM     15  C   UNL A   1     -25.792  -0.430  29.076  0.00  0.00    +0.004 A 
ATOM     16  C   UNL A   1     -24.546   0.349  28.823  0.00  0.00    +0.054 A 
ATOM     17  C   UNL A   1     -23.241   0.022  29.332  0.00  0.00    +0.004 A 
ATOM     18  C   UNL A   1     -23.193  -1.282  29.897  0.00  0.00    +0.000 A 
ATOM     19  C   UNL A   1     -27.870  -1.914  29.864  0.00  0.00    +0.000 A 
ATOM     20  C   UNL A   1     -26.631  -2.326  30.299  0.00  0.00    +0.000 A 
ATOM     21  C   UNL A   1     -25.512  -1.573  29.965  0.00  0.00    +0.000 A 
ATOM     22  C   UNL A   1     -24.217  -1.967  30.325  0.00  0.00    +0.000 A 
ENDBRANCH   1  16
TORSDOF 1
