MODEL 1247
MODEL 1
REMARK VINA RESULT:    -6.257      0.000      0.000
REMARK INTER + INTRA:          -7.876
REMARK INTER:                  -7.721
REMARK INTRA:                  -0.156
REMARK UNBOUND:                -0.156
REMARK  Name = No_1247-gen_results/8p0m/2024-11-26-14-13-15/
REMARK  4 active torsions:
REMARK  status: ('A' for Active; 'I' for Inactive)
REMARK    1  A    between atoms: C_1  and  C_2
REMARK    2  A    between atoms: C_8  and  C_12
REMARK    3  A    between atoms: C_12  and  C_13
REMARK    4  A    between atoms: C_13  and  C_14
REMARK                            x       y       z     vdW  Elec       q    Type
REMARK                         _______ _______ _______ _____ _____    ______ ____
ROOT
ATOM      1  C   UNL A   1     -23.003   1.908  27.343  0.00  0.00    +0.334 C 
ATOM      2  O   UNL A   1     -24.073   2.478  28.013  0.00  0.00    -0.321 OA
ATOM      3  O   UNL A   1     -22.723   0.954  27.906  0.00  0.00    -0.321 OA
ATOM      4  C   UNL A   1     -23.738   0.203  28.450  0.00  0.00    +0.181 C 
ATOM      5  C   UNL A   1     -24.204   0.987  29.498  0.00  0.00    +0.211 C 
ATOM      6  C   UNL A   1     -24.737   2.224  29.083  0.00  0.00    +0.180 C 
ATOM      7  O   UNL A   1     -23.198   1.124  30.572  0.00  0.00    -0.218 OA
ENDROOT
BRANCH   1   8
ATOM      8  C   UNL A   1     -23.055   2.081  26.147  0.00  0.00    +0.450 C 
ATOM      9  F   UNL A   1     -23.593   3.151  25.823  0.00  0.00    -0.165 F 
ATOM     10  F   UNL A   1     -21.734   2.136  25.583  0.00  0.00    -0.165 F 
ATOM     11  F   UNL A   1     -23.748   1.346  25.403  0.00  0.00    -0.165 F 
ENDBRANCH   1   8
BRANCH   4  12
ATOM     12  C   UNL A   1     -23.165  -1.218  28.704  0.00  0.00    +0.186 C 
ATOM     13  O   UNL A   1     -21.783  -1.025  29.010  0.00  0.00    -0.220 OA
BRANCH  12  14
ATOM     14  C   UNL A   1     -23.771  -1.877  29.823  0.00  0.00    +0.061 C 
BRANCH  14  15
ATOM     15  C   UNL A   1     -24.481  -2.964  29.679  0.00  0.00    -0.028 C 
ATOM     16  C   UNL A   1     -24.099  -4.023  28.990  0.00  0.00    -0.030 C 
ATOM     17  C   UNL A   1     -24.870  -5.223  28.987  0.00  0.00    +0.030 C 
ENDBRANCH  14  15
ENDBRANCH  12  14
ENDBRANCH   4  12
TORSDOF 4
ENDMDL
ENDMDL
