REMARK  Name = No_1247-gen_results/8p0m/2024-11-26-14-13-15/
REMARK  4 active torsions:
REMARK  status: ('A' for Active; 'I' for Inactive)
REMARK    1  A    between atoms: C_1  and  C_2
REMARK    2  A    between atoms: C_8  and  C_12
REMARK    3  A    between atoms: C_12  and  C_13
REMARK    4  A    between atoms: C_13  and  C_14
REMARK                            x       y       z     vdW  Elec       q    Type
REMARK                         _______ _______ _______ _____ _____    ______ ____
ROOT
ATOM      1  C   UNL A   1     -28.016  -0.814  28.878  0.00  0.00    +0.334 C 
ATOM      2  O   UNL A   1     -28.669  -0.404  30.029  0.00  0.00    -0.321 OA
ATOM      3  O   UNL A   1     -28.811  -1.227  28.169  0.00  0.00    -0.321 OA
ATOM      4  C   UNL A   1     -30.037  -0.606  28.140  0.00  0.00    +0.181 C 
ATOM      5  C   UNL A   1     -30.601  -0.931  29.368  0.00  0.00    +0.211 C 
ATOM      6  C   UNL A   1     -29.875  -0.435  30.470  0.00  0.00    +0.180 C 
ATOM      7  O   UNL A   1     -30.895  -2.375  29.473  0.00  0.00    -0.218 OA
ENDROOT
BRANCH   1   8
ATOM      8  C   UNL A   1     -27.064  -0.119  28.608  0.00  0.00    +0.450 C 
ATOM      9  F   UNL A   1     -27.079   0.985  29.174  0.00  0.00    -0.165 F 
ATOM     10  F   UNL A   1     -25.841  -0.744  29.031  0.00  0.00    -0.165 F 
ATOM     11  F   UNL A   1     -26.876   0.321  27.448  0.00  0.00    -0.165 F 
ENDBRANCH   1   8
BRANCH   4  12
ATOM     12  C   UNL A   1     -30.723  -1.017  26.808  0.00  0.00    +0.186 C 
ATOM     13  O   UNL A   1     -32.123  -0.839  27.027  0.00  0.00    -0.220 OA
BRANCH  12  14
ATOM     14  C   UNL A   1     -30.346  -0.187  25.702  0.00  0.00    +0.061 C 
BRANCH  14  15
ATOM     15  C   UNL A   1     -30.154   1.097  25.840  0.00  0.00    -0.028 C 
ATOM     16  C   UNL A   1     -31.087   1.960  26.196  0.00  0.00    -0.030 C 
ATOM     17  C   UNL A   1     -30.772   3.327  26.455  0.00  0.00    +0.030 C 
ENDBRANCH  14  15
ENDBRANCH  12  14
ENDBRANCH   4  12
TORSDOF 4
