REMARK  Name = No_1248-gen_results/8p0m/2024-11-26-14-13-15/
REMARK  2 active torsions:
REMARK  status: ('A' for Active; 'I' for Inactive)
REMARK    1  A    between atoms: C_1  and  C_3
REMARK    2  A    between atoms: C_6  and  C_15
REMARK                            x       y       z     vdW  Elec       q    Type
REMARK                         _______ _______ _______ _____ _____    ______ ____
ROOT
ATOM      1  C   UNL A   1     -28.016  -0.814  28.878  0.00  0.00    +0.001 A 
ATOM      2  C   UNL A   1     -28.469  -0.785  29.829  0.00  0.00    +0.007 A 
ATOM      3  C   UNL A   1     -28.308  -1.988  30.863  0.00  0.00    +0.081 A 
ATOM      4  C   UNL A   1     -27.528  -3.019  30.360  0.00  0.00    +0.018 A 
ATOM      5  C   UNL A   1     -26.739  -2.848  29.272  0.00  0.00    +0.058 A 
ATOM      6  C   UNL A   1     -26.909  -1.658  28.534  0.00  0.00    +0.011 A 
ATOM      7 CL   UNL A   1     -25.553  -3.986  28.899  0.00  0.00    -0.082 Cl
ENDROOT
BRANCH   1   8
ATOM      8  C   UNL A   1     -28.182   0.428  28.113  0.00  0.00    +0.002 A 
ATOM      9  C   UNL A   1     -27.450   0.643  26.850  0.00  0.00    +0.030 A 
ATOM     10  C   UNL A   1     -27.860   1.457  25.908  0.00  0.00    +0.140 A 
ATOM     11  C   UNL A   1     -28.972   2.347  26.122  0.00  0.00    +0.030 A 
ATOM     12  C   UNL A   1     -29.623   2.220  27.332  0.00  0.00    +0.002 A 
ATOM     13  C   UNL A   1     -29.285   1.235  28.272  0.00  0.00    +0.000 A 
ATOM     14  F   UNL A   1     -27.120   1.657  24.808  0.00  0.00    -0.204 F 
ENDBRANCH   1   8
BRANCH   3  15
ATOM     15  C   UNL A   1     -29.172  -2.223  32.039  0.00  0.00    +0.388 C 
ATOM     16  O   UNL A   1     -29.017  -1.470  32.949  0.00  0.00    -0.241 OA
ATOM     17  O   UNL A   1     -30.141  -3.011  31.918  0.00  0.00    -0.241 OA
ENDBRANCH   3  15
TORSDOF 2
