MODEL 1248
MODEL 1
REMARK VINA RESULT:    -7.162      0.000      0.000
REMARK INTER + INTRA:          -8.444
REMARK INTER:                  -8.000
REMARK INTRA:                  -0.444
REMARK UNBOUND:                -0.444
REMARK  Name = No_1248-gen_results/8p0m/2024-11-26-14-13-15/
REMARK  2 active torsions:
REMARK  status: ('A' for Active; 'I' for Inactive)
REMARK    1  A    between atoms: C_1  and  C_3
REMARK    2  A    between atoms: C_6  and  C_15
REMARK                            x       y       z     vdW  Elec       q    Type
REMARK                         _______ _______ _______ _____ _____    ______ ____
ROOT
ATOM      1  C   UNL A   1     -29.265 -10.890  30.586  0.00  0.00    +0.001 A 
ATOM      2  C   UNL A   1     -28.732 -11.667  31.059  0.00  0.00    +0.007 A 
ATOM      3  C   UNL A   1     -28.285 -11.558  32.585  0.00  0.00    +0.081 A 
ATOM      4  C   UNL A   1     -28.677 -10.362  33.168  0.00  0.00    +0.018 A 
ATOM      5  C   UNL A   1     -29.611  -9.564  32.597  0.00  0.00    +0.058 A 
ATOM      6  C   UNL A   1     -30.006  -9.877  31.279  0.00  0.00    +0.011 A 
ATOM      7 CL   UNL A   1     -30.317  -8.317  33.484  0.00  0.00    -0.082 Cl
ENDROOT
BRANCH   1   8
ATOM      8  C   UNL A   1     -29.686 -11.219  29.218  0.00  0.00    +0.002 A 
ATOM      9  C   UNL A   1     -30.637 -10.356  28.491  0.00  0.00    +0.030 A 
ATOM     10  C   UNL A   1     -30.707 -10.301  27.183  0.00  0.00    +0.140 A 
ATOM     11  C   UNL A   1     -29.976 -11.227  26.357  0.00  0.00    +0.030 A 
ATOM     12  C   UNL A   1     -29.140 -12.100  27.022  0.00  0.00    +0.002 A 
ATOM     13  C   UNL A   1     -28.942 -12.047  28.410  0.00  0.00    +0.000 A 
ATOM     14  F   UNL A   1     -31.633  -9.543  26.580  0.00  0.00    -0.204 F 
ENDBRANCH   1   8
BRANCH   3  15
ATOM     15  C   UNL A   1     -27.246 -12.387  33.231  0.00  0.00    +0.388 C 
ATOM     16  O   UNL A   1     -26.427 -12.847  32.498  0.00  0.00    -0.241 OA
ATOM     17  O   UNL A   1     -27.152 -12.357  34.482  0.00  0.00    -0.241 OA
ENDBRANCH   3  15
TORSDOF 2
ENDMDL
ENDMDL
