REMARK  Name = No_1249-gen_results/8p0m/2024-11-26-14-13-15/
REMARK  4 active torsions:
REMARK  status: ('A' for Active; 'I' for Inactive)
REMARK    1  A    between atoms: C_1  and  O_20
REMARK    2  A    between atoms: C_2  and  C_3
REMARK    3  A    between atoms: C_6  and  C_13
REMARK    4  A    between atoms: O_20  and  C_21
REMARK                            x       y       z     vdW  Elec       q    Type
REMARK                         _______ _______ _______ _____ _____    ______ ____
ROOT
ATOM      1  C   UNL A   1     -28.016  -0.814  28.878  0.00  0.00    +0.145 A 
ATOM      2  C   UNL A   1     -27.064  -0.119  28.608  0.00  0.00    +0.040 A 
ATOM      3  C   UNL A   1     -29.297  -0.184  28.940  0.00  0.00    +0.037 A 
ATOM      4  C   UNL A   1     -29.565   0.800  28.035  0.00  0.00    +0.004 A 
ATOM      5  C   UNL A   1     -28.470   1.441  27.424  0.00  0.00    +0.007 A 
ATOM      6  C   UNL A   1     -27.137   1.079  27.797  0.00  0.00    +0.037 A 
ATOM      7 BR   UNL A   1     -25.692   1.912  27.039  0.00  0.00    -0.049 Br
ENDROOT
BRANCH   2   8
ATOM      8  C   UNL A   1     -25.792  -0.430  29.076  0.00  0.00    +0.003 A 
ATOM      9  C   UNL A   1     -25.270  -0.049  30.012  0.00  0.00    +0.000 A 
ATOM     10  C   UNL A   1     -23.899  -0.356  30.525  0.00  0.00    +0.000 A 
ATOM     11  C   UNL A   1     -23.108  -1.195  29.737  0.00  0.00    +0.000 A 
ATOM     12  C   UNL A   1     -23.642  -1.678  28.592  0.00  0.00    +0.000 A 
ATOM     13  C   UNL A   1     -24.909  -1.330  28.189  0.00  0.00    +0.000 A 
ENDBRANCH   2   8
BRANCH   4  14
ATOM     14  C   UNL A   1     -30.905   1.299  27.773  0.00  0.00    +0.000 A 
ATOM     15  C   UNL A   1     -31.757   1.302  28.703  0.00  0.00    +0.000 A 
ATOM     16  C   UNL A   1     -33.181   1.561  28.450  0.00  0.00    +0.000 A 
ATOM     17  C   UNL A   1     -33.493   1.938  27.142  0.00  0.00    +0.000 A 
ATOM     18  C   UNL A   1     -31.257   1.614  26.450  0.00  0.00    +0.000 A 
ATOM     19  C   UNL A   1     -32.553   1.966  26.168  0.00  0.00    +0.000 A 
ENDBRANCH   4  14
BRANCH   1  20
ATOM     20  O   UNL A   1     -28.028  -1.757  29.875  0.00  0.00    -0.424 OA
BRANCH  20  21
ATOM     21  C   UNL A   1     -29.056  -2.325  30.554  0.00  0.00    +0.509 C 
ATOM     22  F   UNL A   1     -29.224  -3.390  30.004  0.00  0.00    -0.155 F 
ATOM     23  F   UNL A   1     -30.090  -1.603  30.291  0.00  0.00    -0.155 F 
ENDBRANCH  20  21
ENDBRANCH   1  20
TORSDOF 4
