MODEL 1249
MODEL 1
REMARK VINA RESULT:    -7.038      0.000      0.000
REMARK INTER + INTRA:          -9.823
REMARK INTER:                  -8.684
REMARK INTRA:                  -1.138
REMARK UNBOUND:                -1.138
REMARK  Name = No_1249-gen_results/8p0m/2024-11-26-14-13-15/
REMARK  4 active torsions:
REMARK  status: ('A' for Active; 'I' for Inactive)
REMARK    1  A    between atoms: C_1  and  O_20
REMARK    2  A    between atoms: C_2  and  C_3
REMARK    3  A    between atoms: C_6  and  C_13
REMARK    4  A    between atoms: O_20  and  C_21
REMARK                            x       y       z     vdW  Elec       q    Type
REMARK                         _______ _______ _______ _____ _____    ______ ____
ROOT
ATOM      1  C   UNL A   1      -9.876   0.456  36.273  0.00  0.00    +0.145 A 
ATOM      2  C   UNL A   1     -10.110   1.452  35.627  0.00  0.00    +0.040 A 
ATOM      3  C   UNL A   1      -8.843  -0.410  35.800  0.00  0.00    +0.037 A 
ATOM      4  C   UNL A   1      -7.739   0.163  35.241  0.00  0.00    +0.004 A 
ATOM      5  C   UNL A   1      -7.863   1.479  34.754  0.00  0.00    +0.007 A 
ATOM      6  C   UNL A   1      -9.128   2.143  34.817  0.00  0.00    +0.037 A 
ATOM      7 BR   UNL A   1      -9.328   3.845  34.168  0.00  0.00    -0.049 Br
ENDROOT
BRANCH   2   8
ATOM      8  C   UNL A   1     -11.380   2.018  35.615  0.00  0.00    +0.003 A 
ATOM      9  C   UNL A   1     -11.902   2.602  36.439  0.00  0.00    +0.000 A 
ATOM     10  C   UNL A   1     -13.271   3.205  36.455  0.00  0.00    +0.000 A 
ATOM     11  C   UNL A   1     -14.060   2.995  35.322  0.00  0.00    +0.000 A 
ATOM     12  C   UNL A   1     -13.527   2.289  34.299  0.00  0.00    +0.000 A 
ATOM     13  C   UNL A   1     -12.261   1.758  34.377  0.00  0.00    +0.000 A 
ENDBRANCH   2   8
BRANCH   4  14
ATOM     14  C   UNL A   1      -6.497  -0.555  35.012  0.00  0.00    +0.000 A 
ATOM     15  C   UNL A   1      -5.400   0.061  35.102  0.00  0.00    +0.000 A 
ATOM     16  C   UNL A   1      -4.135  -0.536  34.651  0.00  0.00    +0.000 A 
ATOM     17  C   UNL A   1      -4.218  -1.872  34.251  0.00  0.00    +0.000 A 
ATOM     18  C   UNL A   1      -6.563  -1.877  34.541  0.00  0.00    +0.000 A 
ATOM     19  C   UNL A   1      -5.402  -2.525  34.201  0.00  0.00    +0.000 A 
ENDBRANCH   4  14
BRANCH   1  20
ATOM     20  O   UNL A   1     -10.838  -0.376  36.789  0.00  0.00    -0.424 OA
BRANCH  20  21
ATOM     21  C   UNL A   1     -10.830  -1.180  37.881  0.00  0.00    +0.509 C 
ATOM     22  F   UNL A   1     -11.344  -2.207  37.499  0.00  0.00    -0.155 F 
ATOM     23  F   UNL A   1     -11.649  -0.642  38.718  0.00  0.00    -0.155 F 
ENDBRANCH  20  21
ENDBRANCH   1  20
TORSDOF 4
ENDMDL
ENDMDL
