MODEL 124
MODEL 1
REMARK VINA RESULT:    -5.534      0.000      0.000
REMARK INTER + INTRA:          -5.747
REMARK INTER:                  -6.182
REMARK INTRA:                   0.434
REMARK UNBOUND:                 0.434
REMARK  Name = No_124-gen_results/8p0m/2024-11-26-14-13-15/
REMARK  2 active torsions:
REMARK  status: ('A' for Active; 'I' for Inactive)
REMARK    1  A    between atoms: C_1  and  C_2
REMARK    2  A    between atoms: C_4  and  C_12
REMARK                            x       y       z     vdW  Elec       q    Type
REMARK                         _______ _______ _______ _____ _____    ______ ____
ROOT
ATOM      1  C   UNL A   1     -23.654  -1.492  28.791  0.00  0.00    +0.118 A 
ATOM      2  C   UNL A   1     -24.584  -0.849  27.855  0.00  0.00    +0.008 A 
ATOM      3  C   UNL A   1     -24.272   0.466  27.262  0.00  0.00    +0.005 A 
ATOM      4  C   UNL A   1     -23.495   1.364  28.027  0.00  0.00    +0.139 A 
ATOM      5  C   UNL A   1     -22.861   0.875  29.217  0.00  0.00    +0.071 A 
ATOM      6  C   UNL A   1     -23.046  -0.380  29.628  0.00  0.00    +0.204 A 
ATOM      7  F   UNL A   1     -23.282   2.617  27.677  0.00  0.00    -0.204 F 
ATOM      8  O   UNL A   1     -22.315  -0.639  30.768  0.00  0.00    -0.286 OA
ENDROOT
BRANCH   3   9
ATOM      9  C   UNL A   1     -24.648   1.158  26.033  0.00  0.00    +0.021 C 
ATOM     10  C   UNL A   1     -23.593   1.725  25.416  0.00  0.00    +0.004 C 
ATOM     11  C   UNL A   1     -25.839   2.017  26.338  0.00  0.00    +0.004 C 
ATOM     12  C   UNL A   1     -25.072   0.281  24.801  0.00  0.00    +0.004 C 
ENDBRANCH   3   9
BRANCH   1  13
ATOM     13  C   UNL A   1     -24.054  -2.348  29.259  0.00  0.00    +0.391 C 
ATOM     14  O   UNL A   1     -23.632  -3.628  28.863  0.00  0.00    -0.240 OA
ATOM     15  O   UNL A   1     -24.968  -2.577  30.217  0.00  0.00    -0.240 OA
ENDBRANCH   1  13
TORSDOF 2
ENDMDL
ENDMDL
