REMARK  Name = No_125-gen_results/8p0m/2024-11-26-14-13-15/
REMARK  4 active torsions:
REMARK  status: ('A' for Active; 'I' for Inactive)
REMARK    1  A    between atoms: C_3  and  C_7
REMARK    2  A    between atoms: C_7  and  C_11
REMARK    3  A    between atoms: C_8  and  C_9
REMARK    4  A    between atoms: C_10  and  C_12
REMARK                            x       y       z     vdW  Elec       q    Type
REMARK                         _______ _______ _______ _____ _____    ______ ____
ROOT
ATOM      1  C   UNL A   1     -24.549   0.410  28.734  0.00  0.00    +0.044 C 
ATOM      2  C   UNL A   1     -24.479   1.187  27.684  0.00  0.00    +0.001 C 
ENDROOT
BRANCH   1   5
ATOM      3  C   UNL A   1     -28.016  -0.814  28.878  0.00  0.00    -0.000 A 
ATOM      4  C   UNL A   1     -27.064  -0.119  28.608  0.00  0.00    -0.000 A 
ATOM      5  C   UNL A   1     -25.765  -0.390  29.036  0.00  0.00    +0.001 A 
ATOM      6  C   UNL A   1     -25.530  -1.530  29.901  0.00  0.00    -0.000 A 
ATOM      7  C   UNL A   1     -26.689  -2.289  30.181  0.00  0.00    -0.000 A 
ATOM      8  C   UNL A   1     -27.873  -1.951  29.737  0.00  0.00    -0.000 A 
ENDBRANCH   1   5
BRANCH   1   9
ATOM      9  C   UNL A   1     -23.319   0.179  29.467  0.00  0.00    +0.341 C 
ATOM     10  F   UNL A   1     -23.236  -0.678  30.479  0.00  0.00    -0.193 F 
ATOM     11  F   UNL A   1     -23.630   0.086  30.430  0.00  0.00    -0.193 F 
ENDBRANCH   1   9
BRANCH   2  12
ATOM     12  C   UNL A   1     -23.272   1.897  27.373  0.00  0.00    -0.002 C 
ATOM     13  C   UNL A   1     -22.106   1.703  28.041  0.00  0.00    +0.012 C 
BRANCH  13  14
ATOM     14  C   UNL A   1     -22.116   0.840  29.101  0.00  0.00    +0.220 C 
ATOM     15  F   UNL A   1     -20.970   0.620  29.673  0.00  0.00    -0.229 F 
ENDBRANCH  13  14
ENDBRANCH   2  12
TORSDOF 4
