MODEL 1250
MODEL 1
REMARK VINA RESULT:    -5.636      0.000      0.000
REMARK INTER + INTRA:          -5.987
REMARK INTER:                  -5.965
REMARK INTRA:                  -0.022
REMARK UNBOUND:                -0.022
REMARK  Name = No_1250-gen_results/8p0m/2024-11-26-14-13-15/
REMARK  1 active torsions:
REMARK  status: ('A' for Active; 'I' for Inactive)
REMARK    1  A    between atoms: C_3  and  C_8
REMARK                            x       y       z     vdW  Elec       q    Type
REMARK                         _______ _______ _______ _____ _____    ______ ____
ROOT
ATOM      1  C   UNL A   1      -9.026 -11.029  17.852  0.00  0.00    +0.043 A 
ATOM      2  C   UNL A   1      -8.110 -10.831  18.617  0.00  0.00    +0.014 A 
ATOM      3  C   UNL A   1      -8.226  -9.912  19.654  0.00  0.00    +0.069 A 
ATOM      4  C   UNL A   1      -9.425  -9.132  19.822  0.00  0.00    +0.014 A 
ATOM      5  C   UNL A   1     -10.425  -9.407  18.879  0.00  0.00    +0.043 A 
ATOM      6  C   UNL A   1     -10.259 -10.275  17.907  0.00  0.00    +0.196 A 
ATOM      7  O   UNL A   1     -11.267 -10.455  17.010  0.00  0.00    -0.287 OA
ENDROOT
BRANCH   3   8
ATOM      8  C   UNL A   1      -7.164  -9.586  20.675  0.00  0.00    +0.100 C 
ATOM      9  N   UNL A   1      -6.734 -10.490  21.411  0.00  0.00    -0.191 NA
ENDBRANCH   3   8
TORSDOF 1
ENDMDL
ENDMDL
