MODEL 1251
MODEL 1
REMARK VINA RESULT:    -4.255      0.000      0.000
REMARK INTER + INTRA:          -4.255
REMARK INTER:                  -4.255
REMARK INTRA:                   0.000
REMARK UNBOUND:                 0.000
REMARK  Name = No_1251-gen_results/8p0m/2024-11-26-14-13-15/
REMARK  0 active torsions:
REMARK  status: ('A' for Active; 'I' for Inactive)
REMARK                            x       y       z     vdW  Elec       q    Type
REMARK                         _______ _______ _______ _____ _____    ______ ____
ROOT
ATOM      1  C   UNL A   1     -24.082  -4.777  28.573  0.00  0.00    +0.000 A 
ATOM      2  C   UNL A   1     -24.951  -5.233  28.956  0.00  0.00    +0.000 A 
ATOM      3  C   UNL A   1     -24.065  -3.323  28.732  0.00  0.00    +0.000 A 
ATOM      4  C   UNL A   1     -25.088  -2.644  29.346  0.00  0.00    +0.000 A 
ATOM      5  C   UNL A   1     -26.162  -4.782  29.642  0.00  0.00    +0.000 A 
ATOM      6  C   UNL A   1     -26.155  -3.375  29.801  0.00  0.00    +0.000 A 
ENDROOT
TORSDOF 0
ENDMDL
ENDMDL
