MODEL 1252
MODEL 1
REMARK VINA RESULT:    -5.970      0.000      0.000
REMARK INTER + INTRA:          -7.185
REMARK INTER:                  -7.017
REMARK INTRA:                  -0.168
REMARK UNBOUND:                -0.168
REMARK  Name = No_1252-gen_results/8p0m/2024-11-26-14-13-15/
REMARK  3 active torsions:
REMARK  status: ('A' for Active; 'I' for Inactive)
REMARK    1  A    between atoms: C_3  and  C_11
REMARK    2  A    between atoms: C_11  and  N_12
REMARK    3  A    between atoms: N_12  and  C_13
REMARK                            x       y       z     vdW  Elec       q    Type
REMARK                         _______ _______ _______ _____ _____    ______ ____
ROOT
ATOM      1  C   UNL A   1     -22.033   0.369  28.929  0.00  0.00    -0.000 A 
ATOM      2  C   UNL A   1     -22.515  -0.594  29.480  0.00  0.00    -0.003 A 
ATOM      3  C   UNL A   1     -23.746  -1.127  29.150  0.00  0.00    -0.001 A 
ATOM      4  C   UNL A   1     -24.463  -0.531  28.075  0.00  0.00    -0.003 A 
ATOM      5  C   UNL A   1     -23.809   0.430  27.382  0.00  0.00    -0.000 A 
ATOM      6  C   UNL A   1     -22.613   0.851  27.746  0.00  0.00    -0.000 A 
ATOM      7  C   UNL A   1     -24.558   1.016  26.251  0.00  0.00    -0.000 A 
ATOM      8  C   UNL A   1     -23.958   1.975  25.617  0.00  0.00    -0.000 A 
ATOM      9  C   UNL A   1     -22.619   2.293  25.822  0.00  0.00    -0.000 A 
ATOM     10  C   UNL A   1     -21.983   1.830  26.933  0.00  0.00    -0.000 A 
ENDROOT
BRANCH   3  11
ATOM     11  C   UNL A   1     -24.403  -2.213  30.018  0.00  0.00    +0.139 C 
BRANCH  11  12
ATOM     12  N   UNL A   1     -24.233  -3.398  29.609  0.00  0.00    -0.232 NA
BRANCH  12  13
ATOM     13  C   UNL A   1     -25.075  -4.135  29.266  0.00  0.00    +0.081 C 
ATOM     14  C   UNL A   1     -24.759  -5.603  28.872  0.00  0.00    +0.019 C 
ENDBRANCH  12  13
ENDBRANCH  11  12
ENDBRANCH   3  11
TORSDOF 3
ENDMDL
ENDMDL
