REMARK  Name = No_1252-gen_results/8p0m/2024-11-26-14-13-15/
REMARK  3 active torsions:
REMARK  status: ('A' for Active; 'I' for Inactive)
REMARK    1  A    between atoms: C_3  and  C_11
REMARK    2  A    between atoms: C_11  and  N_12
REMARK    3  A    between atoms: N_12  and  C_13
REMARK                            x       y       z     vdW  Elec       q    Type
REMARK                         _______ _______ _______ _____ _____    ______ ____
ROOT
ATOM      1  C   UNL A   1     -28.016  -0.814  28.878  0.00  0.00    -0.000 A 
ATOM      2  C   UNL A   1     -27.064  -0.119  28.608  0.00  0.00    -0.003 A 
ATOM      3  C   UNL A   1     -27.001   0.691  27.491  0.00  0.00    -0.001 A 
ATOM      4  C   UNL A   1     -28.137   0.736  26.635  0.00  0.00    -0.003 A 
ATOM      5  C   UNL A   1     -29.236   0.076  27.069  0.00  0.00    -0.000 A 
ATOM      6  C   UNL A   1     -29.218  -0.643  28.175  0.00  0.00    -0.000 A 
ATOM      7  C   UNL A   1     -30.415   0.159  26.182  0.00  0.00    -0.000 A 
ATOM      8  C   UNL A   1     -31.454  -0.516  26.566  0.00  0.00    -0.000 A 
ATOM      9  C   UNL A   1     -31.553  -1.098  27.826  0.00  0.00    -0.000 A 
ATOM     10  C   UNL A   1     -30.430  -1.264  28.577  0.00  0.00    -0.000 A 
ENDROOT
BRANCH   3  11
ATOM     11  C   UNL A   1     -25.691   1.388  27.084  0.00  0.00    +0.139 C 
BRANCH  11  12
ATOM     12  N   UNL A   1     -24.649   0.928  27.634  0.00  0.00    -0.232 NA
BRANCH  12  13
ATOM     13  C   UNL A   1     -23.840   1.552  28.204  0.00  0.00    +0.081 C 
ATOM     14  C   UNL A   1     -22.500   0.917  28.665  0.00  0.00    +0.019 C 
ENDBRANCH  12  13
ENDBRANCH  11  12
ENDBRANCH   3  11
TORSDOF 3
