MODEL 1253
MODEL 1
REMARK VINA RESULT:    -4.416      0.000      0.000
REMARK INTER + INTRA:          -5.131
REMARK INTER:                  -4.932
REMARK INTRA:                  -0.199
REMARK UNBOUND:                -0.199
REMARK  Name = No_1253-gen_results/8p0m/2024-11-26-14-13-15/
REMARK  2 active torsions:
REMARK  status: ('A' for Active; 'I' for Inactive)
REMARK    1  A    between atoms: C_1  and  C_3
REMARK    2  A    between atoms: C_3  and  C_4
REMARK                            x       y       z     vdW  Elec       q    Type
REMARK                         _______ _______ _______ _____ _____    ______ ____
ROOT
ATOM      1  C   UNL A   1      -8.599  -9.290  19.393  0.00  0.00    +0.051 C 
ENDROOT
BRANCH   1   2
ATOM      2  C   UNL A   1      -8.070  -9.753  20.618  0.00  0.00    -0.026 C 
ATOM      3  C   UNL A   1      -7.023  -9.733  20.741  0.00  0.00    -0.030 C 
ATOM      4  C   UNL A   1      -6.343 -10.319  22.059  0.00  0.00    +0.030 C 
ENDBRANCH   1   2
BRANCH   1   5
ATOM      5  C   UNL A   1      -9.929  -9.456  19.062  0.00  0.00    -0.026 C 
ATOM      6  C   UNL A   1     -10.191 -10.127  17.878  0.00  0.00    -0.030 C 
ATOM      7  C   UNL A   1      -9.142 -10.598  17.117  0.00  0.00    +0.030 C 
ENDBRANCH   1   5
TORSDOF 2
ENDMDL
ENDMDL
