REMARK  Name = No_1253-gen_results/8p0m/2024-11-26-14-13-15/
REMARK  2 active torsions:
REMARK  status: ('A' for Active; 'I' for Inactive)
REMARK    1  A    between atoms: C_1  and  C_3
REMARK    2  A    between atoms: C_3  and  C_4
REMARK                            x       y       z     vdW  Elec       q    Type
REMARK                         _______ _______ _______ _____ _____    ______ ____
ROOT
ATOM      1  C   UNL A   1     -27.136   0.236  28.535  0.00  0.00    +0.051 C 
ENDROOT
BRANCH   1   2
ATOM      2  C   UNL A   1     -28.016  -0.814  28.878  0.00  0.00    -0.026 C 
ATOM      3  C   UNL A   1     -28.469  -0.785  29.829  0.00  0.00    -0.030 C 
ATOM      4  C   UNL A   1     -29.406  -1.977  30.325  0.00  0.00    +0.030 C 
ENDBRANCH   1   2
BRANCH   1   5
ATOM      5  C   UNL A   1     -26.875   1.282  29.398  0.00  0.00    -0.026 C 
ATOM      6  C   UNL A   1     -27.507   1.238  30.630  0.00  0.00    -0.030 C 
ATOM      7  C   UNL A   1     -28.329   0.174  30.935  0.00  0.00    +0.030 C 
ENDBRANCH   1   5
TORSDOF 2
