REMARK  Name = No_1254-gen_results/8p0m/2024-11-26-14-13-15/
REMARK  2 active torsions:
REMARK  status: ('A' for Active; 'I' for Inactive)
REMARK    1  A    between atoms: C_5  and  C_11
REMARK    2  A    between atoms: C_7  and  C_14
REMARK                            x       y       z     vdW  Elec       q    Type
REMARK                         _______ _______ _______ _____ _____    ______ ____
ROOT
ATOM      1  C   UNL A   1     -28.016  -0.814  28.878  0.00  0.00    +0.000 A 
ATOM      2  C   UNL A   1     -27.064  -0.119  28.608  0.00  0.00    +0.006 A 
ATOM      3  C   UNL A   1     -25.765  -0.390  29.036  0.00  0.00    +0.000 A 
ATOM      4  C   UNL A   1     -24.552   0.406  28.765  0.00  0.00    +0.001 A 
ATOM      5  C   UNL A   1     -24.696   1.448  27.799  0.00  0.00    +0.044 A 
ATOM      6  C   UNL A   1     -25.976   1.725  27.308  0.00  0.00    +0.008 A 
ATOM      7  C   UNL A   1     -27.072   1.013  27.654  0.00  0.00    +0.080 A 
ATOM      8  C   UNL A   1     -27.965  -1.622  30.136  0.00  0.00    +0.000 A 
ATOM      9  C   UNL A   1     -26.674  -2.151  30.497  0.00  0.00    -0.000 A 
ATOM     10  C   UNL A   1     -25.553  -1.413  30.082  0.00  0.00    -0.000 A 
ENDROOT
BRANCH   5  11
ATOM     11  C   UNL A   1     -23.481   2.232  27.459  0.00  0.00    +0.341 C 
ATOM     12  F   UNL A   1     -22.723   1.623  27.035  0.00  0.00    -0.193 F 
ATOM     13  F   UNL A   1     -23.702   3.450  27.193  0.00  0.00    -0.193 F 
ENDBRANCH   5  11
BRANCH   7  14
ATOM     14  C   UNL A   1     -27.996   0.774  26.482  0.00  0.00    +0.388 C 
ATOM     15  O   UNL A   1     -29.141   0.694  26.673  0.00  0.00    -0.241 OA
ATOM     16  O   UNL A   1     -27.537   0.867  25.293  0.00  0.00    -0.241 OA
ENDBRANCH   7  14
TORSDOF 2
