MODEL 1255
MODEL 1
REMARK VINA RESULT:    -8.065      0.000      0.000
REMARK INTER + INTRA:          -9.062
REMARK INTER:                  -9.951
REMARK INTRA:                   0.888
REMARK UNBOUND:                 0.888
REMARK  Name = No_1255-gen_results/8p0m/2024-11-26-14-13-15/
REMARK  4 active torsions:
REMARK  status: ('A' for Active; 'I' for Inactive)
REMARK    1  A    between atoms: C_1  and  C_2
REMARK    2  A    between atoms: C_10  and  C_17
REMARK    3  A    between atoms: C_18  and  C_19
REMARK    4  A    between atoms: C_24  and  C_25
REMARK                            x       y       z     vdW  Elec       q    Type
REMARK                         _______ _______ _______ _____ _____    ______ ____
ROOT
ATOM      1  C   UNL A   1     -24.762  -0.216  29.466  0.00  0.00    +0.250 C 
ATOM      2  N   UNL A   1     -24.389   0.398  28.304  0.00  0.00    -0.257 N 
ATOM      3  C   UNL A   1     -24.772   0.251  27.265  0.00  0.00    +0.109 C 
ATOM      4  C   UNL A   1     -24.250   1.023  26.224  0.00  0.00    +0.120 C 
ATOM      5  C   UNL A   1     -23.497   1.603  28.452  0.00  0.00    +0.212 C 
ATOM      6  N   UNL A   1     -23.062   2.304  27.531  0.00  0.00    -0.183 NA
ATOM      7  C   UNL A   1     -23.453   2.022  26.335  0.00  0.00    +0.248 C 
ATOM      8  O   UNL A   1     -23.029   2.692  25.286  0.00  0.00    -0.273 OA
ATOM      9  O   UNL A   1     -24.930   0.418  30.524  0.00  0.00    -0.270 OA
ENDROOT
BRANCH   1  10
ATOM     10  C   UNL A   1     -24.787  -1.425  29.449  0.00  0.00    +0.054 A 
ATOM     11  C   UNL A   1     -23.728  -2.206  29.030  0.00  0.00    +0.005 A 
ATOM     12  C   UNL A   1     -23.736  -3.653  28.918  0.00  0.00    +0.011 A 
ATOM     13  C   UNL A   1     -24.909  -4.356  29.271  0.00  0.00    +0.058 A 
ATOM     14  C   UNL A   1     -26.026  -3.551  29.697  0.00  0.00    +0.011 A 
ATOM     15  C   UNL A   1     -26.008  -2.178  29.760  0.00  0.00    +0.005 A 
ATOM     16 CL   UNL A   1     -25.043  -6.017  29.157  0.00  0.00    -0.082 Cl
ENDBRANCH   1  10
BRANCH   4  17
ATOM     17  C   UNL A   1     -24.782   0.621  24.778  0.00  0.00    -0.016 C 
ATOM     18  C   UNL A   1     -25.815   0.889  24.506  0.00  0.00    -0.004 C 
BRANCH  18  19
ATOM     19  C   UNL A   1     -26.804   1.671  25.340  0.00  0.00    -0.000 A 
ATOM     20  C   UNL A   1     -26.886   2.729  25.687  0.00  0.00    -0.000 A 
ATOM     21  C   UNL A   1     -27.907   3.327  26.585  0.00  0.00    -0.000 A 
ATOM     22  C   UNL A   1     -28.868   2.428  27.099  0.00  0.00    -0.000 A 
ATOM     23  C   UNL A   1     -28.778   1.101  26.766  0.00  0.00    -0.000 A 
ATOM     24  C   UNL A   1     -27.796   0.730  26.004  0.00  0.00    -0.000 A 
BRANCH  24  25
ATOM     25  C   UNL A   1     -28.500   0.871  24.863  0.00  0.00    -0.000 C 
ATOM     26  C   UNL A   1     -29.165   1.780  24.273  0.00  0.00    -0.000 C 
ATOM     27  C   UNL A   1     -30.186   1.361  23.218  0.00  0.00    +0.000 C 
ATOM     28  C   UNL A   1     -30.938   2.253  22.519  0.00  0.00    +0.000 C 
ATOM     29  C   UNL A   1     -29.011  -0.310  24.231  0.00  0.00    -0.000 C 
ATOM     30  C   UNL A   1     -30.130   0.046  23.292  0.00  0.00    +0.000 C 
ENDBRANCH  24  25
ENDBRANCH  18  19
ENDBRANCH   4  17
TORSDOF 4
ENDMDL
ENDMDL
