REMARK  Name = No_1255-gen_results/8p0m/2024-11-26-14-13-15/
REMARK  4 active torsions:
REMARK  status: ('A' for Active; 'I' for Inactive)
REMARK    1  A    between atoms: C_1  and  C_2
REMARK    2  A    between atoms: C_10  and  C_17
REMARK    3  A    between atoms: C_18  and  C_19
REMARK    4  A    between atoms: C_24  and  C_25
REMARK                            x       y       z     vdW  Elec       q    Type
REMARK                         _______ _______ _______ _____ _____    ______ ____
ROOT
ATOM      1  C   UNL A   1     -28.016  -0.814  28.878  0.00  0.00    +0.250 C 
ATOM      2  N   UNL A   1     -29.215  -0.172  29.013  0.00  0.00    -0.257 N 
ATOM      3  C   UNL A   1     -29.720   0.547  28.324  0.00  0.00    +0.109 C 
ATOM      4  C   UNL A   1     -30.974   1.061  28.666  0.00  0.00    +0.120 C 
ATOM      5  C   UNL A   1     -30.100  -0.658  30.131  0.00  0.00    +0.212 C 
ATOM      6  N   UNL A   1     -31.223  -0.223  30.412  0.00  0.00    -0.183 NA
ATOM      7  C   UNL A   1     -31.716   0.688  29.643  0.00  0.00    +0.248 C 
ATOM      8  O   UNL A   1     -32.891   1.231  29.870  0.00  0.00    -0.273 OA
ATOM      9  O   UNL A   1     -27.877  -2.020  29.153  0.00  0.00    -0.270 OA
ENDROOT
BRANCH   1  10
ATOM     10  C   UNL A   1     -27.064  -0.119  28.608  0.00  0.00    +0.054 A 
ATOM     11  C   UNL A   1     -27.001   0.691  27.491  0.00  0.00    +0.005 A 
ATOM     12  C   UNL A   1     -25.855   1.482  27.083  0.00  0.00    +0.011 A 
ATOM     13  C   UNL A   1     -24.690   1.453  27.881  0.00  0.00    +0.058 A 
ATOM     14  C   UNL A   1     -24.738   0.601  29.042  0.00  0.00    +0.011 A 
ATOM     15  C   UNL A   1     -25.823  -0.169  29.389  0.00  0.00    +0.005 A 
ATOM     16 CL   UNL A   1     -23.303   2.301  27.496  0.00  0.00    -0.082 Cl
ENDBRANCH   1  10
BRANCH   4  17
ATOM     17  C   UNL A   1     -31.520   2.177  27.669  0.00  0.00    -0.016 C 
ATOM     18  C   UNL A   1     -31.329   3.235  27.911  0.00  0.00    -0.004 C 
BRANCH  18  19
ATOM     19  C   UNL A   1     -30.534   3.775  29.078  0.00  0.00    -0.000 A 
ATOM     20  C   UNL A   1     -29.944   4.702  29.273  0.00  0.00    -0.000 A 
ATOM     21  C   UNL A   1     -29.143   5.048  30.476  0.00  0.00    -0.000 A 
ATOM     22  C   UNL A   1     -29.087   4.053  31.477  0.00  0.00    -0.000 A 
ATOM     23  C   UNL A   1     -29.733   2.862  31.264  0.00  0.00    -0.000 A 
ATOM     24  C   UNL A   1     -30.353   2.699  30.137  0.00  0.00    -0.000 A 
BRANCH  24  25
ATOM     25  C   UNL A   1     -31.534   3.146  30.610  0.00  0.00    -0.000 C 
ATOM     26  C   UNL A   1     -32.119   4.262  30.777  0.00  0.00    -0.000 C 
ATOM     27  C   UNL A   1     -33.269   4.333  31.779  0.00  0.00    +0.000 C 
ATOM     28  C   UNL A   1     -33.971   5.473  32.022  0.00  0.00    +0.000 C 
ATOM     29  C   UNL A   1     -32.267   2.303  31.508  0.00  0.00    -0.000 C 
ATOM     30  C   UNL A   1     -33.265   3.116  32.286  0.00  0.00    +0.000 C 
ENDBRANCH  24  25
ENDBRANCH  18  19
ENDBRANCH   4  17
TORSDOF 4
