REMARK  Name = No_1256-gen_results/8p0m/2024-11-26-14-13-15/
REMARK  5 active torsions:
REMARK  status: ('A' for Active; 'I' for Inactive)
REMARK    1  A    between atoms: C_4  and  C_7
REMARK    2  A    between atoms: C_7  and  C_8
REMARK    3  A    between atoms: C_8  and  C_9
REMARK    4  A    between atoms: C_9  and  C_11
REMARK    5  A    between atoms: C_12  and  C_13
REMARK                            x       y       z     vdW  Elec       q    Type
REMARK                         _______ _______ _______ _____ _____    ______ ____
ROOT
ATOM      1  C   UNL A   1     -23.817   0.476  29.912  0.00  0.00    +0.009 C 
ENDROOT
BRANCH   1   2
ATOM      2  C   UNL A   1     -23.248   0.822  28.723  0.00  0.00    +0.022 C 
ATOM      3  C   UNL A   1     -21.909   0.636  28.539  0.00  0.00    +0.005 C 
BRANCH   2   4
ATOM      4  C   UNL A   1     -24.052   1.500  27.787  0.00  0.00    -0.026 C 
ATOM      5  C   UNL A   1     -24.033   2.532  27.502  0.00  0.00    -0.005 C 
BRANCH   5   6
ATOM      6  C   UNL A   1     -24.662   3.033  26.205  0.00  0.00    -0.005 C 
ATOM      7  C   UNL A   1     -25.480   2.237  25.548  0.00  0.00    -0.026 C 
ATOM      8  C   UNL A   1     -25.497   0.916  25.931  0.00  0.00    +0.031 C 
ENDBRANCH   5   6
ENDBRANCH   2   4
ENDBRANCH   1   2
BRANCH   1   9
ATOM      9  C   UNL A   1     -24.389  -0.805  30.164  0.00  0.00    +0.027 C 
BRANCH   9  13
ATOM     10  C   UNL A   1     -28.016  -0.814  28.878  0.00  0.00    -0.000 A 
ATOM     11  C   UNL A   1     -28.469  -0.785  29.829  0.00  0.00    -0.000 A 
ATOM     12  C   UNL A   1     -26.504  -0.778  28.877  0.00  0.00    -0.004 A 
ATOM     13  C   UNL A   1     -25.810  -0.853  30.103  0.00  0.00    -0.022 A 
ATOM     14  C   UNL A   1     -27.991  -0.892  31.226  0.00  0.00    -0.000 A 
ATOM     15  C   UNL A   1     -26.604  -0.868  31.265  0.00  0.00    -0.004 A 
ENDBRANCH   9  13
ENDBRANCH   1   9
TORSDOF 5
