MODEL 1256
MODEL 1
REMARK VINA RESULT:    -6.347      0.000      0.000
REMARK INTER + INTRA:          -9.119
REMARK INTER:                  -8.203
REMARK INTRA:                  -0.916
REMARK UNBOUND:                -0.916
REMARK  Name = No_1256-gen_results/8p0m/2024-11-26-14-13-15/
REMARK  5 active torsions:
REMARK  status: ('A' for Active; 'I' for Inactive)
REMARK    1  A    between atoms: C_4  and  C_7
REMARK    2  A    between atoms: C_7  and  C_8
REMARK    3  A    between atoms: C_8  and  C_9
REMARK    4  A    between atoms: C_9  and  C_11
REMARK    5  A    between atoms: C_12  and  C_13
REMARK                            x       y       z     vdW  Elec       q    Type
REMARK                         _______ _______ _______ _____ _____    ______ ____
ROOT
ATOM      1  C   UNL A   1     -22.728  -0.762  29.337  0.00  0.00    +0.009 C 
ENDROOT
BRANCH   1   2
ATOM      2  C   UNL A   1     -23.433  -1.167  30.430  0.00  0.00    +0.022 C 
ATOM      3  C   UNL A   1     -22.988  -0.841  31.677  0.00  0.00    +0.005 C 
BRANCH   2   4
ATOM      4  C   UNL A   1     -24.518  -2.040  30.220  0.00  0.00    -0.026 C 
ATOM      5  C   UNL A   1     -24.663  -2.764  29.444  0.00  0.00    -0.005 C 
BRANCH   5   6
ATOM      6  C   UNL A   1     -25.667  -3.906  29.570  0.00  0.00    -0.005 C 
ATOM      7  C   UNL A   1     -25.298  -5.118  29.209  0.00  0.00    -0.026 C 
ATOM      8  C   UNL A   1     -24.129  -5.219  28.491  0.00  0.00    +0.031 C 
ENDBRANCH   5   6
ENDBRANCH   2   4
ENDBRANCH   1   2
BRANCH   1   9
ATOM      9  C   UNL A   1     -22.520   0.608  29.002  0.00  0.00    +0.027 C 
BRANCH   9  13
ATOM     10  C   UNL A   1     -24.667   0.858  25.818  0.00  0.00    -0.000 A 
ATOM     11  C   UNL A   1     -24.030   1.525  25.309  0.00  0.00    -0.000 A 
ATOM     12  C   UNL A   1     -24.185   0.411  27.180  0.00  0.00    -0.004 A 
ATOM     13  C   UNL A   1     -23.029   1.002  27.733  0.00  0.00    -0.022 A 
ATOM     14  C   UNL A   1     -22.820   2.302  25.662  0.00  0.00    -0.000 A 
ATOM     15  C   UNL A   1     -22.351   1.922  26.912  0.00  0.00    -0.004 A 
ENDBRANCH   9  13
ENDBRANCH   1   9
TORSDOF 5
ENDMDL
ENDMDL
