MODEL 1257
MODEL 1
REMARK VINA RESULT:    -6.619      0.000      0.000
REMARK INTER + INTRA:          -8.080
REMARK INTER:                  -7.779
REMARK INTRA:                  -0.301
REMARK UNBOUND:                -0.301
REMARK  Name = No_1257-gen_results/8p0m/2024-11-26-14-13-15/
REMARK  3 active torsions:
REMARK  status: ('A' for Active; 'I' for Inactive)
REMARK    1  A    between atoms: C_6  and  C_8
REMARK    2  A    between atoms: N_9  and  C_10
REMARK    3  A    between atoms: C_10  and  C_11
REMARK                            x       y       z     vdW  Elec       q    Type
REMARK                         _______ _______ _______ _____ _____    ______ ____
ROOT
ATOM      1  C   UNL A   1     -24.502  -0.913  29.031  0.00  0.00    +0.093 C 
ATOM      2  N   UNL A   1     -23.267  -0.472  28.900  0.00  0.00    -0.264 NA
ENDROOT
BRANCH   1   8
ATOM      3  C   UNL A   1     -26.051  -2.873  29.712  0.00  0.00    +0.013 A 
ATOM      4  C   UNL A   1     -26.312  -4.053  29.724  0.00  0.00    +0.058 A 
ATOM      5  C   UNL A   1     -25.403  -4.994  29.250  0.00  0.00    +0.011 A 
ATOM      6  C   UNL A   1     -24.141  -4.587  28.687  0.00  0.00    +0.001 A 
ATOM      7  C   UNL A   1     -23.932  -3.202  28.691  0.00  0.00    +0.002 A 
ATOM      8  C   UNL A   1     -24.830  -2.353  29.135  0.00  0.00    +0.020 A 
ATOM      9 CL   UNL A   1     -27.781  -4.709  30.310  0.00  0.00    -0.082 Cl
ENDBRANCH   1   8
BRANCH   2  10
ATOM     10  C   UNL A   1     -22.995   0.877  28.905  0.00  0.00    +0.152 C 
BRANCH  10  11
ATOM     11  C   UNL A   1     -23.258   1.502  28.054  0.00  0.00    +0.002 A 
ATOM     12  C   UNL A   1     -22.621   1.546  26.797  0.00  0.00    -0.002 A 
ATOM     13  C   UNL A   1     -22.944   2.343  25.676  0.00  0.00    -0.000 A 
ATOM     14  C   UNL A   1     -24.039   3.226  25.859  0.00  0.00    -0.000 A 
ATOM     15  C   UNL A   1     -24.749   3.277  26.993  0.00  0.00    -0.000 A 
ATOM     16  C   UNL A   1     -24.480   2.468  28.023  0.00  0.00    -0.002 A 
ENDBRANCH  10  11
ENDBRANCH   2  10
TORSDOF 3
ENDMDL
ENDMDL
