REMARK  Name = No_1257-gen_results/8p0m/2024-11-26-14-13-15/
REMARK  3 active torsions:
REMARK  status: ('A' for Active; 'I' for Inactive)
REMARK    1  A    between atoms: C_6  and  C_8
REMARK    2  A    between atoms: N_9  and  C_10
REMARK    3  A    between atoms: C_10  and  C_11
REMARK                            x       y       z     vdW  Elec       q    Type
REMARK                         _______ _______ _______ _____ _____    ______ ____
ROOT
ATOM      1  C   UNL A   1     -29.068  -2.788  30.181  0.00  0.00    +0.093 C 
ATOM      2  N   UNL A   1     -28.957  -4.077  30.436  0.00  0.00    -0.264 NA
ENDROOT
BRANCH   1   8
ATOM      3  C   UNL A   1     -28.016  -0.814  28.878  0.00  0.00    +0.013 A 
ATOM      4  C   UNL A   1     -27.064  -0.119  28.608  0.00  0.00    +0.058 A 
ATOM      5  C   UNL A   1     -25.792  -0.430  29.076  0.00  0.00    +0.011 A 
ATOM      6  C   UNL A   1     -25.576  -1.565  29.936  0.00  0.00    +0.001 A 
ATOM      7  C   UNL A   1     -26.735  -2.300  30.217  0.00  0.00    +0.002 A 
ATOM      8  C   UNL A   1     -27.918  -1.954  29.763  0.00  0.00    +0.020 A 
ATOM      9 CL   UNL A   1     -27.146   1.292  27.641  0.00  0.00    -0.082 Cl
ENDBRANCH   1   8
BRANCH   2  10
ATOM     10  C   UNL A   1     -30.067  -4.837  30.726  0.00  0.00    +0.152 C 
BRANCH  10  11
ATOM     11  C   UNL A   1     -30.500  -4.833  31.724  0.00  0.00    +0.002 A 
ATOM     12  C   UNL A   1     -31.043  -5.930  32.424  0.00  0.00    -0.002 A 
ATOM     13  C   UNL A   1     -31.606  -5.954  33.719  0.00  0.00    -0.000 A 
ATOM     14  C   UNL A   1     -31.646  -4.700  34.383  0.00  0.00    -0.000 A 
ATOM     15  C   UNL A   1     -31.149  -3.579  33.847  0.00  0.00    -0.000 A 
ATOM     16  C   UNL A   1     -30.553  -3.581  32.650  0.00  0.00    -0.002 A 
ENDBRANCH  10  11
ENDBRANCH   2  10
TORSDOF 3
