REMARK  Name = No_1258-gen_results/8p0m/2024-11-26-14-13-15/
REMARK  5 active torsions:
REMARK  status: ('A' for Active; 'I' for Inactive)
REMARK    1  A    between atoms: C_2  and  C_15
REMARK    2  A    between atoms: C_3  and  O_13
REMARK    3  A    between atoms: C_4  and  C_6
REMARK    4  A    between atoms: O_13  and  C_14
REMARK    5  A    between atoms: C_14  and  C_18
REMARK                            x       y       z     vdW  Elec       q    Type
REMARK                         _______ _______ _______ _____ _____    ______ ____
ROOT
ATOM      1  C   UNL A   1     -28.016  -0.814  28.878  0.00  0.00    +0.044 A 
ATOM      2  C   UNL A   1     -28.469  -0.785  29.829  0.00  0.00    +0.083 A 
ATOM      3  C   UNL A   1     -27.136   0.236  28.535  0.00  0.00    +0.149 A 
ATOM      4  C   UNL A   1     -26.875   1.282  29.398  0.00  0.00    +0.035 A 
ATOM      5  C   UNL A   1     -28.361   0.199  30.924  0.00  0.00    +0.007 A 
ATOM      6  C   UNL A   1     -27.512   1.232  30.632  0.00  0.00    +0.003 A 
ENDROOT
BRANCH   4   7
ATOM      7  C   UNL A   1     -25.972   2.385  29.104  0.00  0.00    +0.003 A 
ATOM      8  C   UNL A   1     -25.492   3.075  29.809  0.00  0.00    +0.000 A 
ATOM      9  C   UNL A   1     -24.582   4.187  29.467  0.00  0.00    +0.000 A 
ATOM     10  C   UNL A   1     -24.587   4.508  28.090  0.00  0.00    +0.000 A 
ATOM     11  C   UNL A   1     -25.873   2.800  27.672  0.00  0.00    +0.000 A 
ATOM     12  C   UNL A   1     -25.200   3.796  27.229  0.00  0.00    +0.000 A 
ENDBRANCH   4   7
BRANCH   2  13
ATOM     13  C   UNL A   1     -29.450  -2.005  30.325  0.00  0.00    +0.388 C 
ATOM     14  O   UNL A   1     -28.943  -3.160  30.520  0.00  0.00    -0.241 OA
ATOM     15  O   UNL A   1     -30.619  -1.834  30.537  0.00  0.00    -0.241 OA
ENDBRANCH   2  13
BRANCH   3  16
ATOM     16  O   UNL A   1     -26.520   0.216  27.312  0.00  0.00    -0.421 OA
BRANCH  16  17
ATOM     17  C   UNL A   1     -25.346  -0.237  27.071  0.00  0.00    +0.346 C 
ATOM     18  O   UNL A   1     -24.878  -0.268  25.930  0.00  0.00    -0.244 OA
BRANCH  17  19
ATOM     19  C   UNL A   1     -24.441  -0.568  28.169  0.00  0.00    +0.076 A 
ATOM     20  C   UNL A   1     -23.350   0.132  28.550  0.00  0.00    +0.006 A 
ATOM     21  C   UNL A   1     -22.488  -0.288  29.511  0.00  0.00    +0.000 A 
ATOM     22  C   UNL A   1     -24.699  -1.669  29.065  0.00  0.00    +0.006 A 
ATOM     23  C   UNL A   1     -23.938  -2.059  30.099  0.00  0.00    +0.000 A 
ATOM     24  C   UNL A   1     -22.838  -1.273  30.405  0.00  0.00    +0.000 A 
ENDBRANCH  17  19
ENDBRANCH  16  17
ENDBRANCH   3  16
TORSDOF 5
