MODEL 1258
MODEL 1
REMARK VINA RESULT:    -6.724      0.000      0.000
REMARK INTER + INTRA:         -11.154
REMARK INTER:                  -8.689
REMARK INTRA:                  -2.465
REMARK UNBOUND:                -2.465
REMARK  Name = No_1258-gen_results/8p0m/2024-11-26-14-13-15/
REMARK  5 active torsions:
REMARK  status: ('A' for Active; 'I' for Inactive)
REMARK    1  A    between atoms: C_2  and  C_15
REMARK    2  A    between atoms: C_3  and  O_13
REMARK    3  A    between atoms: C_4  and  C_6
REMARK    4  A    between atoms: O_13  and  C_14
REMARK    5  A    between atoms: C_14  and  C_18
REMARK                            x       y       z     vdW  Elec       q    Type
REMARK                         _______ _______ _______ _____ _____    ______ ____
ROOT
ATOM      1  C   UNL A   1     -11.744   1.570  34.996  0.00  0.00    +0.044 A 
ATOM      2  C   UNL A   1     -12.674   1.942  34.670  0.00  0.00    +0.083 A 
ATOM      3  C   UNL A   1     -11.438   1.673  36.371  0.00  0.00    +0.149 A 
ATOM      4  C   UNL A   1     -12.310   2.252  37.272  0.00  0.00    +0.035 A 
ATOM      5  C   UNL A   1     -13.771   2.593  35.413  0.00  0.00    +0.007 A 
ATOM      6  C   UNL A   1     -13.515   2.708  36.752  0.00  0.00    +0.003 A 
ENDROOT
BRANCH   4   7
ATOM      7  C   UNL A   1     -12.054   2.377  38.699  0.00  0.00    +0.003 A 
ATOM      8  C   UNL A   1     -11.217   2.884  39.196  0.00  0.00    +0.000 A 
ATOM      9  C   UNL A   1     -10.993   2.985  40.653  0.00  0.00    +0.000 A 
ATOM     10  C   UNL A   1     -11.805   2.105  41.404  0.00  0.00    +0.000 A 
ATOM     11  C   UNL A   1     -12.873   1.512  39.601  0.00  0.00    +0.000 A 
ATOM     12  C   UNL A   1     -12.738   1.420  40.871  0.00  0.00    +0.000 A 
ENDBRANCH   4   7
BRANCH   2  13
ATOM     13  C   UNL A   1     -13.129   1.796  33.099  0.00  0.00    +0.388 C 
ATOM     14  O   UNL A   1     -14.098   2.508  32.671  0.00  0.00    -0.241 OA
ATOM     15  O   UNL A   1     -12.558   1.064  32.338  0.00  0.00    -0.241 OA
ENDBRANCH   2  13
BRANCH   3  16
ATOM     16  O   UNL A   1     -10.243   1.183  36.826  0.00  0.00    -0.421 OA
BRANCH  16  17
ATOM     17  C   UNL A   1      -9.944  -0.055  36.963  0.00  0.00    +0.346 C 
ATOM     18  O   UNL A   1      -9.118  -0.613  36.237  0.00  0.00    -0.244 OA
BRANCH  17  19
ATOM     19  C   UNL A   1     -10.439  -0.813  38.110  0.00  0.00    +0.076 A 
ATOM     20  C   UNL A   1     -10.008  -0.711  39.387  0.00  0.00    +0.006 A 
ATOM     21  C   UNL A   1     -10.435  -1.522  40.388  0.00  0.00    +0.000 A 
ATOM     22  C   UNL A   1     -11.565  -1.708  38.004  0.00  0.00    +0.006 A 
ATOM     23  C   UNL A   1     -12.098  -2.449  38.988  0.00  0.00    +0.000 A 
ATOM     24  C   UNL A   1     -11.581  -2.272  40.262  0.00  0.00    +0.000 A 
ENDBRANCH  17  19
ENDBRANCH  16  17
ENDBRANCH   3  16
TORSDOF 5
ENDMDL
ENDMDL
