MODEL 1259
MODEL 1
REMARK VINA RESULT:    -7.917      0.000      0.000
REMARK INTER + INTRA:         -10.784
REMARK INTER:                  -9.306
REMARK INTRA:                  -1.478
REMARK UNBOUND:                -1.478
REMARK  Name = No_1259-gen_results/8p0m/2024-11-26-14-13-15/
REMARK  3 active torsions:
REMARK  status: ('A' for Active; 'I' for Inactive)
REMARK    1  A    between atoms: C_3  and  C_7
REMARK    2  A    between atoms: C_8  and  N_19
REMARK    3  A    between atoms: C_10  and  C_11
REMARK                            x       y       z     vdW  Elec       q    Type
REMARK                         _______ _______ _______ _____ _____    ______ ____
ROOT
ATOM      1  C   UNL A   1     -24.197  -0.312  28.009  0.00  0.00    +0.013 A 
ATOM      2  C   UNL A   1     -23.886  -1.234  28.656  0.00  0.00    +0.048 A 
ATOM      3  C   UNL A   1     -22.578  -1.294  29.360  0.00  0.00    +0.015 A 
ATOM      4  C   UNL A   1     -23.281   0.776  27.813  0.00  0.00    +0.001 A 
ATOM      5  C   UNL A   1     -21.649  -0.266  29.058  0.00  0.00    +0.001 A 
ATOM      6  C   UNL A   1     -22.021   0.701  28.237  0.00  0.00    +0.000 A 
ENDROOT
BRANCH   1   9
ATOM      7  C   UNL A   1     -26.648   0.388  28.062  0.00  0.00    +0.000 A 
ATOM      8  C   UNL A   1     -27.550   0.469  27.524  0.00  0.00    +0.000 A 
ATOM      9  C   UNL A   1     -25.548  -0.174  27.280  0.00  0.00    +0.001 A 
ATOM     10  C   UNL A   1     -25.627  -0.361  26.140  0.00  0.00    +0.000 A 
ATOM     11  C   UNL A   1     -27.917   0.278  26.134  0.00  0.00    +0.000 A 
ATOM     12  C   UNL A   1     -26.806  -0.220  25.401  0.00  0.00    +0.000 A 
ENDBRANCH   1   9
BRANCH   4  13
ATOM     13  C   UNL A   1     -23.702   1.945  26.921  0.00  0.00    +0.000 A 
ATOM     14  C   UNL A   1     -23.055   2.265  25.904  0.00  0.00    +0.000 A 
ATOM     15  C   UNL A   1     -23.308   3.524  25.243  0.00  0.00    +0.000 A 
ATOM     16  C   UNL A   1     -24.352   3.091  27.488  0.00  0.00    +0.000 A 
ATOM     17  C   UNL A   1     -24.772   4.191  26.916  0.00  0.00    +0.000 A 
ATOM     18  C   UNL A   1     -24.178   4.427  25.624  0.00  0.00    +0.000 A 
ENDBRANCH   4  13
BRANCH   2  19
ATOM     19  N   UNL A   1     -24.735  -2.311  29.067  0.00  0.00    -0.307 N 
ATOM     20  C   UNL A   1     -25.720  -2.389  29.825  0.00  0.00    +0.091 C 
ATOM     21  C   UNL A   1     -26.530  -3.504  29.946  0.00  0.00    +0.021 C 
ATOM     22  C   UNL A   1     -24.074  -3.671  29.057  0.00  0.00    +0.091 C 
ATOM     23  C   UNL A   1     -24.796  -4.836  28.943  0.00  0.00    +0.021 C 
ATOM     24  C   UNL A   1     -25.980  -4.720  29.277  0.00  0.00    +0.004 C 
ENDBRANCH   2  19
TORSDOF 3
ENDMDL
ENDMDL
