REMARK  Name = No_1259-gen_results/8p0m/2024-11-26-14-13-15/
REMARK  3 active torsions:
REMARK  status: ('A' for Active; 'I' for Inactive)
REMARK    1  A    between atoms: C_3  and  C_7
REMARK    2  A    between atoms: C_8  and  N_19
REMARK    3  A    between atoms: C_10  and  C_11
REMARK                            x       y       z     vdW  Elec       q    Type
REMARK                         _______ _______ _______ _____ _____    ______ ____
ROOT
ATOM      1  C   UNL A   1     -26.386   0.301  27.266  0.00  0.00    +0.013 A 
ATOM      2  C   UNL A   1     -26.883   0.662  26.272  0.00  0.00    +0.048 A 
ATOM      3  C   UNL A   1     -26.162   0.620  24.973  0.00  0.00    +0.015 A 
ATOM      4  C   UNL A   1     -25.017  -0.132  27.274  0.00  0.00    +0.001 A 
ATOM      5  C   UNL A   1     -24.781   0.300  25.025  0.00  0.00    +0.001 A 
ATOM      6  C   UNL A   1     -24.247  -0.002  26.196  0.00  0.00    +0.000 A 
ENDROOT
BRANCH   1   9
ATOM      7  C   UNL A   1     -28.016  -0.814  28.878  0.00  0.00    +0.000 A 
ATOM      8  C   UNL A   1     -28.469  -0.785  29.829  0.00  0.00    +0.000 A 
ATOM      9  C   UNL A   1     -27.087   0.290  28.638  0.00  0.00    +0.001 A 
ATOM     10  C   UNL A   1     -26.768   1.027  29.472  0.00  0.00    +0.000 A 
ATOM     11  C   UNL A   1     -28.276   0.027  31.015  0.00  0.00    +0.000 A 
ATOM     12  C   UNL A   1     -27.329   1.054  30.753  0.00  0.00    +0.000 A 
ENDBRANCH   1   9
BRANCH   4  13
ATOM     13  C   UNL A   1     -24.382  -0.552  28.601  0.00  0.00    +0.000 A 
ATOM     14  C   UNL A   1     -23.439   0.084  29.111  0.00  0.00    +0.000 A 
ATOM     15  C   UNL A   1     -22.684  -0.481  30.205  0.00  0.00    +0.000 A 
ATOM     16  C   UNL A   1     -24.312  -1.938  28.964  0.00  0.00    +0.000 A 
ATOM     17  C   UNL A   1     -23.803  -2.506  30.027  0.00  0.00    +0.000 A 
ATOM     18  C   UNL A   1     -22.879  -1.661  30.741  0.00  0.00    +0.000 A 
ENDBRANCH   4  13
BRANCH   2  19
ATOM     19  N   UNL A   1     -28.267   0.971  26.076  0.00  0.00    -0.307 N 
ATOM     20  C   UNL A   1     -29.107   0.652  25.214  0.00  0.00    +0.091 C 
ATOM     21  C   UNL A   1     -30.463   0.908  25.308  0.00  0.00    +0.021 C 
ATOM     22  C   UNL A   1     -28.699   2.305  26.643  0.00  0.00    +0.091 C 
ATOM     23  C   UNL A   1     -30.004   2.567  26.988  0.00  0.00    +0.021 C 
ATOM     24  C   UNL A   1     -30.823   1.836  26.421  0.00  0.00    +0.004 C 
ENDBRANCH   2  19
TORSDOF 3
