MODEL 125
MODEL 1
REMARK VINA RESULT:    -6.214      0.000      0.000
REMARK INTER + INTRA:          -8.592
REMARK INTER:                  -7.667
REMARK INTRA:                  -0.924
REMARK UNBOUND:                -0.924
REMARK  Name = No_125-gen_results/8p0m/2024-11-26-14-13-15/
REMARK  4 active torsions:
REMARK  status: ('A' for Active; 'I' for Inactive)
REMARK    1  A    between atoms: C_3  and  C_7
REMARK    2  A    between atoms: C_7  and  C_11
REMARK    3  A    between atoms: C_8  and  C_9
REMARK    4  A    between atoms: C_10  and  C_12
REMARK                            x       y       z     vdW  Elec       q    Type
REMARK                         _______ _______ _______ _____ _____    ______ ____
ROOT
ATOM      1  C   UNL A   1     -23.780  -1.163  29.623  0.00  0.00    +0.044 C 
ATOM      2  C   UNL A   1     -23.231  -0.611  28.572  0.00  0.00    +0.001 C 
ENDROOT
BRANCH   1   5
ATOM      3  C   UNL A   1     -26.404  -3.731  29.874  0.00  0.00    -0.000 A 
ATOM      4  C   UNL A   1     -25.834  -2.670  29.986  0.00  0.00    -0.000 A 
ATOM      5  C   UNL A   1     -24.537  -2.440  29.531  0.00  0.00    +0.001 A 
ATOM      6  C   UNL A   1     -23.790  -3.535  28.942  0.00  0.00    -0.000 A 
ATOM      7  C   UNL A   1     -24.516  -4.744  28.853  0.00  0.00    -0.000 A 
ATOM      8  C   UNL A   1     -25.734  -4.867  29.316  0.00  0.00    -0.000 A 
ENDBRANCH   1   5
BRANCH   1   9
ATOM      9  C   UNL A   1     -23.433  -0.609  30.917  0.00  0.00    +0.341 C 
ATOM     10  F   UNL A   1     -22.417  -1.062  31.643  0.00  0.00    -0.193 F 
ATOM     11  F   UNL A   1     -23.176  -1.425  31.465  0.00  0.00    -0.193 F 
ENDBRANCH   1   9
BRANCH   2  12
ATOM     12  C   UNL A   1     -22.447   0.584  28.694  0.00  0.00    -0.002 C 
ATOM     13  C   UNL A   1     -22.525   1.613  27.812  0.00  0.00    +0.012 C 
BRANCH  13  14
ATOM     14  C   UNL A   1     -23.339   1.460  26.725  0.00  0.00    +0.220 C 
ATOM     15  F   UNL A   1     -23.005   2.123  25.658  0.00  0.00    -0.229 F 
ENDBRANCH  13  14
ENDBRANCH   2  12
TORSDOF 4
ENDMDL
ENDMDL
