MODEL 1260
MODEL 1
REMARK VINA RESULT:    -7.491      0.000      0.000
REMARK INTER + INTRA:         -11.747
REMARK INTER:                 -10.118
REMARK INTRA:                  -1.628
REMARK UNBOUND:                -1.628
REMARK  Name = No_1260-gen_results/8p0m/2024-11-26-14-13-15/
REMARK  6 active torsions:
REMARK  status: ('A' for Active; 'I' for Inactive)
REMARK    1  A    between atoms: C_2  and  N_7
REMARK    2  A    between atoms: N_7  and  C_10
REMARK    3  A    between atoms: C_8  and  C_9
REMARK    4  A    between atoms: C_9  and  C_11
REMARK    5  A    between atoms: C_19  and  C_20
REMARK    6  A    between atoms: C_21  and  C_22
REMARK                            x       y       z     vdW  Elec       q    Type
REMARK                         _______ _______ _______ _____ _____    ______ ____
ROOT
ATOM      1  N   UNL A   1     -24.694  -1.487  29.398  0.00  0.00    -0.196 N 
ATOM      2  C   UNL A   1     -24.177  -0.956  30.407  0.00  0.00    +0.244 C 
ATOM      3  O   UNL A   1     -23.782  -1.590  31.424  0.00  0.00    -0.273 OA
ENDROOT
BRANCH   1   5
ATOM      4  C   UNL A   1     -24.077  -3.369  28.751  0.00  0.00    +0.016 A 
ATOM      5  C   UNL A   1     -24.884  -2.969  29.297  0.00  0.00    +0.066 A 
ATOM      6  C   UNL A   1     -24.087  -4.872  28.583  0.00  0.00    +0.001 A 
ATOM      7  C   UNL A   1     -25.207  -5.609  29.024  0.00  0.00    +0.000 A 
ATOM      8  C   UNL A   1     -26.164  -3.496  29.822  0.00  0.00    +0.016 A 
ATOM      9  C   UNL A   1     -26.213  -4.875  29.680  0.00  0.00    +0.001 A 
ENDBRANCH   1   5
BRANCH   2  10
ATOM     10  C   UNL A   1     -23.653   0.314  30.174  0.00  0.00    +0.100 C 
ATOM     11  C   UNL A   1     -24.237   1.330  31.052  0.00  0.00    +0.014 C 
BRANCH  10  12
ATOM     12  C   UNL A   1     -22.841   0.598  29.371  0.00  0.00    -0.014 A 
ATOM     13  C   UNL A   1     -21.571  -0.081  29.070  0.00  0.00    -0.004 A 
ATOM     14  C   UNL A   1     -20.693   0.450  28.094  0.00  0.00    -0.000 A 
ATOM     15  C   UNL A   1     -21.032   1.647  27.440  0.00  0.00    -0.000 A 
ATOM     16  C   UNL A   1     -22.251   2.125  27.410  0.00  0.00    -0.000 A 
ATOM     17  C   UNL A   1     -23.108   1.732  28.342  0.00  0.00    -0.004 A 
ENDBRANCH  10  12
ENDBRANCH   2  10
BRANCH   1  18
ATOM     18  C   UNL A   1     -25.732  -0.600  28.775  0.00  0.00    +0.015 C 
ATOM     19  C   UNL A   1     -26.101  -0.251  27.888  0.00  0.00    -0.043 C 
BRANCH  19  20
ATOM     20  C   UNL A   1     -25.345  -0.421  26.641  0.00  0.00    +0.051 C 
ATOM     21  C   UNL A   1     -25.488   0.499  25.648  0.00  0.00    +0.009 C 
BRANCH  21  22
ATOM     22  C   UNL A   1     -26.178   1.681  25.882  0.00  0.00    +0.001 C 
ATOM     23  C   UNL A   1     -25.574   2.899  25.821  0.00  0.00    +0.000 C 
ENDBRANCH  21  22
ENDBRANCH  19  20
ENDBRANCH   1  18
TORSDOF 6
ENDMDL
ENDMDL
