REMARK  Name = No_1260-gen_results/8p0m/2024-11-26-14-13-15/
REMARK  6 active torsions:
REMARK  status: ('A' for Active; 'I' for Inactive)
REMARK    1  A    between atoms: C_2  and  N_7
REMARK    2  A    between atoms: N_7  and  C_10
REMARK    3  A    between atoms: C_8  and  C_9
REMARK    4  A    between atoms: C_9  and  C_11
REMARK    5  A    between atoms: C_19  and  C_20
REMARK    6  A    between atoms: C_21  and  C_22
REMARK                            x       y       z     vdW  Elec       q    Type
REMARK                         _______ _______ _______ _____ _____    ______ ____
ROOT
ATOM      1  N   UNL A   1     -29.954  -0.789  29.642  0.00  0.00    -0.196 N 
ATOM      2  C   UNL A   1     -30.516  -0.031  28.818  0.00  0.00    +0.244 C 
ATOM      3  O   UNL A   1     -29.913   0.801  28.087  0.00  0.00    -0.273 OA
ENDROOT
BRANCH   1   5
ATOM      4  C   UNL A   1     -28.016  -0.814  28.878  0.00  0.00    +0.016 A 
ATOM      5  C   UNL A   1     -28.469  -0.785  29.829  0.00  0.00    +0.066 A 
ATOM      6  C   UNL A   1     -26.504  -0.778  28.877  0.00  0.00    +0.001 A 
ATOM      7  C   UNL A   1     -25.810  -0.853  30.103  0.00  0.00    +0.000 A 
ATOM      8  C   UNL A   1     -27.991  -0.892  31.226  0.00  0.00    +0.016 A 
ATOM      9  C   UNL A   1     -26.604  -0.868  31.265  0.00  0.00    +0.001 A 
ENDBRANCH   1   5
BRANCH   2  10
ATOM     10  C   UNL A   1     -31.784  -0.458  28.428  0.00  0.00    +0.100 C 
ATOM     11  C   UNL A   1     -32.852   0.186  29.195  0.00  0.00    +0.014 C 
BRANCH  10  12
ATOM     12  C   UNL A   1     -32.028  -1.250  27.592  0.00  0.00    -0.014 A 
ATOM     13  C   UNL A   1     -33.336  -1.797  27.200  0.00  0.00    -0.004 A 
ATOM     14  C   UNL A   1     -33.420  -2.793  26.197  0.00  0.00    -0.000 A 
ATOM     15  C   UNL A   1     -32.241  -3.274  25.602  0.00  0.00    -0.000 A 
ATOM     16  C   UNL A   1     -31.101  -2.632  25.654  0.00  0.00    -0.000 A 
ATOM     17  C   UNL A   1     -30.921  -1.739  26.617  0.00  0.00    -0.004 A 
ENDBRANCH  10  12
ENDBRANCH   2  10
BRANCH   1  18
ATOM     18  C   UNL A   1     -30.816  -1.036  30.845  0.00  0.00    +0.015 C 
ATOM     19  C   UNL A   1     -30.966  -1.654  31.645  0.00  0.00    -0.043 C 
BRANCH  19  20
ATOM     20  C   UNL A   1     -30.308  -2.965  31.716  0.00  0.00    +0.051 C 
ATOM     21  C   UNL A   1     -30.360  -3.671  32.878  0.00  0.00    +0.009 C 
BRANCH  21  22
ATOM     22  C   UNL A   1     -31.186  -3.256  33.914  0.00  0.00    +0.001 C 
ATOM     23  C   UNL A   1     -31.866  -2.078  33.872  0.00  0.00    +0.000 C 
ENDBRANCH  21  22
ENDBRANCH  19  20
ENDBRANCH   1  18
TORSDOF 6
