MODEL 1261
MODEL 1
REMARK VINA RESULT:    -4.516      0.000      0.000
REMARK INTER + INTRA:          -4.516
REMARK INTER:                  -4.516
REMARK INTRA:                   0.000
REMARK UNBOUND:                 0.000
REMARK  Name = No_1261-gen_results/8p0m/2024-11-26-14-13-15/
REMARK  0 active torsions:
REMARK  status: ('A' for Active; 'I' for Inactive)
REMARK                            x       y       z     vdW  Elec       q    Type
REMARK                         _______ _______ _______ _____ _____    ______ ____
ROOT
ATOM      1  C   UNL A   1      -8.954 -10.704  17.856  0.00  0.00    +0.001 A 
ATOM      2  C   UNL A   1      -8.127 -10.644  18.736  0.00  0.00    +0.011 A 
ATOM      3  C   UNL A   1      -8.186  -9.961  19.844  0.00  0.00    +0.058 A 
ATOM      4  C   UNL A   1      -9.347  -9.163  20.079  0.00  0.00    +0.011 A 
ATOM      5  C   UNL A   1     -10.331  -9.271  19.155  0.00  0.00    +0.001 A 
ATOM      6  C   UNL A   1     -10.192 -10.059  18.042  0.00  0.00    +0.000 A 
ATOM      7 CL   UNL A   1      -6.926  -9.877  21.006  0.00  0.00    -0.082 Cl
ENDROOT
TORSDOF 0
ENDMDL
ENDMDL
