MODEL 1262
MODEL 1
REMARK VINA RESULT:    -4.475      0.000      0.000
REMARK INTER + INTRA:          -4.475
REMARK INTER:                  -4.475
REMARK INTRA:                   0.000
REMARK UNBOUND:                 0.000
REMARK  Name = No_1262-gen_results/8p0m/2024-11-26-14-13-15/
REMARK  0 active torsions:
REMARK  status: ('A' for Active; 'I' for Inactive)
REMARK                            x       y       z     vdW  Elec       q    Type
REMARK                         _______ _______ _______ _____ _____    ______ ____
ROOT
ATOM      1  C   UNL A   1     -24.671  -2.659  29.059  0.00  0.00    +0.007 A 
ATOM      2  C   UNL A   1     -23.964  -3.343  28.680  0.00  0.00    +0.001 A 
ATOM      3  C   UNL A   1     -25.828  -3.305  29.690  0.00  0.00    +0.035 A 
ATOM      4  C   UNL A   1     -26.042  -4.620  29.619  0.00  0.00    +0.007 A 
ATOM      5  C   UNL A   1     -23.982  -4.770  28.475  0.00  0.00    +0.000 A 
ATOM      6  C   UNL A   1     -25.077  -5.349  29.046  0.00  0.00    +0.001 A 
ATOM      7 BR   UNL A   1     -27.094  -2.132  30.535  0.00  0.00    -0.049 Br
ENDROOT
TORSDOF 0
ENDMDL
ENDMDL
