REMARK  Name = No_1263-gen_results/8p0m/2024-11-26-14-13-15/
REMARK  4 active torsions:
REMARK  status: ('A' for Active; 'I' for Inactive)
REMARK    1  A    between atoms: C_1  and  C_3
REMARK    2  A    between atoms: C_3  and  C_4
REMARK    3  A    between atoms: C_5  and  C_6
REMARK    4  A    between atoms: C_8  and  C_18
REMARK                            x       y       z     vdW  Elec       q    Type
REMARK                         _______ _______ _______ _____ _____    ______ ____
ROOT
ATOM      1  C   UNL A   1     -27.450   0.643  26.850  0.00  0.00    +0.118 C 
ATOM      2  C   UNL A   1     -26.453   0.994  26.668  0.00  0.00    +0.002 C 
ATOM      3  C   UNL A   1     -26.517   1.926  25.339  0.00  0.00    +0.033 C 
ATOM      4  F   UNL A   1     -28.313  -0.075  25.994  0.00  0.00    -0.209 F 
ENDROOT
BRANCH   2   5
ATOM      5  C   UNL A   1     -25.181   0.862  26.816  0.00  0.00    -0.002 A 
ATOM      6  C   UNL A   1     -24.515   0.116  27.812  0.00  0.00    +0.004 A 
ATOM      7  C   UNL A   1     -23.198   0.265  28.206  0.00  0.00    +0.071 A 
ATOM      8  C   UNL A   1     -22.435   1.206  27.558  0.00  0.00    +0.004 A 
ATOM      9  C   UNL A   1     -22.955   2.027  26.554  0.00  0.00    -0.000 A 
ATOM     10  C   UNL A   1     -24.273   1.899  26.257  0.00  0.00    -0.000 A 
BRANCH   7  11
ATOM     11  C   UNL A   1     -22.570  -0.545  29.247  0.00  0.00    +0.419 C 
ATOM     12  F   UNL A   1     -23.248  -1.086  29.933  0.00  0.00    -0.166 F 
ATOM     13  F   UNL A   1     -21.749   0.322  29.998  0.00  0.00    -0.166 F 
ATOM     14  F   UNL A   1     -21.617  -1.299  28.618  0.00  0.00    -0.166 F 
ENDBRANCH   7  11
ENDBRANCH   2   5
BRANCH   1  15
ATOM     15  C   UNL A   1     -28.182   0.428  28.113  0.00  0.00    +0.082 C 
BRANCH  15  16
ATOM     16  C   UNL A   1     -28.016  -0.814  28.878  0.00  0.00    -0.015 A 
ATOM     17  C   UNL A   1     -28.469  -0.785  29.829  0.00  0.00    -0.004 A 
ATOM     18  C   UNL A   1     -28.289  -2.010  30.834  0.00  0.00    -0.000 A 
ATOM     19  C   UNL A   1     -27.517  -2.994  30.302  0.00  0.00    -0.000 A 
ATOM     20  C   UNL A   1     -26.662  -2.826  29.275  0.00  0.00    -0.000 A 
ATOM     21  C   UNL A   1     -26.878  -1.618  28.550  0.00  0.00    -0.004 A 
ENDBRANCH  15  16
ENDBRANCH   1  15
TORSDOF 4
