MODEL 1263
MODEL 1
REMARK VINA RESULT:    -8.561      0.000      0.000
REMARK INTER + INTRA:         -11.509
REMARK INTER:                 -10.562
REMARK INTRA:                  -0.947
REMARK UNBOUND:                -0.947
REMARK  Name = No_1263-gen_results/8p0m/2024-11-26-14-13-15/
REMARK  4 active torsions:
REMARK  status: ('A' for Active; 'I' for Inactive)
REMARK    1  A    between atoms: C_1  and  C_3
REMARK    2  A    between atoms: C_3  and  C_4
REMARK    3  A    between atoms: C_5  and  C_6
REMARK    4  A    between atoms: C_8  and  C_18
REMARK                            x       y       z     vdW  Elec       q    Type
REMARK                         _______ _______ _______ _____ _____    ______ ____
ROOT
ATOM      1  C   UNL A   1     -23.298  -0.692  30.087  0.00  0.00    +0.118 C 
ATOM      2  C   UNL A   1     -23.088  -0.282  29.118  0.00  0.00    +0.002 C 
ATOM      3  C   UNL A   1     -21.476  -0.333  28.924  0.00  0.00    +0.033 C 
ATOM      4  F   UNL A   1     -22.808  -0.293  31.349  0.00  0.00    -0.209 F 
ENDROOT
BRANCH   2   5
ATOM      5  C   UNL A   1     -23.433   0.458  28.123  0.00  0.00    -0.002 A 
ATOM      6  C   UNL A   1     -24.354   0.135  27.104  0.00  0.00    +0.004 A 
ATOM      7  C   UNL A   1     -24.450   0.738  25.863  0.00  0.00    +0.071 A 
ATOM      8  C   UNL A   1     -23.593   1.775  25.583  0.00  0.00    +0.004 A 
ATOM      9  C   UNL A   1     -22.621   2.206  26.490  0.00  0.00    -0.000 A 
ATOM     10  C   UNL A   1     -22.512   1.532  27.663  0.00  0.00    -0.000 A 
BRANCH   7  11
ATOM     11  C   UNL A   1     -25.432   0.353  24.852  0.00  0.00    +0.419 C 
ATOM     12  F   UNL A   1     -26.381   0.920  24.839  0.00  0.00    -0.166 F 
ATOM     13  F   UNL A   1     -25.713  -1.014  25.057  0.00  0.00    -0.166 F 
ATOM     14  F   UNL A   1     -24.750   0.286  23.667  0.00  0.00    -0.166 F 
ENDBRANCH   7  11
ENDBRANCH   2   5
BRANCH   1  15
ATOM     15  C   UNL A   1     -24.405  -1.548  30.553  0.00  0.00    +0.082 C 
BRANCH  15  16
ATOM     16  C   UNL A   1     -24.591  -2.900  30.013  0.00  0.00    -0.015 A 
ATOM     17  C   UNL A   1     -23.859  -3.174  29.306  0.00  0.00    -0.004 A 
ATOM     18  C   UNL A   1     -23.976  -4.567  28.538  0.00  0.00    -0.000 A 
ATOM     19  C   UNL A   1     -25.082  -5.263  28.913  0.00  0.00    -0.000 A 
ATOM     20  C   UNL A   1     -26.163  -4.721  29.507  0.00  0.00    -0.000 A 
ATOM     21  C   UNL A   1     -25.925  -3.418  30.035  0.00  0.00    -0.004 A 
ENDBRANCH  15  16
ENDBRANCH   1  15
TORSDOF 4
ENDMDL
ENDMDL
