REMARK  Name = No_1264-gen_results/8p0m/2024-11-26-14-13-15/
REMARK  3 active torsions:
REMARK  status: ('A' for Active; 'I' for Inactive)
REMARK    1  A    between atoms: C_2  and  N_13
REMARK    2  A    between atoms: C_4  and  C_7
REMARK    3  A    between atoms: C_15  and  C_19
REMARK                            x       y       z     vdW  Elec       q    Type
REMARK                         _______ _______ _______ _____ _____    ______ ____
ROOT
ATOM      1  C   UNL A   1     -28.016  -0.814  28.878  0.00  0.00    +0.015 A 
ATOM      2  C   UNL A   1     -28.469  -0.785  29.829  0.00  0.00    +0.048 A 
ATOM      3  C   UNL A   1     -26.546  -0.876  28.850  0.00  0.00    +0.001 A 
ATOM      4  C   UNL A   1     -25.804  -1.032  30.057  0.00  0.00    -0.003 A 
ATOM      5  C   UNL A   1     -26.537  -1.039  31.217  0.00  0.00    +0.001 A 
ATOM      6  C   UNL A   1     -27.884  -0.953  31.186  0.00  0.00    +0.015 A 
ENDROOT
BRANCH   4   7
ATOM      7  C   UNL A   1     -24.366  -1.113  30.048  0.00  0.00    -0.009 C 
ATOM      8  C   UNL A   1     -23.625  -0.943  29.023  0.00  0.00    -0.029 C 
ATOM      9  C   UNL A   1     -22.163  -0.829  29.096  0.00  0.00    +0.028 C 
ATOM     10  C   UNL A   1     -23.619  -0.238  31.031  0.00  0.00    +0.114 C 
ATOM     11  N   UNL A   1     -24.149  -0.076  32.309  0.00  0.00    -0.128 NA
ATOM     12  C   UNL A   1     -22.189  -0.295  30.987  0.00  0.00    +0.028 C 
ENDBRANCH   4   7
BRANCH   2  13
ATOM     13  N   UNL A   1     -29.954  -0.699  29.879  0.00  0.00    -0.307 N 
ATOM     14  C   UNL A   1     -30.592  -0.046  28.980  0.00  0.00    +0.102 C 
ATOM     15  C   UNL A   1     -32.020  -0.255  28.906  0.00  0.00    +0.123 C 
ATOM     16  C   UNL A   1     -30.700  -1.844  30.384  0.00  0.00    +0.091 C 
ATOM     17  C   UNL A   1     -32.013  -1.958  30.344  0.00  0.00    +0.022 C 
ATOM     18  C   UNL A   1     -32.707  -1.167  29.538  0.00  0.00    +0.015 C 
BRANCH  15  19
ATOM     19  C   UNL A   1     -32.770   0.755  27.979  0.00  0.00    +0.366 C 
ATOM     20  O   UNL A   1     -33.126   1.732  28.432  0.00  0.00    -0.246 OA
ATOM     21  O   UNL A   1     -32.855   0.342  26.764  0.00  0.00    -0.246 OA
ENDBRANCH  15  19
ENDBRANCH   2  13
TORSDOF 3
