MODEL 1264
MODEL 1
REMARK VINA RESULT:    -6.677      0.000      0.000
REMARK INTER + INTRA:          -8.570
REMARK INTER:                  -7.849
REMARK INTRA:                  -0.721
REMARK UNBOUND:                -0.721
REMARK  Name = No_1264-gen_results/8p0m/2024-11-26-14-13-15/
REMARK  3 active torsions:
REMARK  status: ('A' for Active; 'I' for Inactive)
REMARK    1  A    between atoms: C_2  and  N_13
REMARK    2  A    between atoms: C_4  and  C_7
REMARK    3  A    between atoms: C_15  and  C_19
REMARK                            x       y       z     vdW  Elec       q    Type
REMARK                         _______ _______ _______ _____ _____    ______ ____
ROOT
ATOM      1  C   UNL A   1     -26.989   0.649  26.745  0.00  0.00    +0.015 A 
ATOM      2  C   UNL A   1     -26.076   0.649  26.219  0.00  0.00    +0.048 A 
ATOM      3  C   UNL A   1     -28.206   0.411  25.954  0.00  0.00    +0.001 A 
ATOM      4  C   UNL A   1     -28.118   0.060  24.576  0.00  0.00    -0.003 A 
ATOM      5  C   UNL A   1     -26.854   0.040  24.040  0.00  0.00    +0.001 A 
ATOM      6  C   UNL A   1     -25.773   0.292  24.807  0.00  0.00    +0.015 A 
ENDROOT
BRANCH   4   7
ATOM      7  C   UNL A   1     -29.297  -0.195  23.789  0.00  0.00    -0.009 C 
ATOM      8  C   UNL A   1     -30.135  -1.135  24.001  0.00  0.00    -0.029 C 
ATOM      9  C   UNL A   1     -31.426  -1.234  23.308  0.00  0.00    +0.028 C 
ATOM     10  C   UNL A   1     -30.266   0.953  23.606  0.00  0.00    +0.114 C 
ATOM     11  N   UNL A   1     -29.749   2.232  23.417  0.00  0.00    -0.128 NA
ATOM     12  C   UNL A   1     -31.456   0.679  22.858  0.00  0.00    +0.028 C 
ENDBRANCH   4   7
BRANCH   2  13
ATOM     13  N   UNL A   1     -24.835   0.911  26.997  0.00  0.00    -0.307 N 
ATOM     14  C   UNL A   1     -24.323  -0.012  27.724  0.00  0.00    +0.102 C 
ATOM     15  C   UNL A   1     -22.975   0.199  28.199  0.00  0.00    +0.123 C 
ATOM     16  C   UNL A   1     -23.834   1.805  26.430  0.00  0.00    +0.091 C 
ATOM     17  C   UNL A   1     -22.635   2.006  26.939  0.00  0.00    +0.022 C 
ATOM     18  C   UNL A   1     -22.157   1.145  27.827  0.00  0.00    +0.015 C 
BRANCH  15  19
ATOM     19  C   UNL A   1     -22.510  -0.825  29.284  0.00  0.00    +0.366 C 
ATOM     20  O   UNL A   1     -22.025  -0.420  30.227  0.00  0.00    -0.246 OA
ATOM     21  O   UNL A   1     -22.784  -2.041  28.967  0.00  0.00    -0.246 OA
ENDBRANCH  15  19
ENDBRANCH   2  13
TORSDOF 3
ENDMDL
ENDMDL
