REMARK  Name = No_1265-gen_results/8p0m/2024-11-26-14-13-15/
REMARK  6 active torsions:
REMARK  status: ('A' for Active; 'I' for Inactive)
REMARK    1  A    between atoms: C_1  and  C_9
REMARK    2  A    between atoms: C_9  and  O_10
REMARK    3  A    between atoms: O_10  and  C_14
REMARK    4  A    between atoms: C_15  and  C_16
REMARK    5  A    between atoms: C_20  and  C_22
REMARK    6  A    between atoms: N_23  and  C_24
REMARK                            x       y       z     vdW  Elec       q    Type
REMARK                         _______ _______ _______ _____ _____    ______ ____
ROOT
ATOM      1  O   UNL A   1     -28.376  -1.097  31.225  0.00  0.00    -0.418 OA
ENDROOT
BRANCH   1   2
ATOM      2  C   UNL A   1     -28.280  -1.631  30.093  0.00  0.00    +0.348 C 
ATOM      3  O   UNL A   1     -28.131  -2.909  30.030  0.00  0.00    -0.244 OA
BRANCH   2   4
ATOM      4  C   UNL A   1     -28.016  -0.814  28.878  0.00  0.00    +0.105 A 
ATOM      5  C   UNL A   1     -27.064  -0.119  28.608  0.00  0.00    +0.158 A 
ATOM      6  C   UNL A   1     -26.972   0.714  27.506  0.00  0.00    +0.097 A 
ATOM      7  C   UNL A   1     -28.105   0.774  26.642  0.00  0.00    +0.081 A 
ATOM      8  C   UNL A   1     -29.201   0.104  27.053  0.00  0.00    +0.069 A 
ATOM      9  C   UNL A   1     -29.210  -0.603  28.185  0.00  0.00    +0.021 A 
ATOM     10 CL   UNL A   1     -30.512   0.209  25.901  0.00  0.00    -0.081 Cl
ATOM     11  F   UNL A   1     -25.873  -0.187  29.377  0.00  0.00    -0.203 F 
ATOM     12 CL   UNL A   1     -27.938   1.779  25.231  0.00  0.00    -0.080 Cl
ATOM     13 CL   UNL A   1     -25.365   1.407  27.104  0.00  0.00    -0.079 Cl
ENDBRANCH   2   4
ENDBRANCH   1   2
BRANCH   1  14
ATOM     14  C   UNL A   1     -29.245  -1.585  32.167  0.00  0.00    +0.183 C 
ATOM     15  C   UNL A   1     -29.174  -0.988  33.403  0.00  0.00    +0.041 C 
BRANCH  15  16
ATOM     16  C   UNL A   1     -28.326   0.100  33.569  0.00  0.00    +0.003 A 
ATOM     17  C   UNL A   1     -28.094   0.619  34.863  0.00  0.00    +0.000 A 
ATOM     18  C   UNL A   1     -27.206   1.766  35.068  0.00  0.00    +0.000 A 
ATOM     19  C   UNL A   1     -26.562   2.343  33.919  0.00  0.00    +0.002 A 
ATOM     20  C   UNL A   1     -26.765   1.717  32.655  0.00  0.00    +0.019 A 
ATOM     21  C   UNL A   1     -27.591   0.669  32.550  0.00  0.00    +0.002 A 
BRANCH  20  22
ATOM     22  C   UNL A   1     -26.008   2.333  31.536  0.00  0.00    +0.099 C 
ATOM     23  N   UNL A   1     -26.518   3.244  30.811  0.00  0.00    -0.242 NA
BRANCH  23  24
ATOM     24  C   UNL A   1     -25.808   3.779  29.785  0.00  0.00    +0.099 C 
ATOM     25  C   UNL A   1     -26.435   4.873  28.994  0.00  0.00    +0.022 C 
ENDBRANCH  23  24
ENDBRANCH  20  22
ENDBRANCH  15  16
ENDBRANCH   1  14
TORSDOF 6
