MODEL 1265
MODEL 1
REMARK VINA RESULT:    -7.053      0.000      0.000
REMARK INTER + INTRA:         -10.578
REMARK INTER:                  -9.527
REMARK INTRA:                  -1.051
REMARK UNBOUND:                -1.051
REMARK  Name = No_1265-gen_results/8p0m/2024-11-26-14-13-15/
REMARK  6 active torsions:
REMARK  status: ('A' for Active; 'I' for Inactive)
REMARK    1  A    between atoms: C_1  and  C_9
REMARK    2  A    between atoms: C_9  and  O_10
REMARK    3  A    between atoms: O_10  and  C_14
REMARK    4  A    between atoms: C_15  and  C_16
REMARK    5  A    between atoms: C_20  and  C_22
REMARK    6  A    between atoms: N_23  and  C_24
REMARK                            x       y       z     vdW  Elec       q    Type
REMARK                         _______ _______ _______ _____ _____    ______ ____
ROOT
ATOM      1  O   UNL A   1     -22.721   1.029  28.360  0.00  0.00    -0.418 OA
ENDROOT
BRANCH   1   2
ATOM      2  C   UNL A   1     -22.597  -0.089  28.917  0.00  0.00    +0.348 C 
ATOM      3  O   UNL A   1     -21.412  -0.573  29.060  0.00  0.00    -0.244 OA
BRANCH   2   4
ATOM      4  C   UNL A   1     -23.770  -0.983  29.114  0.00  0.00    +0.105 A 
ATOM      5  C   UNL A   1     -24.818  -0.768  29.678  0.00  0.00    +0.158 A 
ATOM      6  C   UNL A   1     -25.798  -1.714  29.927  0.00  0.00    +0.097 A 
ATOM      7  C   UNL A   1     -25.530  -3.051  29.510  0.00  0.00    +0.081 A 
ATOM      8  C   UNL A   1     -24.294  -3.284  29.022  0.00  0.00    +0.069 A 
ATOM      9  C   UNL A   1     -23.389  -2.310  28.903  0.00  0.00    +0.021 A 
ATOM     10 CL   UNL A   1     -24.090  -4.941  28.501  0.00  0.00    -0.081 Cl
ATOM     11  F   UNL A   1     -25.186   0.551  30.049  0.00  0.00    -0.203 F 
ATOM     12 CL   UNL A   1     -26.804  -4.205  29.779  0.00  0.00    -0.080 Cl
ATOM     13 CL   UNL A   1     -27.407  -1.137  30.477  0.00  0.00    -0.079 Cl
ENDBRANCH   2   4
ENDBRANCH   1   2
BRANCH   1  14
ATOM     14  C   UNL A   1     -21.812   1.461  27.428  0.00  0.00    +0.183 C 
ATOM     15  C   UNL A   1     -22.349   1.979  26.274  0.00  0.00    +0.041 C 
BRANCH  15  16
ATOM     16  C   UNL A   1     -23.729   2.116  26.184  0.00  0.00    +0.003 A 
ATOM     17  C   UNL A   1     -24.338   3.342  26.536  0.00  0.00    +0.000 A 
ATOM     18  C   UNL A   1     -25.790   3.514  26.453  0.00  0.00    +0.000 A 
ATOM     19  C   UNL A   1     -26.583   2.408  25.989  0.00  0.00    +0.002 A 
ATOM     20  C   UNL A   1     -25.901   1.231  25.563  0.00  0.00    +0.019 A 
ATOM     21  C   UNL A   1     -24.569   1.151  25.668  0.00  0.00    +0.002 A 
BRANCH  20  22
ATOM     22  C   UNL A   1     -26.789   0.166  25.032  0.00  0.00    +0.099 C 
ATOM     23  N   UNL A   1     -27.651   0.408  24.130  0.00  0.00    -0.242 NA
BRANCH  23  24
ATOM     24  C   UNL A   1     -28.460  -0.583  23.674  0.00  0.00    +0.099 C 
ATOM     25  C   UNL A   1     -29.789  -0.757  24.323  0.00  0.00    +0.022 C 
ENDBRANCH  23  24
ENDBRANCH  20  22
ENDBRANCH  15  16
ENDBRANCH   1  14
TORSDOF 6
ENDMDL
ENDMDL
