MODEL 1266
MODEL 1
REMARK VINA RESULT:    -7.468      0.000      0.000
REMARK INTER + INTRA:         -11.412
REMARK INTER:                  -9.214
REMARK INTRA:                  -2.199
REMARK UNBOUND:                -2.199
REMARK  Name = No_1266-gen_results/8p0m/2024-11-26-14-13-15/
REMARK  4 active torsions:
REMARK  status: ('A' for Active; 'I' for Inactive)
REMARK    1  A    between atoms: C_2  and  C_16
REMARK    2  A    between atoms: C_3  and  C_9
REMARK    3  A    between atoms: C_6  and  C_7
REMARK    4  A    between atoms: C_24  and  C_26
REMARK                            x       y       z     vdW  Elec       q    Type
REMARK                         _______ _______ _______ _____ _____    ______ ____
ROOT
ATOM      1  C   UNL A   1     -26.763   0.025  27.326  0.00  0.00    +0.007 A 
ATOM      2  C   UNL A   1     -26.124   0.259  28.325  0.00  0.00    +0.000 A 
ATOM      3  C   UNL A   1     -26.661   1.018  29.360  0.00  0.00    +0.000 A 
ATOM      4  C   UNL A   1     -27.978   1.589  29.252  0.00  0.00    +0.000 A 
ATOM      5  C   UNL A   1     -28.638   1.289  28.053  0.00  0.00    +0.007 A 
ATOM      6  C   UNL A   1     -28.079   0.580  27.099  0.00  0.00    +0.080 A 
ENDROOT
BRANCH   2   7
ATOM      7  C   UNL A   1     -24.719  -0.265  28.576  0.00  0.00    -0.000 A 
ATOM      8  C   UNL A   1     -23.781   0.568  27.867  0.00  0.00    -0.000 A 
ATOM      9  C   UNL A   1     -23.911   1.251  26.952  0.00  0.00    -0.000 A 
ATOM     10  C   UNL A   1     -22.828   2.050  26.343  0.00  0.00    +0.000 A 
ATOM     11  C   UNL A   1     -22.345   0.361  28.371  0.00  0.00    -0.000 A 
ATOM     12  C   UNL A   1     -22.041  -0.439  29.528  0.00  0.00    -0.000 A 
ATOM     13  C   UNL A   1     -21.557   1.903  26.781  0.00  0.00    +0.000 A 
ATOM     14  C   UNL A   1     -21.256   1.132  27.821  0.00  0.00    +0.000 A 
ATOM     15  C   UNL A   1     -24.571  -1.179  29.387  0.00  0.00    -0.000 A 
ATOM     16  C   UNL A   1     -23.092  -1.362  29.887  0.00  0.00    -0.000 A 
BRANCH  15  17
ATOM     17  C   UNL A   1     -24.679  -2.599  28.652  0.00  0.00    -0.005 C 
ATOM     18  C   UNL A   1     -24.296  -3.734  29.171  0.00  0.00    -0.026 C 
ATOM     19  C   UNL A   1     -24.196  -4.855  28.469  0.00  0.00    +0.031 C 
ENDBRANCH  15  17
ENDBRANCH   2   7
BRANCH   3  20
ATOM     20  C   UNL A   1     -25.954   1.320  30.681  0.00  0.00    +0.000 A 
ATOM     21  C   UNL A   1     -26.467   0.877  31.870  0.00  0.00    +0.000 A 
ATOM     22  C   UNL A   1     -26.546   1.408  32.850  0.00  0.00    +0.000 A 
ATOM     23  C   UNL A   1     -25.643   2.611  33.111  0.00  0.00    +0.000 A 
ATOM     24  C   UNL A   1     -24.986   3.084  31.976  0.00  0.00    +0.000 A 
ATOM     25  C   UNL A   1     -25.218   2.540  30.748  0.00  0.00    +0.000 A 
ENDBRANCH   3  20
BRANCH   6  26
ATOM     26  C   UNL A   1     -28.862   0.380  25.857  0.00  0.00    +0.388 C 
ATOM     27  O   UNL A   1     -29.859  -0.343  25.958  0.00  0.00    -0.241 OA
ATOM     28  O   UNL A   1     -28.278   0.374  24.737  0.00  0.00    -0.241 OA
ENDBRANCH   6  26
TORSDOF 4
ENDMDL
ENDMDL
