REMARK  Name = No_1266-gen_results/8p0m/2024-11-26-14-13-15/
REMARK  4 active torsions:
REMARK  status: ('A' for Active; 'I' for Inactive)
REMARK    1  A    between atoms: C_2  and  C_16
REMARK    2  A    between atoms: C_3  and  C_9
REMARK    3  A    between atoms: C_6  and  C_7
REMARK    4  A    between atoms: C_24  and  C_26
REMARK                            x       y       z     vdW  Elec       q    Type
REMARK                         _______ _______ _______ _____ _____    ______ ____
ROOT
ATOM      1  C   UNL A   1     -28.016  -0.814  28.878  0.00  0.00    +0.007 A 
ATOM      2  C   UNL A   1     -27.064  -0.119  28.608  0.00  0.00    +0.000 A 
ATOM      3  C   UNL A   1     -25.792  -0.430  29.076  0.00  0.00    +0.000 A 
ATOM      4  C   UNL A   1     -25.576  -1.565  29.936  0.00  0.00    +0.000 A 
ATOM      5  C   UNL A   1     -26.735  -2.300  30.217  0.00  0.00    +0.007 A 
ATOM      6  C   UNL A   1     -27.918  -1.954  29.763  0.00  0.00    +0.080 A 
ENDROOT
BRANCH   2   7
ATOM      7  C   UNL A   1     -27.139   1.115  27.723  0.00  0.00    -0.000 A 
ATOM      8  C   UNL A   1     -27.789   2.172  28.456  0.00  0.00    -0.000 A 
ATOM      9  C   UNL A   1     -28.512   2.145  29.349  0.00  0.00    -0.000 A 
ATOM     10  C   UNL A   1     -29.094   3.340  29.991  0.00  0.00    +0.000 A 
ATOM     11  C   UNL A   1     -27.557   3.542  27.802  0.00  0.00    -0.000 A 
ATOM     12  C   UNL A   1     -26.650   3.727  26.700  0.00  0.00    -0.000 A 
ATOM     13  C   UNL A   1     -28.889   4.562  29.448  0.00  0.00    +0.000 A 
ATOM     14  C   UNL A   1     -28.089   4.741  28.402  0.00  0.00    +0.000 A 
ATOM     15  C   UNL A   1     -26.567   1.089  26.634  0.00  0.00    -0.000 A 
ATOM     16  C   UNL A   1     -26.340   2.507  25.993  0.00  0.00    -0.000 A 
BRANCH  15  17
ATOM     17  C   UNL A   1     -27.557   0.545  25.497  0.00  0.00    -0.005 C 
ATOM     18  C   UNL A   1     -28.851   0.715  25.496  0.00  0.00    -0.026 C 
ATOM     19  C   UNL A   1     -29.666   0.077  24.666  0.00  0.00    +0.031 C 
ENDBRANCH  15  17
ENDBRANCH   2   7
BRANCH   3  20
ATOM     20  C   UNL A   1     -24.522   0.354  28.744  0.00  0.00    +0.000 A 
ATOM     21  C   UNL A   1     -24.073   1.347  29.571  0.00  0.00    +0.000 A 
ATOM     22  C   UNL A   1     -23.659   2.353  29.312  0.00  0.00    +0.000 A 
ATOM     23  C   UNL A   1     -23.109   2.584  27.907  0.00  0.00    +0.000 A 
ATOM     24  C   UNL A   1     -23.424   1.571  27.001  0.00  0.00    +0.000 A 
ATOM     25  C   UNL A   1     -24.221   0.526  27.360  0.00  0.00    +0.000 A 
ENDBRANCH   3  20
BRANCH   6  26
ATOM     26  C   UNL A   1     -29.073  -2.784  30.178  0.00  0.00    +0.388 C 
ATOM     27  O   UNL A   1     -29.322  -2.795  31.389  0.00  0.00    -0.241 OA
ATOM     28  O   UNL A   1     -29.357  -3.835  29.539  0.00  0.00    -0.241 OA
ENDBRANCH   6  26
TORSDOF 4
