MODEL 1267
MODEL 1
REMARK VINA RESULT:    -5.848      0.000      0.000
REMARK INTER + INTRA:          -8.232
REMARK INTER:                  -7.558
REMARK INTRA:                  -0.674
REMARK UNBOUND:                -0.674
REMARK  Name = No_1267-gen_results/8p0m/2024-11-26-14-13-15/
REMARK  5 active torsions:
REMARK  status: ('A' for Active; 'I' for Inactive)
REMARK    1  A    between atoms: C_3  and  C_7
REMARK    2  A    between atoms: C_6  and  O_11
REMARK    3  A    between atoms: O_11  and  C_12
REMARK    4  A    between atoms: C_12  and  C_13
REMARK    5  A    between atoms: C_14  and  C_15
REMARK                            x       y       z     vdW  Elec       q    Type
REMARK                         _______ _______ _______ _____ _____    ______ ____
ROOT
ATOM      1  C   UNL A   1     -11.472 -22.815  20.038  0.00  0.00    +0.037 A 
ATOM      2  C   UNL A   1     -10.571 -22.846  20.844  0.00  0.00    +0.007 A 
ATOM      3  C   UNL A   1     -10.506 -22.012  21.959  0.00  0.00    +0.072 A 
ATOM      4  C   UNL A   1     -11.533 -21.006  22.150  0.00  0.00    +0.007 A 
ATOM      5  C   UNL A   1     -12.546 -21.023  21.165  0.00  0.00    +0.037 A 
ATOM      6  C   UNL A   1     -12.519 -21.844  20.145  0.00  0.00    +0.139 A 
ENDROOT
BRANCH   3   7
ATOM      7  C   UNL A   1      -9.439 -22.002  22.995  0.00  0.00    +0.419 C 
ATOM      8  F   UNL A   1      -8.388 -21.463  22.624  0.00  0.00    -0.166 F 
ATOM      9  F   UNL A   1      -9.106 -23.322  23.388  0.00  0.00    -0.166 F 
ATOM     10  F   UNL A   1      -9.883 -21.416  24.141  0.00  0.00    -0.166 F 
ENDBRANCH   3   7
BRANCH   6  11
ATOM     11  O   UNL A   1     -13.498 -21.752  19.195  0.00  0.00    -0.471 OA
BRANCH  11  12
ATOM     12  C   UNL A   1     -13.276 -21.283  17.969  0.00  0.00    +0.232 C 
BRANCH  12  13
ATOM     13  C   UNL A   1     -13.309 -19.961  17.911  0.00  0.00    +0.016 C 
ATOM     14  C   UNL A   1     -12.426 -19.305  17.124  0.00  0.00    -0.027 C 
BRANCH  14  15
ATOM     15  C   UNL A   1     -11.171 -19.969  16.798  0.00  0.00    +0.026 C 
ATOM     16  C   UNL A   1     -10.113 -19.272  16.223  0.00  0.00    +0.005 C 
ENDBRANCH  14  15
ENDBRANCH  12  13
ENDBRANCH  11  12
ENDBRANCH   6  11
TORSDOF 5
ENDMDL
ENDMDL
