REMARK  Name = No_1267-gen_results/8p0m/2024-11-26-14-13-15/
REMARK  5 active torsions:
REMARK  status: ('A' for Active; 'I' for Inactive)
REMARK    1  A    between atoms: C_3  and  C_7
REMARK    2  A    between atoms: C_6  and  O_11
REMARK    3  A    between atoms: O_11  and  C_12
REMARK    4  A    between atoms: C_12  and  C_13
REMARK    5  A    between atoms: C_14  and  C_15
REMARK                            x       y       z     vdW  Elec       q    Type
REMARK                         _______ _______ _______ _____ _____    ______ ____
ROOT
ATOM      1  C   UNL A   1     -28.016  -0.814  28.878  0.00  0.00    +0.037 A 
ATOM      2  C   UNL A   1     -27.064  -0.119  28.608  0.00  0.00    +0.007 A 
ATOM      3  C   UNL A   1     -25.765  -0.390  29.036  0.00  0.00    +0.072 A 
ATOM      4  C   UNL A   1     -25.530  -1.530  29.901  0.00  0.00    +0.007 A 
ATOM      5  C   UNL A   1     -26.689  -2.289  30.181  0.00  0.00    +0.037 A 
ATOM      6  C   UNL A   1     -27.873  -1.951  29.737  0.00  0.00    +0.139 A 
ENDROOT
BRANCH   3   7
ATOM      7  C   UNL A   1     -24.549   0.410  28.734  0.00  0.00    +0.419 C 
ATOM      8  F   UNL A   1     -24.541   0.896  27.595  0.00  0.00    -0.166 F 
ATOM      9  F   UNL A   1     -23.381  -0.385  28.848  0.00  0.00    -0.166 F 
ATOM     10  F   UNL A   1     -24.374   1.392  29.660  0.00  0.00    -0.166 F 
ENDBRANCH   3   7
BRANCH   6  11
ATOM     11  O   UNL A   1     -28.958  -2.696  30.109  0.00  0.00    -0.471 OA
BRANCH  11  12
ATOM     12  C   UNL A   1     -30.082  -2.155  30.575  0.00  0.00    +0.232 C 
BRANCH  12  13
ATOM     13  C   UNL A   1     -31.167  -2.794  30.169  0.00  0.00    +0.016 C 
ATOM     14  C   UNL A   1     -32.262  -2.087  29.807  0.00  0.00    -0.027 C 
BRANCH  14  15
ATOM     15  C   UNL A   1     -32.426  -0.747  30.354  0.00  0.00    +0.026 C 
ATOM     16  C   UNL A   1     -33.556   0.015  30.072  0.00  0.00    +0.005 C 
ENDBRANCH  14  15
ENDBRANCH  12  13
ENDBRANCH  11  12
ENDBRANCH   6  11
TORSDOF 5
