MODEL 1268
MODEL 1
REMARK VINA RESULT:    -6.346      0.000      0.000
REMARK INTER + INTRA:         -10.640
REMARK INTER:                  -9.314
REMARK INTRA:                  -1.326
REMARK UNBOUND:                -1.326
REMARK  Name = No_1268-gen_results/8p0m/2024-11-26-14-13-15/
REMARK  8 active torsions:
REMARK  status: ('A' for Active; 'I' for Inactive)
REMARK    1  A    between atoms: C_2  and  O_7
REMARK    2  A    between atoms: C_4  and  C_14
REMARK    3  A    between atoms: O_7  and  C_8
REMARK    4  A    between atoms: C_9  and  O_18
REMARK    5  A    between atoms: O_18  and  C_19
REMARK    6  A    between atoms: C_19  and  C_20
REMARK    7  A    between atoms: C_20  and  N_21
REMARK    8  A    between atoms: N_21  and  C_23
REMARK                            x       y       z     vdW  Elec       q    Type
REMARK                         _______ _______ _______ _____ _____    ______ ____
ROOT
ATOM      1  C   UNL A   1     -24.712  -2.569  29.675  0.00  0.00    +0.179 A 
ATOM      2  C   UNL A   1     -25.812  -3.121  29.994  0.00  0.00    +0.173 A 
ATOM      3  C   UNL A   1     -26.256  -4.434  29.728  0.00  0.00    +0.040 A 
ATOM      4  C   UNL A   1     -25.358  -5.202  28.956  0.00  0.00    +0.003 A 
ATOM      5  C   UNL A   1     -23.781  -3.470  28.942  0.00  0.00    +0.041 A 
ATOM      6  C   UNL A   1     -24.140  -4.690  28.568  0.00  0.00    +0.003 A 
ENDROOT
BRANCH   1   7
ATOM      7  O   UNL A   1     -24.277  -1.402  30.012  0.00  0.00    -0.450 OA
BRANCH   7   9
ATOM      8  C   UNL A   1     -23.000   0.044  29.045  0.00  0.00    +0.037 A 
ATOM      9  C   UNL A   1     -23.885  -0.514  28.921  0.00  0.00    +0.145 A 
ATOM     10  C   UNL A   1     -22.623   0.936  27.937  0.00  0.00    +0.007 A 
ATOM     11  C   UNL A   1     -23.499   1.124  26.828  0.00  0.00    +0.072 A 
ATOM     12  C   UNL A   1     -24.981  -0.464  27.916  0.00  0.00    +0.037 A 
ATOM     13  C   UNL A   1     -24.664   0.346  26.866  0.00  0.00    +0.007 A 
BRANCH  11  14
ATOM     14  C   UNL A   1     -23.178   1.999  25.745  0.00  0.00    +0.419 C 
ATOM     15  F   UNL A   1     -23.491   1.615  24.724  0.00  0.00    -0.166 F 
ATOM     16  F   UNL A   1     -23.713   3.286  25.942  0.00  0.00    -0.166 F 
ATOM     17  F   UNL A   1     -21.818   2.216  25.722  0.00  0.00    -0.166 F 
ENDBRANCH  11  14
ENDBRANCH   7   9
ENDBRANCH   1   7
BRANCH   2  18
ATOM     18  O   UNL A   1     -26.698  -2.407  30.767  0.00  0.00    -0.470 OA
BRANCH  18  19
ATOM     19  C   UNL A   1     -27.618  -1.595  30.229  0.00  0.00    +0.227 C 
BRANCH  19  20
ATOM     20  C   UNL A   1     -27.966  -0.579  30.939  0.00  0.00    +0.139 C 
BRANCH  20  21
ATOM     21  N   UNL A   1     -27.250   0.289  31.305  0.00  0.00    -0.301 N 
ATOM     22  C   UNL A   1     -26.733   1.182  30.615  0.00  0.00    +0.112 C 
BRANCH  21  23
ATOM     23  C   UNL A   1     -26.710   0.387  32.721  0.00  0.00    +0.061 C 
ATOM     24  C   UNL A   1     -25.372   0.208  32.899  0.00  0.00    +0.017 C 
ENDBRANCH  21  23
ENDBRANCH  20  21
ENDBRANCH  19  20
ENDBRANCH  18  19
ENDBRANCH   2  18
TORSDOF 8
ENDMDL
ENDMDL
