REMARK  Name = No_1268-gen_results/8p0m/2024-11-26-14-13-15/
REMARK  8 active torsions:
REMARK  status: ('A' for Active; 'I' for Inactive)
REMARK    1  A    between atoms: C_2  and  O_7
REMARK    2  A    between atoms: C_4  and  C_14
REMARK    3  A    between atoms: O_7  and  C_8
REMARK    4  A    between atoms: C_9  and  O_18
REMARK    5  A    between atoms: O_18  and  C_19
REMARK    6  A    between atoms: C_19  and  C_20
REMARK    7  A    between atoms: C_20  and  N_21
REMARK    8  A    between atoms: N_21  and  C_23
REMARK                            x       y       z     vdW  Elec       q    Type
REMARK                         _______ _______ _______ _____ _____    ______ ____
ROOT
ATOM      1  C   UNL A   1     -30.505  -0.024  28.962  0.00  0.00    +0.179 A 
ATOM      2  C   UNL A   1     -31.377  -0.399  28.117  0.00  0.00    +0.173 A 
ATOM      3  C   UNL A   1     -31.939   0.323  27.041  0.00  0.00    +0.040 A 
ATOM      4  C   UNL A   1     -31.491   1.658  26.946  0.00  0.00    +0.003 A 
ATOM      5  C   UNL A   1     -30.015   1.364  28.741  0.00  0.00    +0.041 A 
ATOM      6  C   UNL A   1     -30.543   2.152  27.815  0.00  0.00    +0.003 A 
ENDROOT
BRANCH   1   7
ATOM      7  O   UNL A   1     -29.927  -0.726  29.877  0.00  0.00    -0.450 OA
BRANCH   7   9
ATOM      8  C   UNL A   1     -28.016  -0.814  28.878  0.00  0.00    +0.037 A 
ATOM      9  C   UNL A   1     -28.469  -0.785  29.829  0.00  0.00    +0.145 A 
ATOM     10  C   UNL A   1     -26.546  -0.876  28.850  0.00  0.00    +0.007 A 
ATOM     11  C   UNL A   1     -25.804  -1.032  30.057  0.00  0.00    +0.072 A 
ATOM     12  C   UNL A   1     -27.944  -0.987  31.207  0.00  0.00    +0.037 A 
ATOM     13  C   UNL A   1     -26.582  -1.039  31.223  0.00  0.00    +0.007 A 
BRANCH  11  14
ATOM     14  C   UNL A   1     -24.378  -1.120  30.068  0.00  0.00    +0.419 C 
ATOM     15  F   UNL A   1     -23.964  -1.936  30.739  0.00  0.00    -0.166 F 
ATOM     16  F   UNL A   1     -23.858  -1.276  28.770  0.00  0.00    -0.166 F 
ATOM     17  F   UNL A   1     -23.851   0.083  30.483  0.00  0.00    -0.166 F 
ENDBRANCH  11  14
ENDBRANCH   7   9
ENDBRANCH   1   7
BRANCH   2  18
ATOM     18  O   UNL A   1     -31.816  -1.702  28.168  0.00  0.00    -0.470 OA
BRANCH  18  19
ATOM     19  C   UNL A   1     -32.153  -2.295  29.322  0.00  0.00    +0.227 C 
BRANCH  19  20
ATOM     20  C   UNL A   1     -33.332  -2.041  29.769  0.00  0.00    +0.139 C 
BRANCH  20  21
ATOM     21  N   UNL A   1     -34.239  -1.621  29.135  0.00  0.00    -0.301 N 
ATOM     22  C   UNL A   1     -34.548  -1.921  27.971  0.00  0.00    +0.112 C 
BRANCH  21  23
ATOM     23  C   UNL A   1     -35.142  -0.496  29.610  0.00  0.00    +0.061 C 
ATOM     24  C   UNL A   1     -34.956  -0.031  30.876  0.00  0.00    +0.017 C 
ENDBRANCH  21  23
ENDBRANCH  20  21
ENDBRANCH  19  20
ENDBRANCH  18  19
ENDBRANCH   2  18
TORSDOF 8
