MODEL 1269
MODEL 1
REMARK VINA RESULT:    -6.550      0.000      0.000
REMARK INTER + INTRA:          -6.999
REMARK INTER:                  -6.933
REMARK INTRA:                  -0.066
REMARK UNBOUND:                -0.066
REMARK  Name = No_1269-gen_results/8p0m/2024-11-26-14-13-15/
REMARK  1 active torsions:
REMARK  status: ('A' for Active; 'I' for Inactive)
REMARK    1  A    between atoms: C_8  and  C_11
REMARK                            x       y       z     vdW  Elec       q    Type
REMARK                         _______ _______ _______ _____ _____    ______ ____
ROOT
ATOM      1  C   UNL A   1     -29.795 -11.622  28.012  0.00  0.00    +0.000 A 
ATOM      2  C   UNL A   1     -29.001 -12.000  28.841  0.00  0.00    +0.000 A 
ATOM      3  C   UNL A   1     -28.913 -11.464  30.126  0.00  0.00    +0.000 A 
ATOM      4  C   UNL A   1     -29.772 -10.354  30.488  0.00  0.00    +0.000 A 
ATOM      5  C   UNL A   1     -30.667  -9.960  29.466  0.00  0.00    +0.000 A 
ATOM      6  C   UNL A   1     -30.671 -10.522  28.284  0.00  0.00    +0.000 A 
ATOM      7  C   UNL A   1     -28.108 -11.782  31.351  0.00  0.00    +0.005 A 
ATOM      8  C   UNL A   1     -28.156 -11.299  32.532  0.00  0.00    +0.057 A 
ATOM      9  C   UNL A   1     -29.168 -10.271  32.725  0.00  0.00    +0.005 A 
ATOM     10  C   UNL A   1     -29.919  -9.834  31.778  0.00  0.00    +0.000 A 
ENDROOT
BRANCH   8  11
ATOM     11  C   UNL A   1     -27.375 -11.739  33.659  0.00  0.00    +0.284 C 
ATOM     12  N   UNL A   1     -26.908 -10.867  34.554  0.00  0.00    -0.084 NA
ATOM     13  O   UNL A   1     -26.711 -12.906  33.599  0.00  0.00    -0.267 OA
ENDBRANCH   8  11
TORSDOF 1
ENDMDL
ENDMDL
