REMARK  Name = No_1269-gen_results/8p0m/2024-11-26-14-13-15/
REMARK  1 active torsions:
REMARK  status: ('A' for Active; 'I' for Inactive)
REMARK    1  A    between atoms: C_8  and  C_11
REMARK                            x       y       z     vdW  Elec       q    Type
REMARK                         _______ _______ _______ _____ _____    ______ ____
ROOT
ATOM      1  C   UNL A   1     -28.016  -0.814  28.878  0.00  0.00    +0.000 A 
ATOM      2  C   UNL A   1     -27.064  -0.119  28.608  0.00  0.00    +0.000 A 
ATOM      3  C   UNL A   1     -25.765  -0.390  29.036  0.00  0.00    +0.000 A 
ATOM      4  C   UNL A   1     -25.530  -1.530  29.901  0.00  0.00    +0.000 A 
ATOM      5  C   UNL A   1     -26.689  -2.289  30.181  0.00  0.00    +0.000 A 
ATOM      6  C   UNL A   1     -27.873  -1.951  29.737  0.00  0.00    +0.000 A 
ATOM      7  C   UNL A   1     -24.421   0.230  28.793  0.00  0.00    +0.005 A 
ATOM      8  C   UNL A   1     -23.252  -0.140  29.149  0.00  0.00    +0.057 A 
ATOM      9  C   UNL A   1     -23.216  -1.377  29.916  0.00  0.00    +0.005 A 
ATOM     10  C   UNL A   1     -24.272  -2.023  30.263  0.00  0.00    +0.000 A 
ENDROOT
BRANCH   8  11
ATOM     11  C   UNL A   1     -22.014   0.502  28.790  0.00  0.00    +0.284 C 
ATOM     12  N   UNL A   1     -21.999   1.561  27.978  0.00  0.00    -0.084 NA
ATOM     13  O   UNL A   1     -20.861  -0.184  28.854  0.00  0.00    -0.267 OA
ENDBRANCH   8  11
TORSDOF 1
