MODEL 126
MODEL 1
REMARK VINA RESULT:    -6.910      0.000      0.000
REMARK INTER + INTRA:          -6.910
REMARK INTER:                  -6.910
REMARK INTRA:                   0.000
REMARK UNBOUND:                 0.000
REMARK  Name = No_126-gen_results/8p0m/2024-11-26-14-13-15/
REMARK  0 active torsions:
REMARK  status: ('A' for Active; 'I' for Inactive)
REMARK                            x       y       z     vdW  Elec       q    Type
REMARK                         _______ _______ _______ _____ _____    ______ ____
ROOT
ATOM      1  C   UNL A   1     -26.626  -2.766  29.832  0.00  0.00    +0.002 A 
ATOM      2  C   UNL A   1     -26.617  -3.819  29.868  0.00  0.00    +0.000 A 
ATOM      3  C   UNL A   1     -25.399  -2.188  29.285  0.00  0.00    +0.018 A 
ATOM      4  C   UNL A   1     -25.212  -0.741  29.037  0.00  0.00    +0.003 A 
ATOM      5  C   UNL A   1     -25.662  -4.854  29.497  0.00  0.00    +0.002 A 
ATOM      6  C   UNL A   1     -24.484  -4.347  28.988  0.00  0.00    +0.019 A 
ATOM      7  C   UNL A   1     -24.346  -3.020  28.822  0.00  0.00    +0.081 A 
ATOM      8  C   UNL A   1     -23.883  -0.306  28.900  0.00  0.00    +0.018 A 
ATOM      9  C   UNL A   1     -23.666   0.873  28.289  0.00  0.00    +0.002 A 
ATOM     10  C   UNL A   1     -22.248   1.272  27.913  0.00  0.00    +0.000 A 
ATOM     11  C   UNL A   1     -21.207   0.412  28.321  0.00  0.00    +0.002 A 
ATOM     12  C   UNL A   1     -21.509  -0.733  29.007  0.00  0.00    +0.019 A 
ATOM     13  C   UNL A   1     -22.830  -1.135  29.258  0.00  0.00    +0.081 A 
ATOM     14  N   UNL A   1     -23.073  -2.435  28.780  0.00  0.00    -0.245 NA
ENDROOT
TORSDOF 0
ENDMDL
ENDMDL
