REMARK  Name = No_1270-gen_results/8p0m/2024-11-26-14-13-15/
REMARK  1 active torsions:
REMARK  status: ('A' for Active; 'I' for Inactive)
REMARK    1  A    between atoms: C_18  and  C_19
REMARK                            x       y       z     vdW  Elec       q    Type
REMARK                         _______ _______ _______ _____ _____    ______ ____
ROOT
ATOM      1  C   UNL A   1     -28.016  -0.814  28.878  0.00  0.00    +0.047 A 
ATOM      2  C   UNL A   1     -28.469  -0.785  29.829  0.00  0.00    +0.015 A 
ATOM      3  N   UNL A   1     -26.608  -0.945  28.857  0.00  0.00    -0.290 N 
ATOM      4  C   UNL A   1     -25.727  -0.358  27.999  0.00  0.00    +0.024 C 
ATOM      5  C   UNL A   1     -24.341  -0.477  28.292  0.00  0.00    -0.014 C 
ATOM      6  C   UNL A   1     -24.142  -1.491  29.299  0.00  0.00    +0.049 C 
ATOM      7  C   UNL A   1     -25.588  -1.757  29.669  0.00  0.00    +0.100 C 
ATOM      8  C   UNL A   1     -29.198  -0.335  30.466  0.00  0.00    +0.001 A 
ATOM      9  C   UNL A   1     -29.627   1.035  29.942  0.00  0.00    -0.000 A 
ATOM     10  C   UNL A   1     -29.451   1.193  28.644  0.00  0.00    -0.003 A 
ATOM     11  C   UNL A   1     -28.352   0.417  28.168  0.00  0.00    -0.009 A 
ATOM     12  C   UNL A   1     -27.775   0.716  26.849  0.00  0.00    +0.029 C 
ATOM     13  C   UNL A   1     -26.415   0.826  27.229  0.00  0.00    +0.035 C 
ATOM     14  C   UNL A   1     -25.402   0.962  25.916  0.00  0.00    +0.006 C 
ATOM     15  C   UNL A   1     -26.010   2.212  27.891  0.00  0.00    +0.009 C 
ATOM     16  C   UNL A   1     -28.300   1.896  26.221  0.00  0.00    +0.005 C 
ATOM     17  C   UNL A   1     -24.791   2.447  28.379  0.00  0.00    +0.001 C 
ATOM     18  C   UNL A   1     -27.077   3.192  28.034  0.00  0.00    +0.022 C 
ATOM     19  C   UNL A   1     -28.196   3.149  27.163  0.00  0.00    +0.005 C 
ENDROOT
BRANCH  18  20
ATOM     20  C   UNL A   1     -26.732   4.381  28.821  0.00  0.00    -0.026 C 
ATOM     21  C   UNL A   1     -27.077   5.439  28.499  0.00  0.00    -0.005 C 
ENDBRANCH  18  20
TORSDOF 1
