MODEL 1270
MODEL 1
REMARK VINA RESULT:    -6.906      0.000      0.000
REMARK INTER + INTRA:          -7.552
REMARK INTER:                  -7.310
REMARK INTRA:                  -0.243
REMARK UNBOUND:                -0.243
REMARK  Name = No_1270-gen_results/8p0m/2024-11-26-14-13-15/
REMARK  1 active torsions:
REMARK  status: ('A' for Active; 'I' for Inactive)
REMARK    1  A    between atoms: C_18  and  C_19
REMARK                            x       y       z     vdW  Elec       q    Type
REMARK                         _______ _______ _______ _____ _____    ______ ____
ROOT
ATOM      1  C   UNL A   1     -24.553   1.933  31.112  0.00  0.00    +0.047 A 
ATOM      2  C   UNL A   1     -25.118   1.597  31.935  0.00  0.00    +0.015 A 
ATOM      3  N   UNL A   1     -25.286   2.352  29.977  0.00  0.00    -0.290 N 
ATOM      4  C   UNL A   1     -24.969   2.169  28.664  0.00  0.00    +0.024 C 
ATOM      5  C   UNL A   1     -25.955   2.501  27.695  0.00  0.00    -0.014 C 
ATOM      6  C   UNL A   1     -27.002   3.278  28.312  0.00  0.00    +0.049 C 
ATOM      7  C   UNL A   1     -26.580   3.150  29.763  0.00  0.00    +0.100 C 
ATOM      8  C   UNL A   1     -25.234   0.874  32.712  0.00  0.00    +0.001 A 
ATOM      9  C   UNL A   1     -24.444  -0.399  32.413  0.00  0.00    -0.000 A 
ATOM     10  C   UNL A   1     -23.423  -0.219  31.596  0.00  0.00    -0.003 A 
ATOM     11  C   UNL A   1     -23.666   0.854  30.687  0.00  0.00    -0.009 A 
ATOM     12  C   UNL A   1     -22.825   0.988  29.488  0.00  0.00    +0.029 C 
ATOM     13  C   UNL A   1     -23.851   1.076  28.515  0.00  0.00    +0.035 C 
ATOM     14  C   UNL A   1     -23.259   1.453  27.006  0.00  0.00    +0.006 C 
ATOM     15  C   UNL A   1     -24.501  -0.311  28.093  0.00  0.00    +0.009 C 
ATOM     16  C   UNL A   1     -21.913  -0.101  29.273  0.00  0.00    +0.005 C 
ATOM     17  C   UNL A   1     -25.533  -0.395  27.251  0.00  0.00    +0.001 C 
ATOM     18  C   UNL A   1     -23.975  -1.495  28.756  0.00  0.00    +0.022 C 
ATOM     19  C   UNL A   1     -22.654  -1.486  29.273  0.00  0.00    +0.005 C 
ENDROOT
BRANCH  18  20
ATOM     20  C   UNL A   1     -24.716  -2.735  28.501  0.00  0.00    -0.026 C 
ATOM     21  C   UNL A   1     -24.330  -3.759  28.882  0.00  0.00    -0.005 C 
ENDBRANCH  18  20
TORSDOF 1
ENDMDL
ENDMDL
