REMARK  Name = No_1272-gen_results/8p0m/2024-11-26-14-13-15/
REMARK  7 active torsions:
REMARK  status: ('A' for Active; 'I' for Inactive)
REMARK    1  A    between atoms: C_2  and  O_15
REMARK    2  A    between atoms: C_6  and  C_11
REMARK    3  A    between atoms: C_10  and  C_29
REMARK    4  A    between atoms: O_15  and  C_16
REMARK    5  A    between atoms: C_16  and  C_17
REMARK    6  A    between atoms: C_17  and  N_18
REMARK    7  A    between atoms: C_20  and  C_24
REMARK                            x       y       z     vdW  Elec       q    Type
REMARK                         _______ _______ _______ _____ _____    ______ ____
ROOT
ATOM      1  C   UNL A   1     -28.016  -0.814  28.878  0.00  0.00    +0.038 A 
ATOM      2  C   UNL A   1     -28.469  -0.785  29.829  0.00  0.00    +0.148 A 
ATOM      3  C   UNL A   1     -27.136   0.236  28.535  0.00  0.00    +0.003 A 
ATOM      4  C   UNL A   1     -26.875   1.282  29.398  0.00  0.00    +0.005 A 
ATOM      5  C   UNL A   1     -28.361   0.199  30.924  0.00  0.00    +0.037 A 
ATOM      6  C   UNL A   1     -25.972   2.385  29.104  0.00  0.00    +0.055 A 
ATOM      7  C   UNL A   1     -27.512   1.232  30.632  0.00  0.00    +0.007 A 
ATOM      8  C   UNL A   1     -25.492   3.075  29.809  0.00  0.00    +0.004 A 
ATOM      9  C   UNL A   1     -25.949   3.065  31.287  0.00  0.00    +0.004 A 
ATOM     10  C   UNL A   1     -26.934   2.115  31.666  0.00  0.00    +0.071 A 
ENDROOT
BRANCH   6  11
ATOM     11  C   UNL A   1     -25.403   2.409  27.666  0.00  0.00    +0.265 C 
ATOM     12  N   UNL A   1     -24.484   2.995  27.374  0.00  0.00    -0.200 NA
ATOM     13  O   UNL A   1     -26.301   2.217  26.741  0.00  0.00    -0.268 OA
ATOM     14  C   UNL A   1     -23.933   3.166  25.961  0.00  0.00    +0.139 C 
ENDBRANCH   6  11
BRANCH  10  15
ATOM     15  C   UNL A   1     -27.454   2.087  33.053  0.00  0.00    +0.419 C 
ATOM     16  F   UNL A   1     -27.031   1.079  33.632  0.00  0.00    -0.166 F 
ATOM     17  F   UNL A   1     -28.782   2.134  33.044  0.00  0.00    -0.166 F 
ATOM     18  F   UNL A   1     -27.059   3.170  33.730  0.00  0.00    -0.166 F 
ENDBRANCH  10  15
BRANCH   2  19
ATOM     19  O   UNL A   1     -29.411  -1.823  30.175  0.00  0.00    -0.423 OA
BRANCH  19  20
ATOM     20  C   UNL A   1     -29.022  -3.068  30.599  0.00  0.00    +0.336 C 
ATOM     21  O   UNL A   1     -27.871  -3.116  31.126  0.00  0.00    -0.248 OA
BRANCH  20  22
ATOM     22  C   UNL A   1     -29.926  -4.103  30.324  0.00  0.00    +0.158 C 
ATOM     23  C   UNL A   1     -29.385  -5.348  31.099  0.00  0.00    +0.029 C 
BRANCH  22  24
ATOM     24  N   UNL A   1     -30.411  -4.294  29.243  0.00  0.00    -0.264 NA
ATOM     25  C   UNL A   1     -31.697  -4.069  29.077  0.00  0.00    +0.084 C 
ATOM     26  C   UNL A   1     -32.256  -4.404  27.791  0.00  0.00    +0.119 C 
ATOM     27  C   UNL A   1     -31.662  -5.526  27.140  0.00  0.00    +0.014 C 
ATOM     28  C   UNL A   1     -30.357  -5.965  27.552  0.00  0.00    +0.018 C 
ATOM     29  C   UNL A   1     -29.816  -5.216  28.384  0.00  0.00    +0.073 C 
BRANCH  26  30
ATOM     30  C   UNL A   1     -33.605  -4.032  27.397  0.00  0.00    +0.366 C 
ATOM     31  O   UNL A   1     -34.080  -3.044  27.454  0.00  0.00    -0.246 OA
ATOM     32  O   UNL A   1     -34.341  -5.078  27.040  0.00  0.00    -0.246 OA
ENDBRANCH  26  30
ENDBRANCH  22  24
ENDBRANCH  20  22
ENDBRANCH  19  20
ENDBRANCH   2  19
TORSDOF 7
