MODEL 1272
MODEL 1
REMARK VINA RESULT:    -7.661      0.000      0.000
REMARK INTER + INTRA:         -11.874
REMARK INTER:                 -10.796
REMARK INTRA:                  -1.078
REMARK UNBOUND:                -1.078
REMARK  Name = No_1272-gen_results/8p0m/2024-11-26-14-13-15/
REMARK  7 active torsions:
REMARK  status: ('A' for Active; 'I' for Inactive)
REMARK    1  A    between atoms: C_2  and  O_15
REMARK    2  A    between atoms: C_6  and  C_11
REMARK    3  A    between atoms: C_10  and  C_29
REMARK    4  A    between atoms: O_15  and  C_16
REMARK    5  A    between atoms: C_16  and  C_17
REMARK    6  A    between atoms: C_17  and  N_18
REMARK    7  A    between atoms: C_20  and  C_24
REMARK                            x       y       z     vdW  Elec       q    Type
REMARK                         _______ _______ _______ _____ _____    ______ ____
ROOT
ATOM      1  C   UNL A   1     -30.311 -11.066  26.636  0.00  0.00    +0.038 A 
ATOM      2  C   UNL A   1     -29.792 -11.865  27.086  0.00  0.00    +0.148 A 
ATOM      3  C   UNL A   1     -30.788 -10.034  27.475  0.00  0.00    +0.003 A 
ATOM      4  C   UNL A   1     -30.602 -10.060  28.843  0.00  0.00    +0.005 A 
ATOM      5  C   UNL A   1     -29.459 -12.131  28.499  0.00  0.00    +0.037 A 
ATOM      6  C   UNL A   1     -31.061  -9.023  29.755  0.00  0.00    +0.055 A 
ATOM      7  C   UNL A   1     -29.900 -11.150  29.345  0.00  0.00    +0.007 A 
ATOM      8  C   UNL A   1     -30.716  -8.817  30.776  0.00  0.00    +0.004 A 
ATOM      9  C   UNL A   1     -29.784  -9.840  31.467  0.00  0.00    +0.004 A 
ATOM     10  C   UNL A   1     -29.375 -10.973  30.715  0.00  0.00    +0.071 A 
ENDROOT
BRANCH   6  11
ATOM     11  C   UNL A   1     -31.927  -7.914  29.114  0.00  0.00    +0.265 C 
ATOM     12  N   UNL A   1     -31.533  -6.886  28.868  0.00  0.00    -0.200 NA
ATOM     13  O   UNL A   1     -33.197  -8.010  29.393  0.00  0.00    -0.268 OA
ATOM     14  C   UNL A   1     -32.350  -5.705  28.350  0.00  0.00    +0.139 C 
ENDBRANCH   6  11
BRANCH  10  15
ATOM     15  C   UNL A   1     -28.526 -12.017  31.334  0.00  0.00    +0.419 C 
ATOM     16  F   UNL A   1     -27.395 -11.979  30.833  0.00  0.00    -0.166 F 
ATOM     17  F   UNL A   1     -29.092 -13.210  31.191  0.00  0.00    -0.166 F 
ATOM     18  F   UNL A   1     -28.420 -11.823  32.652  0.00  0.00    -0.166 F 
ENDBRANCH  10  15
BRANCH   2  19
ATOM     19  O   UNL A   1     -29.344 -12.953  26.249  0.00  0.00    -0.423 OA
BRANCH  19  20
ATOM     20  C   UNL A   1     -30.182 -13.946  25.809  0.00  0.00    +0.336 C 
ATOM     21  O   UNL A   1     -30.309 -14.926  26.601  0.00  0.00    -0.248 OA
BRANCH  20  22
ATOM     22  C   UNL A   1     -30.715 -13.754  24.527  0.00  0.00    +0.158 C 
ATOM     23  C   UNL A   1     -32.087 -14.503  24.527  0.00  0.00    +0.029 C 
BRANCH  22  24
ATOM     24  N   UNL A   1     -30.061 -13.801  23.521  0.00  0.00    -0.264 NA
ATOM     25  C   UNL A   1     -30.159 -12.813  22.656  0.00  0.00    +0.084 C 
ATOM     26  C   UNL A   1     -29.433 -12.957  21.419  0.00  0.00    +0.119 C 
ATOM     27  C   UNL A   1     -29.314 -14.292  20.932  0.00  0.00    +0.014 C 
ATOM     28  C   UNL A   1     -29.520 -15.389  21.836  0.00  0.00    +0.018 C 
ATOM     29  C   UNL A   1     -29.670 -15.041  23.020  0.00  0.00    +0.073 C 
BRANCH  26  30
ATOM     30  C   UNL A   1     -29.287 -11.873  20.461  0.00  0.00    +0.366 C 
ATOM     31  O   UNL A   1     -29.948 -11.010  20.307  0.00  0.00    -0.246 OA
ATOM     32  O   UNL A   1     -28.276 -12.065  19.621  0.00  0.00    -0.246 OA
ENDBRANCH  26  30
ENDBRANCH  22  24
ENDBRANCH  20  22
ENDBRANCH  19  20
ENDBRANCH   2  19
TORSDOF 7
ENDMDL
ENDMDL
