MODEL 1273
MODEL 1
REMARK VINA RESULT:    -6.421      0.000      0.000
REMARK INTER + INTRA:          -7.670
REMARK INTER:                  -7.172
REMARK INTRA:                  -0.497
REMARK UNBOUND:                -0.497
REMARK  Name = No_1273-gen_results/8p0m/2024-11-26-14-13-15/
REMARK  2 active torsions:
REMARK  status: ('A' for Active; 'I' for Inactive)
REMARK    1  A    between atoms: C_3  and  C_4
REMARK    2  A    between atoms: C_4  and  C_5
REMARK                            x       y       z     vdW  Elec       q    Type
REMARK                         _______ _______ _______ _____ _____    ______ ____
ROOT
ATOM      1  C   UNL A   1     -23.985  -1.874  29.666  0.00  0.00    +0.181 C 
ATOM      2  O   UNL A   1     -24.137  -1.427  30.990  0.00  0.00    -0.291 OA
ENDROOT
BRANCH   1   5
ATOM      3  C   UNL A   1     -23.857   0.043  28.015  0.00  0.00    +0.003 A 
ATOM      4  C   UNL A   1     -23.279   0.852  27.665  0.00  0.00    +0.000 A 
ATOM      5  C   UNL A   1     -23.216  -0.834  28.952  0.00  0.00    +0.035 A 
ATOM      6  C   UNL A   1     -21.860   1.106  27.701  0.00  0.00    +0.000 A 
ATOM      7  C   UNL A   1     -21.870  -0.773  29.162  0.00  0.00    +0.003 A 
ATOM      8  C   UNL A   1     -21.168   0.240  28.531  0.00  0.00    +0.000 A 
ENDBRANCH   1   5
BRANCH   1   9
ATOM      9  C   UNL A   1     -24.232  -2.878  29.391  0.00  0.00    +0.106 C 
ATOM     10  C   UNL A   1     -23.950  -3.947  28.831  0.00  0.00    -0.014 C 
ATOM     11  C   UNL A   1     -24.714  -5.107  28.883  0.00  0.00    -0.004 C 
ATOM     12  C   UNL A   1     -25.956  -4.788  29.300  0.00  0.00    -0.004 C 
ATOM     13  C   UNL A   1     -25.698  -3.286  29.985  0.00  0.00    -0.014 C 
ENDBRANCH   1   9
TORSDOF 2
ENDMDL
ENDMDL
