REMARK  Name = No_1273-gen_results/8p0m/2024-11-26-14-13-15/
REMARK  2 active torsions:
REMARK  status: ('A' for Active; 'I' for Inactive)
REMARK    1  A    between atoms: C_3  and  C_4
REMARK    2  A    between atoms: C_4  and  C_5
REMARK                            x       y       z     vdW  Elec       q    Type
REMARK                         _______ _______ _______ _____ _____    ______ ____
ROOT
ATOM      1  C   UNL A   1     -27.442   0.510  26.795  0.00  0.00    +0.181 C 
ATOM      2  O   UNL A   1     -28.191  -0.128  25.791  0.00  0.00    -0.291 OA
ENDROOT
BRANCH   1   5
ATOM      3  C   UNL A   1     -28.016  -0.814  28.878  0.00  0.00    +0.003 A 
ATOM      4  C   UNL A   1     -28.469  -0.785  29.829  0.00  0.00    +0.000 A 
ATOM      5  C   UNL A   1     -28.196   0.348  28.055  0.00  0.00    +0.035 A 
ATOM      6  C   UNL A   1     -29.495   0.066  30.379  0.00  0.00    +0.000 A 
ATOM      7  C   UNL A   1     -29.113   1.303  28.382  0.00  0.00    +0.003 A 
ATOM      8  C   UNL A   1     -29.773   1.170  29.592  0.00  0.00    +0.000 A 
ENDBRANCH   1   5
BRANCH   1   9
ATOM      9  C   UNL A   1     -26.439   0.833  26.614  0.00  0.00    +0.106 C 
ATOM     10  C   UNL A   1     -25.214   0.662  26.702  0.00  0.00    -0.014 C 
ATOM     11  C   UNL A   1     -24.246   1.473  26.122  0.00  0.00    -0.004 C 
ATOM     12  C   UNL A   1     -24.813   2.650  25.785  0.00  0.00    -0.004 C 
ATOM     13  C   UNL A   1     -26.435   2.250  25.801  0.00  0.00    -0.014 C 
ENDBRANCH   1   9
TORSDOF 2
