MODEL 1274
MODEL 1
REMARK VINA RESULT:    -4.382      0.000      0.000
REMARK INTER + INTRA:          -4.658
REMARK INTER:                  -4.638
REMARK INTRA:                  -0.020
REMARK UNBOUND:                -0.020
REMARK  Name = No_1274-gen_results/8p0m/2024-11-26-14-13-15/
REMARK  1 active torsions:
REMARK  status: ('A' for Active; 'I' for Inactive)
REMARK    1  A    between atoms: C_1  and  C_2
REMARK                            x       y       z     vdW  Elec       q    Type
REMARK                         _______ _______ _______ _____ _____    ______ ____
ROOT
ATOM      1  C   UNL A   1     -28.105 -11.606  32.580  0.00  0.00    +0.069 A 
ATOM      2  C   UNL A   1     -28.010 -12.236  31.355  0.00  0.00    +0.011 A 
ATOM      3  C   UNL A   1     -28.655 -11.721  30.232  0.00  0.00    +0.012 A 
ATOM      4  C   UNL A   1     -29.635 -10.649  30.326  0.00  0.00    +0.058 A 
ATOM      5  C   UNL A   1     -29.768 -10.059  31.593  0.00  0.00    +0.012 A 
ATOM      6  C   UNL A   1     -28.979 -10.494  32.614  0.00  0.00    +0.011 A 
ATOM      7 CL   UNL A   1     -30.586 -10.194  29.014  0.00  0.00    -0.082 Cl
ENDROOT
BRANCH   1   8
ATOM      8  C   UNL A   1     -27.258 -11.683  33.440  0.00  0.00    +0.100 C 
ATOM      9  N   UNL A   1     -27.624 -12.357  34.582  0.00  0.00    -0.191 NA
ENDBRANCH   1   8
TORSDOF 1
ENDMDL
ENDMDL
