REMARK  Name = No_1274-gen_results/8p0m/2024-11-26-14-13-15/
REMARK  1 active torsions:
REMARK  status: ('A' for Active; 'I' for Inactive)
REMARK    1  A    between atoms: C_1  and  C_2
REMARK                            x       y       z     vdW  Elec       q    Type
REMARK                         _______ _______ _______ _____ _____    ______ ____
ROOT
ATOM      1  C   UNL A   1     -27.064  -0.119  28.608  0.00  0.00    +0.069 A 
ATOM      2  C   UNL A   1     -27.001   0.691  27.491  0.00  0.00    +0.011 A 
ATOM      3  C   UNL A   1     -25.777   1.021  26.913  0.00  0.00    +0.012 A 
ATOM      4  C   UNL A   1     -24.509   0.736  27.569  0.00  0.00    +0.058 A 
ATOM      5  C   UNL A   1     -24.593  -0.036  28.739  0.00  0.00    +0.012 A 
ATOM      6  C   UNL A   1     -25.811  -0.477  29.158  0.00  0.00    +0.011 A 
ATOM      7 CL   UNL A   1     -23.051   1.345  26.991  0.00  0.00    -0.082 Cl
ENDROOT
BRANCH   1   8
ATOM      8  C   UNL A   1     -28.016  -0.814  28.878  0.00  0.00    +0.100 C 
ATOM      9  N   UNL A   1     -28.657  -0.518  30.059  0.00  0.00    -0.191 NA
ENDBRANCH   1   8
TORSDOF 1
