MODEL 1275
MODEL 1
REMARK VINA RESULT:    -4.230      0.000      0.000
REMARK INTER + INTRA:          -4.230
REMARK INTER:                  -4.230
REMARK INTRA:                   0.000
REMARK UNBOUND:                 0.000
REMARK  Name = No_1275-gen_results/8p0m/2024-11-26-14-13-15/
REMARK  0 active torsions:
REMARK  status: ('A' for Active; 'I' for Inactive)
REMARK                            x       y       z     vdW  Elec       q    Type
REMARK                         _______ _______ _______ _____ _____    ______ ____
ROOT
ATOM      1  C   UNL A   1     -24.122  -4.997  28.654  0.00  0.00    +0.000 A 
ATOM      2  C   UNL A   1     -25.028  -5.390  29.022  0.00  0.00    +0.000 A 
ATOM      3  C   UNL A   1     -24.019  -3.544  28.785  0.00  0.00    +0.000 A 
ATOM      4  C   UNL A   1     -25.013  -2.789  29.356  0.00  0.00    +0.000 A 
ATOM      5  C   UNL A   1     -26.226  -4.849  29.665  0.00  0.00    +0.000 A 
ATOM      6  C   UNL A   1     -26.135  -3.443  29.796  0.00  0.00    +0.000 A 
ENDROOT
TORSDOF 0
ENDMDL
ENDMDL
