MODEL 1276
MODEL 1
REMARK VINA RESULT:    -6.998      0.000      0.000
REMARK INTER + INTRA:          -8.683
REMARK INTER:                  -8.225
REMARK INTRA:                  -0.458
REMARK UNBOUND:                -0.458
REMARK  Name = No_1276-gen_results/8p0m/2024-11-26-14-13-15/
REMARK  3 active torsions:
REMARK  status: ('A' for Active; 'I' for Inactive)
REMARK    1  A    between atoms: C_3  and  C_7
REMARK    2  A    between atoms: C_7  and  C_8
REMARK    3  A    between atoms: C_8  and  C_9
REMARK                            x       y       z     vdW  Elec       q    Type
REMARK                         _______ _______ _______ _____ _____    ______ ____
ROOT
ATOM      1  C   UNL A   1     -24.925  -1.364  29.246  0.00  0.00    +0.031 C 
ENDROOT
BRANCH   1   4
ATOM      2  C   UNL A   1     -23.992  -3.643  28.557  0.00  0.00    -0.004 A 
ATOM      3  C   UNL A   1     -24.077  -4.693  28.590  0.00  0.00    -0.000 A 
ATOM      4  C   UNL A   1     -25.037  -2.902  29.204  0.00  0.00    -0.022 A 
ATOM      5  C   UNL A   1     -26.147  -3.472  29.683  0.00  0.00    -0.004 A 
ATOM      6  C   UNL A   1     -24.995  -5.426  29.019  0.00  0.00    -0.000 A 
ATOM      7  C   UNL A   1     -26.082  -4.859  29.628  0.00  0.00    -0.000 A 
ENDBRANCH   1   4
BRANCH   1   8
ATOM      8  C   UNL A   1     -23.750  -0.754  28.628  0.00  0.00    +0.031 C 
BRANCH   8   9
ATOM      9  C   UNL A   1     -23.789   0.479  28.037  0.00  0.00    -0.022 A 
ATOM     10  C   UNL A   1     -24.522   0.674  26.816  0.00  0.00    -0.004 A 
ATOM     11  C   UNL A   1     -24.061   1.360  25.803  0.00  0.00    -0.000 A 
ATOM     12  C   UNL A   1     -22.859   2.064  25.937  0.00  0.00    -0.000 A 
ATOM     13  C   UNL A   1     -22.058   1.920  27.083  0.00  0.00    -0.000 A 
ATOM     14  C   UNL A   1     -22.493   1.063  28.015  0.00  0.00    -0.004 A 
ENDBRANCH   8   9
ENDBRANCH   1   8
TORSDOF 3
ENDMDL
ENDMDL
