REMARK  Name = No_1276-gen_results/8p0m/2024-11-26-14-13-15/
REMARK  3 active torsions:
REMARK  status: ('A' for Active; 'I' for Inactive)
REMARK    1  A    between atoms: C_3  and  C_7
REMARK    2  A    between atoms: C_7  and  C_8
REMARK    3  A    between atoms: C_8  and  C_9
REMARK                            x       y       z     vdW  Elec       q    Type
REMARK                         _______ _______ _______ _____ _____    ______ ____
ROOT
ATOM      1  C   UNL A   1     -27.496   0.387  26.681  0.00  0.00    +0.031 C 
ENDROOT
BRANCH   1   4
ATOM      2  C   UNL A   1     -28.016  -0.814  28.878  0.00  0.00    -0.004 A 
ATOM      3  C   UNL A   1     -28.469  -0.785  29.829  0.00  0.00    -0.000 A 
ATOM      4  C   UNL A   1     -28.196   0.348  28.055  0.00  0.00    -0.022 A 
ATOM      5  C   UNL A   1     -29.019   1.350  28.378  0.00  0.00    -0.004 A 
ATOM      6  C   UNL A   1     -29.233   0.059  30.345  0.00  0.00    -0.000 A 
ATOM      7  C   UNL A   1     -29.533   1.206  29.660  0.00  0.00    -0.000 A 
ENDBRANCH   1   4
BRANCH   1   8
ATOM      8  C   UNL A   1     -26.035   0.398  26.666  0.00  0.00    +0.031 C 
BRANCH   8   9
ATOM      9  C   UNL A   1     -25.303   1.405  27.235  0.00  0.00    -0.022 A 
ATOM     10  C   UNL A   1     -23.872   1.304  27.314  0.00  0.00    -0.004 A 
ATOM     11  C   UNL A   1     -23.187   1.621  28.382  0.00  0.00    -0.000 A 
ATOM     12  C   UNL A   1     -23.838   2.219  29.466  0.00  0.00    -0.000 A 
ATOM     13  C   UNL A   1     -25.239   2.340  29.494  0.00  0.00    -0.000 A 
ATOM     14  C   UNL A   1     -25.906   1.834  28.449  0.00  0.00    -0.004 A 
ENDBRANCH   8   9
ENDBRANCH   1   8
TORSDOF 3
