MODEL 1277
MODEL 1
REMARK VINA RESULT:    -8.503      0.000      0.000
REMARK INTER + INTRA:         -12.433
REMARK INTER:                 -10.491
REMARK INTRA:                  -1.942
REMARK UNBOUND:                -1.942
REMARK  Name = No_1277-gen_results/8p0m/2024-11-26-14-13-15/
REMARK  4 active torsions:
REMARK  status: ('A' for Active; 'I' for Inactive)
REMARK    1  A    between atoms: C_3  and  C_7
REMARK    2  A    between atoms: C_7  and  C_8
REMARK    3  A    between atoms: C_7  and  C_9
REMARK    4  A    between atoms: C_9  and  C_10
REMARK                            x       y       z     vdW  Elec       q    Type
REMARK                         _______ _______ _______ _____ _____    ______ ____
ROOT
ATOM      1  C   UNL A   1     -24.761  -1.279  29.644  0.00  0.00    +0.049 C 
ENDROOT
BRANCH   1   4
ATOM      2  C   UNL A   1     -23.480  -1.436  31.876  0.00  0.00    -0.004 A 
ATOM      3  C   UNL A   1     -23.554  -1.231  32.907  0.00  0.00    -0.000 A 
ATOM      4  C   UNL A   1     -24.687  -1.098  31.123  0.00  0.00    -0.018 A 
ATOM      5  C   UNL A   1     -25.793  -0.548  31.724  0.00  0.00    -0.004 A 
ATOM      6  C   UNL A   1     -24.567  -0.662  33.797  0.00  0.00    -0.000 A 
ATOM      7  C   UNL A   1     -25.740  -0.332  33.077  0.00  0.00    -0.000 A 
ENDBRANCH   1   4
BRANCH   1   8
ATOM      8  C   UNL A   1     -25.047  -2.574  29.229  0.00  0.00    -0.018 A 
ATOM      9  C   UNL A   1     -26.134  -3.318  29.729  0.00  0.00    -0.004 A 
ATOM     10  C   UNL A   1     -26.132  -4.704  29.731  0.00  0.00    -0.000 A 
ATOM     11  C   UNL A   1     -25.082  -5.362  28.997  0.00  0.00    -0.000 A 
ATOM     12  C   UNL A   1     -23.964  -4.635  28.564  0.00  0.00    -0.000 A 
ATOM     13  C   UNL A   1     -23.890  -3.302  28.803  0.00  0.00    -0.004 A 
ENDBRANCH   1   8
BRANCH   1  14
ATOM     14  C   UNL A   1     -24.600  -0.244  28.753  0.00  0.00    +0.030 C 
ATOM     15  C   UNL A   1     -25.620  -0.328  27.785  0.00  0.00    +0.005 C 
BRANCH  14  16
ATOM     16  C   UNL A   1     -23.372   0.263  28.416  0.00  0.00    -0.022 A 
ATOM     17  C   UNL A   1     -23.342   1.321  27.513  0.00  0.00    -0.004 A 
ATOM     18  C   UNL A   1     -22.100   1.884  27.123  0.00  0.00    -0.000 A 
ATOM     19  C   UNL A   1     -21.210   1.528  27.416  0.00  0.00    -0.000 A 
ATOM     20  C   UNL A   1     -20.989   0.381  28.371  0.00  0.00    -0.000 A 
ATOM     21  C   UNL A   1     -22.032  -0.198  28.842  0.00  0.00    -0.004 A 
ENDBRANCH  14  16
ENDBRANCH   1  14
TORSDOF 4
ENDMDL
ENDMDL
