REMARK  Name = No_1277-gen_results/8p0m/2024-11-26-14-13-15/
REMARK  4 active torsions:
REMARK  status: ('A' for Active; 'I' for Inactive)
REMARK    1  A    between atoms: C_3  and  C_7
REMARK    2  A    between atoms: C_7  and  C_8
REMARK    3  A    between atoms: C_7  and  C_9
REMARK    4  A    between atoms: C_9  and  C_10
REMARK                            x       y       z     vdW  Elec       q    Type
REMARK                         _______ _______ _______ _____ _____    ______ ____
ROOT
ATOM      1  C   UNL A   1     -26.317   0.399  27.365  0.00  0.00    +0.049 C 
ENDROOT
BRANCH   1   4
ATOM      2  C   UNL A   1     -28.016  -0.814  28.878  0.00  0.00    -0.004 A 
ATOM      3  C   UNL A   1     -28.469  -0.785  29.829  0.00  0.00    -0.000 A 
ATOM      4  C   UNL A   1     -27.087   0.290  28.638  0.00  0.00    -0.018 A 
ATOM      5  C   UNL A   1     -26.832   1.249  29.587  0.00  0.00    -0.004 A 
ATOM      6  C   UNL A   1     -28.391   0.080  31.006  0.00  0.00    -0.000 A 
ATOM      7  C   UNL A   1     -27.494   1.152  30.784  0.00  0.00    -0.000 A 
ENDBRANCH   1   4
BRANCH   1   8
ATOM      8  C   UNL A   1     -24.941   0.255  27.503  0.00  0.00    -0.018 A 
ATOM      9  C   UNL A   1     -24.346  -0.461  28.560  0.00  0.00    -0.004 A 
ATOM     10  C   UNL A   1     -23.057  -0.191  28.991  0.00  0.00    -0.000 A 
ATOM     11  C   UNL A   1     -22.261   0.689  28.176  0.00  0.00    -0.000 A 
ATOM     12  C   UNL A   1     -22.866   1.458  27.172  0.00  0.00    -0.000 A 
ATOM     13  C   UNL A   1     -24.198   1.343  26.942  0.00  0.00    -0.004 A 
ENDBRANCH   1   8
BRANCH   1  14
ATOM     14  C   UNL A   1     -26.913   0.586  26.140  0.00  0.00    +0.030 C 
ATOM     15  C   UNL A   1     -26.034   1.325  25.325  0.00  0.00    +0.005 C 
BRANCH  14  16
ATOM     16  C   UNL A   1     -28.269   0.717  25.985  0.00  0.00    -0.022 A 
ATOM     17  C   UNL A   1     -28.766   0.732  24.686  0.00  0.00    -0.004 A 
ATOM     18  C   UNL A   1     -30.160   0.870  24.463  0.00  0.00    -0.000 A 
ATOM     19  C   UNL A   1     -30.829   1.019  25.194  0.00  0.00    -0.000 A 
ATOM     20  C   UNL A   1     -30.528   1.062  26.672  0.00  0.00    -0.000 A 
ATOM     21  C   UNL A   1     -29.305   0.905  27.025  0.00  0.00    -0.004 A 
ENDBRANCH  14  16
ENDBRANCH   1  14
TORSDOF 4
