MODEL 1278
MODEL 1
REMARK VINA RESULT:    -6.764      0.000      0.000
REMARK INTER + INTRA:          -7.951
REMARK INTER:                  -7.554
REMARK INTRA:                  -0.396
REMARK UNBOUND:                -0.396
REMARK  Name = No_1278-gen_results/8p0m/2024-11-26-14-13-15/
REMARK  2 active torsions:
REMARK  status: ('A' for Active; 'I' for Inactive)
REMARK    1  A    between atoms: C_3  and  C_10
REMARK    2  A    between atoms: C_5  and  N_7
REMARK                            x       y       z     vdW  Elec       q    Type
REMARK                         _______ _______ _______ _____ _____    ______ ____
ROOT
ATOM      1  C   UNL A   1     -21.951  -0.030  29.212  0.00  0.00    +0.001 A 
ATOM      2  C   UNL A   1     -22.593  -1.048  29.327  0.00  0.00    +0.000 A 
ATOM      3  C   UNL A   1     -23.777  -1.323  28.663  0.00  0.00    +0.001 A 
ATOM      4  C   UNL A   1     -24.253  -0.336  27.751  0.00  0.00    +0.015 A 
ATOM      5  C   UNL A   1     -23.443   0.710  27.522  0.00  0.00    +0.048 A 
ATOM      6  C   UNL A   1     -22.321   0.866  28.164  0.00  0.00    +0.015 A 
ENDROOT
BRANCH   3   7
ATOM      7  C   UNL A   1     -24.629  -2.545  29.038  0.00  0.00    +0.000 A 
ATOM      8  C   UNL A   1     -25.663  -2.546  29.708  0.00  0.00    +0.000 A 
ATOM      9  C   UNL A   1     -26.435  -3.768  29.904  0.00  0.00    +0.000 A 
ATOM     10  C   UNL A   1     -25.898  -4.986  29.532  0.00  0.00    +0.000 A 
ATOM     11  C   UNL A   1     -24.648  -5.029  28.915  0.00  0.00    +0.000 A 
ATOM     12  C   UNL A   1     -24.018  -3.794  28.616  0.00  0.00    +0.000 A 
ENDBRANCH   3   7
BRANCH   5  13
ATOM     13  N   UNL A   1     -23.928   1.641  26.598  0.00  0.00    -0.304 N 
ATOM     14  C   UNL A   1     -23.162   2.157  25.732  0.00  0.00    +0.112 C 
ATOM     15  C   UNL A   1     -25.287   1.495  26.179  0.00  0.00    +0.112 C 
ENDBRANCH   5  13
TORSDOF 2
ENDMDL
ENDMDL
