REMARK  Name = No_1278-gen_results/8p0m/2024-11-26-14-13-15/
REMARK  2 active torsions:
REMARK  status: ('A' for Active; 'I' for Inactive)
REMARK    1  A    between atoms: C_3  and  C_10
REMARK    2  A    between atoms: C_5  and  N_7
REMARK                            x       y       z     vdW  Elec       q    Type
REMARK                         _______ _______ _______ _____ _____    ______ ____
ROOT
ATOM      1  C   UNL A   1     -28.016  -0.814  28.878  0.00  0.00    +0.001 A 
ATOM      2  C   UNL A   1     -27.064  -0.119  28.608  0.00  0.00    +0.000 A 
ATOM      3  C   UNL A   1     -26.972   0.714  27.506  0.00  0.00    +0.001 A 
ATOM      4  C   UNL A   1     -28.105   0.774  26.642  0.00  0.00    +0.015 A 
ATOM      5  C   UNL A   1     -29.204   0.118  27.048  0.00  0.00    +0.048 A 
ATOM      6  C   UNL A   1     -29.213  -0.609  28.128  0.00  0.00    +0.015 A 
ENDROOT
BRANCH   3   7
ATOM      7  C   UNL A   1     -25.643   1.388  27.132  0.00  0.00    +0.000 A 
ATOM      8  C   UNL A   1     -25.462   2.217  26.239  0.00  0.00    +0.000 A 
ATOM      9  C   UNL A   1     -24.165   2.859  26.057  0.00  0.00    +0.000 A 
ATOM     10  C   UNL A   1     -23.060   2.380  26.736  0.00  0.00    +0.000 A 
ATOM     11  C   UNL A   1     -23.209   1.327  27.637  0.00  0.00    +0.000 A 
ATOM     12  C   UNL A   1     -24.522   0.849  27.882  0.00  0.00    +0.000 A 
ENDBRANCH   3   7
BRANCH   5  13
ATOM     13  N   UNL A   1     -30.305   0.226  26.193  0.00  0.00    -0.304 N 
ATOM     14  C   UNL A   1     -31.454  -0.160  26.560  0.00  0.00    +0.112 C 
ATOM     15  C   UNL A   1     -30.311   1.321  25.275  0.00  0.00    +0.112 C 
ENDBRANCH   5  13
TORSDOF 2
