MODEL 1279
MODEL 1
REMARK VINA RESULT:    -5.236      0.000      0.000
REMARK INTER + INTRA:          -5.582
REMARK INTER:                  -5.542
REMARK INTRA:                  -0.040
REMARK UNBOUND:                -0.040
REMARK  Name = No_1279-gen_results/8p0m/2024-11-26-14-13-15/
REMARK  1 active torsions:
REMARK  status: ('A' for Active; 'I' for Inactive)
REMARK    1  A    between atoms: C_2  and  C_7
REMARK                            x       y       z     vdW  Elec       q    Type
REMARK                         _______ _______ _______ _____ _____    ______ ____
ROOT
ATOM      1  C   UNL A   1      -8.584 -10.524  18.419  0.00  0.00    +0.007 A 
ATOM      2  C   UNL A   1      -9.553 -10.111  18.389  0.00  0.00    +0.080 A 
ATOM      3  C   UNL A   1      -7.746 -10.157  19.572  0.00  0.00    +0.000 A 
ATOM      4  C   UNL A   1      -8.289  -9.398  20.650  0.00  0.00    +0.000 A 
ATOM      5  C   UNL A   1     -10.364  -9.359  19.385  0.00  0.00    +0.007 A 
ATOM      6  C   UNL A   1      -9.618  -8.991  20.465  0.00  0.00    +0.000 A 
ENDROOT
BRANCH   2   7
ATOM      7  C   UNL A   1     -10.299 -10.543  17.078  0.00  0.00    +0.388 C 
ATOM      8  O   UNL A   1     -11.464 -10.488  16.956  0.00  0.00    -0.241 OA
ATOM      9  O   UNL A   1      -9.544 -10.937  16.120  0.00  0.00    -0.241 OA
ENDBRANCH   2   7
TORSDOF 1
ENDMDL
ENDMDL
