MODEL 127
MODEL 1
REMARK VINA RESULT:    -4.584      0.000      0.000
REMARK INTER + INTRA:          -4.584
REMARK INTER:                  -4.584
REMARK INTRA:                   0.000
REMARK UNBOUND:                 0.000
REMARK  Name = No_127-gen_results/8p0m/2024-11-26-14-13-15/
REMARK  0 active torsions:
REMARK  status: ('A' for Active; 'I' for Inactive)
REMARK                            x       y       z     vdW  Elec       q    Type
REMARK                         _______ _______ _______ _____ _____    ______ ____
ROOT
ATOM      1  C   UNL A   1      -9.448  -9.171  20.180  0.00  0.00    +0.030 A 
ATOM      2  C   UNL A   1     -10.302  -9.193  19.325  0.00  0.00    +0.002 A 
ATOM      3  C   UNL A   1     -10.143  -9.952  18.171  0.00  0.00    +0.000 A 
ATOM      4  C   UNL A   1      -8.935 -10.700  17.936  0.00  0.00    +0.002 A 
ATOM      5  C   UNL A   1      -7.990 -10.599  18.966  0.00  0.00    +0.030 A 
ATOM      6  C   UNL A   1      -8.182  -9.854  20.030  0.00  0.00    +0.140 A 
ATOM      7  F   UNL A   1      -7.244  -9.808  20.957  0.00  0.00    -0.204 F 
ENDROOT
TORSDOF 0
ENDMDL
ENDMDL
