MODEL 1280
MODEL 1
REMARK VINA RESULT:    -8.024      0.000      0.000
REMARK INTER + INTRA:         -11.920
REMARK INTER:                 -10.838
REMARK INTRA:                  -1.082
REMARK UNBOUND:                -1.082
REMARK  Name = No_1280-gen_results/8p0m/2024-11-26-14-13-15/
REMARK  6 active torsions:
REMARK  status: ('A' for Active; 'I' for Inactive)
REMARK    1  A    between atoms: C_3  and  C_8
REMARK    2  A    between atoms: C_6  and  O_7
REMARK    3  A    between atoms: O_7  and  C_15
REMARK    4  A    between atoms: C_15  and  C_17
REMARK    5  A    between atoms: C_17  and  N_18
REMARK    6  A    between atoms: N_18  and  C_19
REMARK                            x       y       z     vdW  Elec       q    Type
REMARK                         _______ _______ _______ _____ _____    ______ ____
ROOT
ATOM      1  C   UNL A   1     -23.639   1.433  26.592  0.00  0.00    +0.037 A 
ATOM      2  C   UNL A   1     -24.566   1.429  25.816  0.00  0.00    +0.003 A 
ATOM      3  C   UNL A   1     -25.899   1.304  26.208  0.00  0.00    +0.000 A 
ATOM      4  C   UNL A   1     -26.207   1.110  27.612  0.00  0.00    +0.003 A 
ATOM      5  C   UNL A   1     -25.073   1.117  28.456  0.00  0.00    +0.037 A 
ATOM      6  C   UNL A   1     -23.855   1.234  27.994  0.00  0.00    +0.139 A 
ENDROOT
BRANCH   3   7
ATOM      7  C   UNL A   1     -27.098   1.292  25.309  0.00  0.00    +0.001 A 
ATOM      8  C   UNL A   1     -27.590   2.357  24.740  0.00  0.00    +0.000 A 
ATOM      9  C   UNL A   1     -28.675   2.257  23.797  0.00  0.00    +0.001 A 
ATOM     10  C   UNL A   1     -29.053   0.947  23.335  0.00  0.00    +0.011 A 
ATOM     11  C   UNL A   1     -27.500   0.023  24.738  0.00  0.00    +0.011 A 
ATOM     12  C   UNL A   1     -28.508  -0.103  23.862  0.00  0.00    +0.058 A 
ATOM     13 CL   UNL A   1     -28.997  -1.682  23.336  0.00  0.00    -0.082 Cl
ENDBRANCH   3   7
BRANCH   6  14
ATOM     14  O   UNL A   1     -22.832   1.174  28.898  0.00  0.00    -0.477 OA
BRANCH  14  15
ATOM     15  C   UNL A   1     -22.101   0.027  29.129  0.00  0.00    +0.188 C 
ATOM     16  C   UNL A   1     -20.962  -0.093  28.513  0.00  0.00    +0.049 C 
BRANCH  15  17
ATOM     17  C   UNL A   1     -22.782  -1.079  29.662  0.00  0.00    +0.155 C 
BRANCH  17  18
ATOM     18  N   UNL A   1     -23.059  -2.122  28.925  0.00  0.00    -0.234 NA
BRANCH  18  19
ATOM     19  C   UNL A   1     -24.205  -2.913  29.052  0.00  0.00    +0.065 A 
ATOM     20  C   UNL A   1     -25.137  -2.570  29.559  0.00  0.00    +0.016 A 
ATOM     21  C   UNL A   1     -26.218  -3.314  29.932  0.00  0.00    +0.001 A 
ATOM     22  C   UNL A   1     -26.191  -4.718  29.546  0.00  0.00    +0.000 A 
ATOM     23  C   UNL A   1     -23.946  -4.387  28.710  0.00  0.00    +0.016 A 
ATOM     24  C   UNL A   1     -25.014  -5.227  28.998  0.00  0.00    +0.001 A 
ENDBRANCH  18  19
ENDBRANCH  17  18
ENDBRANCH  15  17
ENDBRANCH  14  15
ENDBRANCH   6  14
TORSDOF 6
ENDMDL
ENDMDL
