REMARK  Name = No_1280-gen_results/8p0m/2024-11-26-14-13-15/
REMARK  6 active torsions:
REMARK  status: ('A' for Active; 'I' for Inactive)
REMARK    1  A    between atoms: C_3  and  C_8
REMARK    2  A    between atoms: C_6  and  O_7
REMARK    3  A    between atoms: O_7  and  C_15
REMARK    4  A    between atoms: C_15  and  C_17
REMARK    5  A    between atoms: C_17  and  N_18
REMARK    6  A    between atoms: N_18  and  C_19
REMARK                            x       y       z     vdW  Elec       q    Type
REMARK                         _______ _______ _______ _____ _____    ______ ____
ROOT
ATOM      1  C   UNL A   1     -28.016  -0.814  28.878  0.00  0.00    +0.037 A 
ATOM      2  C   UNL A   1     -27.064  -0.119  28.608  0.00  0.00    +0.003 A 
ATOM      3  C   UNL A   1     -25.765  -0.390  29.036  0.00  0.00    +0.000 A 
ATOM      4  C   UNL A   1     -25.530  -1.530  29.901  0.00  0.00    +0.003 A 
ATOM      5  C   UNL A   1     -26.689  -2.289  30.181  0.00  0.00    +0.037 A 
ATOM      6  C   UNL A   1     -27.873  -1.951  29.737  0.00  0.00    +0.139 A 
ENDROOT
BRANCH   3   7
ATOM      7  C   UNL A   1     -24.539   0.421  28.742  0.00  0.00    +0.001 A 
ATOM      8  C   UNL A   1     -23.346   0.114  29.169  0.00  0.00    +0.000 A 
ATOM      9  C   UNL A   1     -22.194   0.874  28.755  0.00  0.00    +0.001 A 
ATOM     10  C   UNL A   1     -22.361   1.834  27.695  0.00  0.00    +0.011 A 
ATOM     11  C   UNL A   1     -24.598   1.358  27.640  0.00  0.00    +0.011 A 
ATOM     12  C   UNL A   1     -23.546   2.083  27.233  0.00  0.00    +0.058 A 
ATOM     13 CL   UNL A   1     -23.751   3.273  25.988  0.00  0.00    -0.082 Cl
ENDBRANCH   3   7
BRANCH   6  14
ATOM     14  O   UNL A   1     -28.930  -2.730  30.115  0.00  0.00    -0.477 OA
BRANCH  14  15
ATOM     15  C   UNL A   1     -28.778  -3.993  30.648  0.00  0.00    +0.188 C 
ATOM     16  C   UNL A   1     -28.794  -4.999  29.823  0.00  0.00    +0.049 C 
BRANCH  15  17
ATOM     17  C   UNL A   1     -29.020  -4.150  32.022  0.00  0.00    +0.155 C 
BRANCH  17  18
ATOM     18  N   UNL A   1     -29.301  -3.124  32.781  0.00  0.00    -0.234 NA
BRANCH  18  19
ATOM     19  C   UNL A   1     -29.785  -3.203  34.090  0.00  0.00    +0.065 A 
ATOM     20  C   UNL A   1     -30.440  -4.029  34.456  0.00  0.00    +0.016 A 
ATOM     21  C   UNL A   1     -31.140  -4.096  35.625  0.00  0.00    +0.001 A 
ATOM     22  C   UNL A   1     -30.945  -2.989  36.551  0.00  0.00    +0.000 A 
ATOM     23  C   UNL A   1     -29.589  -1.897  34.872  0.00  0.00    +0.016 A 
ATOM     24  C   UNL A   1     -30.217  -1.883  36.111  0.00  0.00    +0.001 A 
ENDBRANCH  18  19
ENDBRANCH  17  18
ENDBRANCH  15  17
ENDBRANCH  14  15
ENDBRANCH   6  14
TORSDOF 6
