REMARK  Name = No_1281-gen_results/8p0m/2024-11-26-14-13-15/
REMARK  6 active torsions:
REMARK  status: ('A' for Active; 'I' for Inactive)
REMARK    1  A    between atoms: C_1  and  C_2
REMARK    2  A    between atoms: C_1  and  C_8
REMARK    3  A    between atoms: C_3  and  O_27
REMARK    4  A    between atoms: C_5  and  C_11
REMARK    5  A    between atoms: C_7  and  C_18
REMARK    6  A    between atoms: N_20  and  C_21
REMARK                            x       y       z     vdW  Elec       q    Type
REMARK                         _______ _______ _______ _____ _____    ______ ____
ROOT
ATOM      1  C   UNL A   1     -27.064  -0.119  28.608  0.00  0.00    +0.021 A 
ATOM      2  C   UNL A   1     -25.765  -0.390  29.036  0.00  0.00    +0.135 A 
ATOM      3  C   UNL A   1     -24.552   0.406  28.765  0.00  0.00    +0.040 A 
ATOM      4  C   UNL A   1     -24.696   1.448  27.799  0.00  0.00    +0.075 A 
ATOM      5  C   UNL A   1     -26.001   1.678  27.297  0.00  0.00    +0.008 A 
ATOM      6  C   UNL A   1     -26.915   0.921  27.654  0.00  0.00    +0.055 A 
ENDROOT
BRANCH   4   7
ATOM      7  C   UNL A   1     -23.483   2.216  27.474  0.00  0.00    +0.419 C 
ATOM      8  F   UNL A   1     -22.593   1.837  27.898  0.00  0.00    -0.166 F 
ATOM      9  F   UNL A   1     -23.361   2.173  26.044  0.00  0.00    -0.166 F 
ATOM     10  F   UNL A   1     -23.789   3.538  27.721  0.00  0.00    -0.166 F 
ENDBRANCH   4   7
BRANCH   6  11
ATOM     11  C   UNL A   1     -28.339   1.289  27.008  0.00  0.00    +0.269 C 
ATOM     12  O   UNL A   1     -28.481   1.331  25.856  0.00  0.00    -0.268 OA
ATOM     13  N   UNL A   1     -29.353   1.552  27.844  0.00  0.00    -0.175 NA
BRANCH  13  14
ATOM     14  C   UNL A   1     -30.675   1.897  27.403  0.00  0.00    +0.074 A 
ATOM     15  C   UNL A   1     -31.174   2.771  27.729  0.00  0.00    +0.017 A 
ATOM     16  C   UNL A   1     -31.380   0.622  27.377  0.00  0.00    +0.017 A 
ATOM     17  C   UNL A   1     -32.447   0.653  27.306  0.00  0.00    +0.001 A 
ATOM     18  C   UNL A   1     -32.591   3.014  27.610  0.00  0.00    +0.001 A 
ATOM     19  C   UNL A   1     -33.305   1.811  27.423  0.00  0.00    +0.000 A 
ENDBRANCH  13  14
ENDBRANCH   6  11
BRANCH   2  20
ATOM     20  O   UNL A   1     -25.479  -1.352  29.970  0.00  0.00    -0.472 OA
ATOM     21  C   UNL A   1     -24.279  -1.859  30.057  0.00  0.00    +0.253 C 
ENDBRANCH   2  20
BRANCH   1  22
ATOM     22  C   UNL A   1     -28.016  -0.814  28.878  0.00  0.00    +0.056 C 
BRANCH  22  23
ATOM     23  C   UNL A   1     -28.643  -0.489  30.232  0.00  0.00    -0.018 A 
ATOM     24  C   UNL A   1     -28.317   0.527  30.798  0.00  0.00    -0.004 A 
ATOM     25  C   UNL A   1     -28.968   0.869  32.143  0.00  0.00    -0.000 A 
ATOM     26  C   UNL A   1     -29.827  -0.027  32.685  0.00  0.00    -0.000 A 
ATOM     27  C   UNL A   1     -29.468  -1.582  30.842  0.00  0.00    -0.004 A 
ATOM     28  C   UNL A   1     -30.088  -1.270  32.079  0.00  0.00    -0.000 A 
ENDBRANCH  22  23
ENDBRANCH   1  22
TORSDOF 6
