MODEL 1281
MODEL 1
REMARK VINA RESULT:    -7.195      0.000      0.000
REMARK INTER + INTRA:         -10.609
REMARK INTER:                  -9.718
REMARK INTRA:                  -0.891
REMARK UNBOUND:                -0.891
REMARK  Name = No_1281-gen_results/8p0m/2024-11-26-14-13-15/
REMARK  6 active torsions:
REMARK  status: ('A' for Active; 'I' for Inactive)
REMARK    1  A    between atoms: C_1  and  C_2
REMARK    2  A    between atoms: C_1  and  C_8
REMARK    3  A    between atoms: C_3  and  O_27
REMARK    4  A    between atoms: C_5  and  C_11
REMARK    5  A    between atoms: C_7  and  C_18
REMARK    6  A    between atoms: N_20  and  C_21
REMARK                            x       y       z     vdW  Elec       q    Type
REMARK                         _______ _______ _______ _____ _____    ______ ____
ROOT
ATOM      1  C   UNL A   1     -23.801   0.710  26.883  0.00  0.00    +0.021 A 
ATOM      2  C   UNL A   1     -23.193   0.331  28.079  0.00  0.00    +0.135 A 
ATOM      3  C   UNL A   1     -23.501  -0.856  28.900  0.00  0.00    +0.040 A 
ATOM      4  C   UNL A   1     -24.677  -1.577  28.532  0.00  0.00    +0.075 A 
ATOM      5  C   UNL A   1     -25.349  -1.148  27.360  0.00  0.00    +0.008 A 
ATOM      6  C   UNL A   1     -24.935  -0.137  26.777  0.00  0.00    +0.055 A 
ENDROOT
BRANCH   4   7
ATOM      7  C   UNL A   1     -25.032  -2.732  29.373  0.00  0.00    +0.419 C 
ATOM      8  F   UNL A   1     -25.843  -3.306  29.017  0.00  0.00    -0.166 F 
ATOM      9  F   UNL A   1     -23.864  -3.566  29.409  0.00  0.00    -0.166 F 
ATOM     10  F   UNL A   1     -25.113  -2.254  30.665  0.00  0.00    -0.166 F 
ENDBRANCH   4   7
BRANCH   6  11
ATOM     11  C   UNL A   1     -25.789   0.242  25.469  0.00  0.00    +0.269 C 
ATOM     12  O   UNL A   1     -25.386   0.013  24.404  0.00  0.00    -0.268 OA
ATOM     13  N   UNL A   1     -26.976   0.836  25.652  0.00  0.00    -0.175 NA
BRANCH  13  14
ATOM     14  C   UNL A   1     -27.839   1.230  24.574  0.00  0.00    +0.074 A 
ATOM     15  C   UNL A   1     -28.226   2.211  24.484  0.00  0.00    +0.017 A 
ATOM     16  C   UNL A   1     -28.716   0.081  24.388  0.00  0.00    +0.017 A 
ATOM     17  C   UNL A   1     -29.596   0.227  23.799  0.00  0.00    +0.001 A 
ATOM     18  C   UNL A   1     -29.340   2.593  23.651  0.00  0.00    +0.001 A 
ATOM     19  C   UNL A   1     -30.135   1.477  23.312  0.00  0.00    +0.000 A 
ENDBRANCH  13  14
ENDBRANCH   6  11
BRANCH   2  20
ATOM     20  O   UNL A   1     -22.050   0.926  28.549  0.00  0.00    -0.472 OA
ATOM     21  C   UNL A   1     -20.909   0.291  28.518  0.00  0.00    +0.253 C 
ENDBRANCH   2  20
BRANCH   1  22
ATOM     22  C   UNL A   1     -23.489   1.696  26.257  0.00  0.00    +0.056 C 
BRANCH  22  23
ATOM     23  C   UNL A   1     -24.260   2.948  26.667  0.00  0.00    -0.018 A 
ATOM     24  C   UNL A   1     -24.153   3.947  25.996  0.00  0.00    -0.004 A 
ATOM     25  C   UNL A   1     -24.950   5.195  26.389  0.00  0.00    -0.000 A 
ATOM     26  C   UNL A   1     -25.684   5.154  27.527  0.00  0.00    -0.000 A 
ATOM     27  C   UNL A   1     -24.932   2.885  28.005  0.00  0.00    -0.004 A 
ATOM     28  C   UNL A   1     -25.686   4.029  28.372  0.00  0.00    -0.000 A 
ENDBRANCH  22  23
ENDBRANCH   1  22
TORSDOF 6
ENDMDL
ENDMDL
