MODEL 1282
MODEL 1
REMARK VINA RESULT:    -5.561      0.000      0.000
REMARK INTER + INTRA:          -5.946
REMARK INTER:                  -5.886
REMARK INTRA:                  -0.060
REMARK UNBOUND:                -0.060
REMARK  Name = No_1282-gen_results/8p0m/2024-11-26-14-13-15/
REMARK  1 active torsions:
REMARK  status: ('A' for Active; 'I' for Inactive)
REMARK    1  A    between atoms: C_6  and  C_8
REMARK                            x       y       z     vdW  Elec       q    Type
REMARK                         _______ _______ _______ _____ _____    ______ ____
ROOT
ATOM      1  O   UNL A   1     -11.396 -10.594  17.084  0.00  0.00    -0.273 OA
ATOM      2  C   UNL A   1     -10.492 -10.413  17.775  0.00  0.00    +0.241 C 
ATOM      3  C   UNL A   1     -10.432  -9.318  18.613  0.00  0.00    +0.087 C 
ATOM      4  N   UNL A   1      -9.170 -10.961  17.454  0.00  0.00    -0.205 NA
ATOM      5  C   UNL A   1      -9.623  -9.243  19.518  0.00  0.00    +0.022 C 
ATOM      6  C   UNL A   1      -8.286  -9.883  19.340  0.00  0.00    +0.113 C 
ATOM      7  C   UNL A   1      -8.179 -10.830  18.351  0.00  0.00    +0.125 C 
ENDROOT
BRANCH   6   8
ATOM      8  C   UNL A   1      -7.214  -9.676  20.323  0.00  0.00    +0.312 C 
ATOM      9  O   UNL A   1      -7.173 -10.317  21.356  0.00  0.00    -0.259 OA
ATOM     10  F   UNL A   1      -6.800  -8.424  20.291  0.00  0.00    -0.164 F 
ENDBRANCH   6   8
TORSDOF 1
ENDMDL
ENDMDL
