REMARK  Name = No_1282-gen_results/8p0m/2024-11-26-14-13-15/
REMARK  1 active torsions:
REMARK  status: ('A' for Active; 'I' for Inactive)
REMARK    1  A    between atoms: C_6  and  C_8
REMARK                            x       y       z     vdW  Elec       q    Type
REMARK                         _______ _______ _______ _____ _____    ______ ____
ROOT
ATOM      1  O   UNL A   1     -28.123  -1.335  28.487  0.00  0.00    -0.273 OA
ATOM      2  C   UNL A   1     -27.481  -0.404  28.709  0.00  0.00    +0.241 C 
ATOM      3  C   UNL A   1     -26.380  -0.087  27.939  0.00  0.00    +0.087 C 
ATOM      4  N   UNL A   1     -27.423   0.175  30.055  0.00  0.00    -0.205 NA
ATOM      5  C   UNL A   1     -25.848   1.005  27.994  0.00  0.00    +0.022 C 
ATOM      6  C   UNL A   1     -25.849   1.738  29.295  0.00  0.00    +0.113 C 
ATOM      7  C   UNL A   1     -26.762   1.330  30.236  0.00  0.00    +0.125 C 
ENDROOT
BRANCH   6   8
ATOM      8  C   UNL A   1     -25.074   2.975  29.464  0.00  0.00    +0.312 C 
ATOM      9  O   UNL A   1     -24.185   3.273  28.689  0.00  0.00    -0.259 OA
ATOM     10  F   UNL A   1     -24.986   3.288  30.742  0.00  0.00    -0.164 F 
ENDBRANCH   6   8
TORSDOF 1
