MODEL 1283
MODEL 1
REMARK VINA RESULT:    -6.626      0.000      0.000
REMARK INTER + INTRA:          -7.863
REMARK INTER:                  -7.401
REMARK INTRA:                  -0.462
REMARK UNBOUND:                -0.462
REMARK  Name = No_1283-gen_results/8p0m/2024-11-26-14-13-15/
REMARK  2 active torsions:
REMARK  status: ('A' for Active; 'I' for Inactive)
REMARK    1  A    between atoms: C_2  and  C_10
REMARK    2  A    between atoms: C_5  and  C_7
REMARK                            x       y       z     vdW  Elec       q    Type
REMARK                         _______ _______ _______ _____ _____    ______ ____
ROOT
ATOM      1  C   UNL A   1     -29.721 -10.016  31.655  0.00  0.00    +0.000 A 
ATOM      2  C   UNL A   1     -29.591 -10.702  30.667  0.00  0.00    +0.000 A 
ATOM      3  C   UNL A   1     -28.668 -11.723  30.521  0.00  0.00    +0.000 A 
ATOM      4  C   UNL A   1     -27.827 -12.002  31.639  0.00  0.00    +0.007 A 
ATOM      5  C   UNL A   1     -28.100 -11.321  32.771  0.00  0.00    +0.080 A 
ATOM      6  C   UNL A   1     -29.077 -10.414  32.828  0.00  0.00    +0.007 A 
ENDROOT
BRANCH   2   7
ATOM      7  C   UNL A   1     -30.387 -10.389  29.319  0.00  0.00    +0.000 A 
ATOM      8  C   UNL A   1     -30.013 -11.151  28.140  0.00  0.00    +0.000 A 
ATOM      9  C   UNL A   1     -30.336 -10.537  26.958  0.00  0.00    +0.000 A 
ATOM     10  C   UNL A   1     -31.183  -9.422  26.851  0.00  0.00    +0.000 A 
ATOM     11  C   UNL A   1     -31.535  -8.772  28.017  0.00  0.00    +0.000 A 
ATOM     12  C   UNL A   1     -31.073  -9.174  29.268  0.00  0.00    +0.000 A 
ENDBRANCH   2   7
BRANCH   5  13
ATOM     13  C   UNL A   1     -27.243 -11.668  33.922  0.00  0.00    +0.388 C 
ATOM     14  O   UNL A   1     -26.755 -12.702  33.976  0.00  0.00    -0.241 OA
ATOM     15  O   UNL A   1     -26.881 -10.649  34.704  0.00  0.00    -0.241 OA
ENDBRANCH   5  13
TORSDOF 2
ENDMDL
ENDMDL
