REMARK  Name = No_1283-gen_results/8p0m/2024-11-26-14-13-15/
REMARK  2 active torsions:
REMARK  status: ('A' for Active; 'I' for Inactive)
REMARK    1  A    between atoms: C_2  and  C_10
REMARK    2  A    between atoms: C_5  and  C_7
REMARK                            x       y       z     vdW  Elec       q    Type
REMARK                         _______ _______ _______ _____ _____    ______ ____
ROOT
ATOM      1  C   UNL A   1     -28.016  -0.814  28.878  0.00  0.00    +0.000 A 
ATOM      2  C   UNL A   1     -27.064  -0.119  28.608  0.00  0.00    +0.000 A 
ATOM      3  C   UNL A   1     -26.972   0.714  27.506  0.00  0.00    +0.000 A 
ATOM      4  C   UNL A   1     -28.105   0.774  26.642  0.00  0.00    +0.007 A 
ATOM      5  C   UNL A   1     -29.201   0.104  27.053  0.00  0.00    +0.080 A 
ATOM      6  C   UNL A   1     -29.210  -0.603  28.185  0.00  0.00    +0.007 A 
ENDROOT
BRANCH   2   7
ATOM      7  C   UNL A   1     -25.700  -0.210  29.432  0.00  0.00    +0.000 A 
ATOM      8  C   UNL A   1     -25.149   1.037  29.936  0.00  0.00    +0.000 A 
ATOM      9  C   UNL A   1     -23.801   0.990  30.177  0.00  0.00    +0.000 A 
ATOM     10  C   UNL A   1     -23.044  -0.193  30.210  0.00  0.00    +0.000 A 
ATOM     11  C   UNL A   1     -23.646  -1.350  29.759  0.00  0.00    +0.000 A 
ATOM     12  C   UNL A   1     -24.949  -1.375  29.269  0.00  0.00    +0.000 A 
ENDBRANCH   2   7
BRANCH   5  13
ATOM     13  C   UNL A   1     -30.370   0.226  26.160  0.00  0.00    +0.388 C 
ATOM     14  O   UNL A   1     -30.987   1.189  26.160  0.00  0.00    -0.241 OA
ATOM     15  O   UNL A   1     -30.477  -0.709  25.213  0.00  0.00    -0.241 OA
ENDBRANCH   5  13
TORSDOF 2
