MODEL 1284
MODEL 1
REMARK VINA RESULT:    -6.335      0.000      0.000
REMARK INTER + INTRA:          -6.918
REMARK INTER:                  -6.705
REMARK INTRA:                  -0.213
REMARK UNBOUND:                -0.213
REMARK  Name = No_1284-gen_results/8p0m/2024-11-26-14-13-15/
REMARK  1 active torsions:
REMARK  status: ('A' for Active; 'I' for Inactive)
REMARK    1  A    between atoms: C_2  and  C_10
REMARK                            x       y       z     vdW  Elec       q    Type
REMARK                         _______ _______ _______ _____ _____    ______ ____
ROOT
ATOM      1  C   UNL A   1     -22.483   2.232  27.038  0.00  0.00    +0.004 A 
ATOM      2  C   UNL A   1     -23.670   2.276  26.815  0.00  0.00    +0.071 A 
ATOM      3  C   UNL A   1     -24.580   1.282  27.135  0.00  0.00    -0.000 A 
ATOM      4  C   UNL A   1     -24.073   0.132  27.809  0.00  0.00    -0.016 A 
ATOM      5  C   UNL A   1     -22.776   0.182  28.175  0.00  0.00    +0.051 A 
ATOM      6  C   UNL A   1     -22.004   1.234  27.890  0.00  0.00    +0.004 A 
ATOM      7  C   UNL A   1     -22.296  -1.003  28.912  0.00  0.00    +0.265 C 
ATOM      8  O   UNL A   1     -21.207  -1.133  29.048  0.00  0.00    -0.268 OA
ATOM      9  N   UNL A   1     -23.191  -2.125  28.944  0.00  0.00    -0.201 NA
ATOM     10  C   UNL A   1     -24.578  -2.075  28.788  0.00  0.00    +0.120 C 
ATOM     11  C   UNL A   1     -24.989  -0.900  27.993  0.00  0.00    +0.050 C 
ENDROOT
BRANCH   2  12
ATOM     12  C   UNL A   1     -24.297   3.459  25.949  0.00  0.00    +0.419 C 
ATOM     13  F   UNL A   1     -23.701   3.951  25.164  0.00  0.00    -0.166 F 
ATOM     14  F   UNL A   1     -24.657   4.481  26.867  0.00  0.00    -0.166 F 
ATOM     15  F   UNL A   1     -25.570   3.102  25.499  0.00  0.00    -0.166 F 
ENDBRANCH   2  12
TORSDOF 1
ENDMDL
ENDMDL
