REMARK  Name = No_1284-gen_results/8p0m/2024-11-26-14-13-15/
REMARK  1 active torsions:
REMARK  status: ('A' for Active; 'I' for Inactive)
REMARK    1  A    between atoms: C_2  and  C_10
REMARK                            x       y       z     vdW  Elec       q    Type
REMARK                         _______ _______ _______ _____ _____    ______ ____
ROOT
ATOM      1  C   UNL A   1     -28.016  -0.814  28.878  0.00  0.00    +0.004 A 
ATOM      2  C   UNL A   1     -27.064  -0.119  28.608  0.00  0.00    +0.071 A 
ATOM      3  C   UNL A   1     -26.972   0.714  27.506  0.00  0.00    -0.000 A 
ATOM      4  C   UNL A   1     -28.105   0.774  26.642  0.00  0.00    -0.016 A 
ATOM      5  C   UNL A   1     -29.201   0.104  27.053  0.00  0.00    +0.051 A 
ATOM      6  C   UNL A   1     -29.210  -0.603  28.185  0.00  0.00    +0.004 A 
ATOM      7  C   UNL A   1     -30.370   0.226  26.160  0.00  0.00    +0.265 C 
ATOM      8  O   UNL A   1     -31.221  -0.463  26.310  0.00  0.00    -0.268 OA
ATOM      9  N   UNL A   1     -30.124   0.842  24.887  0.00  0.00    -0.201 NA
ATOM     10  C   UNL A   1     -29.086   1.727  24.589  0.00  0.00    +0.120 C 
ATOM     11  C   UNL A   1     -27.925   1.515  25.477  0.00  0.00    +0.050 C 
ENDROOT
BRANCH   2  12
ATOM     12  C   UNL A   1     -25.709  -0.226  29.441  0.00  0.00    +0.419 C 
ATOM     13  F   UNL A   1     -25.651  -0.875  30.330  0.00  0.00    -0.166 F 
ATOM     14  F   UNL A   1     -25.412   1.087  29.894  0.00  0.00    -0.166 F 
ATOM     15  F   UNL A   1     -24.628  -0.416  28.578  0.00  0.00    -0.166 F 
ENDBRANCH   2  12
TORSDOF 1
