MODEL 1285
MODEL 1
REMARK VINA RESULT:    -5.188      0.000      0.000
REMARK INTER + INTRA:          -5.933
REMARK INTER:                  -5.795
REMARK INTRA:                  -0.138
REMARK UNBOUND:                -0.138
REMARK  Name = No_1285-gen_results/8p0m/2024-11-26-14-13-15/
REMARK  2 active torsions:
REMARK  status: ('A' for Active; 'I' for Inactive)
REMARK    1  A    between atoms: C_3  and  C_4
REMARK    2  A    between atoms: C_4  and  C_9
REMARK                            x       y       z     vdW  Elec       q    Type
REMARK                         _______ _______ _______ _____ _____    ______ ____
ROOT
ATOM      1  C   UNL A   1     -26.092  -3.175  29.755  0.00  0.00    +0.002 A 
ATOM      2  C   UNL A   1     -26.154  -4.226  29.702  0.00  0.00    +0.000 A 
ATOM      3  C   UNL A   1     -24.871  -2.629  29.163  0.00  0.00    +0.017 A 
ATOM      4  C   UNL A   1     -25.302  -5.281  29.171  0.00  0.00    +0.000 A 
ATOM      5  C   UNL A   1     -24.133  -4.806  28.615  0.00  0.00    +0.000 A 
ATOM      6  C   UNL A   1     -23.915  -3.480  28.550  0.00  0.00    +0.002 A 
ENDROOT
BRANCH   3   7
ATOM      7  C   UNL A   1     -24.604  -1.180  29.024  0.00  0.00    +0.076 C 
ATOM      8  N   UNL A   1     -24.150  -0.527  29.734  0.00  0.00    -0.268 NA
ATOM      9  C   UNL A   1     -23.700  -1.117  31.106  0.00  0.00    +0.152 C 
BRANCH   7  10
ATOM     10  C   UNL A   1     -25.071  -0.587  27.722  0.00  0.00    +0.019 C 
ATOM     11  C   UNL A   1     -24.100   0.320  27.321  0.00  0.00    +0.002 C 
ENDBRANCH   7  10
ENDBRANCH   3   7
TORSDOF 2
ENDMDL
ENDMDL
