REMARK  Name = No_1285-gen_results/8p0m/2024-11-26-14-13-15/
REMARK  2 active torsions:
REMARK  status: ('A' for Active; 'I' for Inactive)
REMARK    1  A    between atoms: C_3  and  C_4
REMARK    2  A    between atoms: C_4  and  C_9
REMARK                            x       y       z     vdW  Elec       q    Type
REMARK                         _______ _______ _______ _____ _____    ______ ____
ROOT
ATOM      1  C   UNL A   1     -28.016  -0.814  28.878  0.00  0.00    +0.002 A 
ATOM      2  C   UNL A   1     -28.469  -0.785  29.829  0.00  0.00    +0.000 A 
ATOM      3  C   UNL A   1     -27.087   0.290  28.638  0.00  0.00    +0.017 A 
ATOM      4  C   UNL A   1     -28.391   0.104  30.980  0.00  0.00    +0.000 A 
ATOM      5  C   UNL A   1     -27.533   1.167  30.787  0.00  0.00    +0.000 A 
ATOM      6  C   UNL A   1     -26.828   1.256  29.645  0.00  0.00    +0.002 A 
ENDROOT
BRANCH   3   7
ATOM      7  C   UNL A   1     -26.252   0.411  27.422  0.00  0.00    +0.076 C 
ATOM      8  N   UNL A   1     -25.189   0.469  27.361  0.00  0.00    -0.268 NA
ATOM      9  C   UNL A   1     -24.365   0.431  28.684  0.00  0.00    +0.152 C 
BRANCH   7  10
ATOM     10  C   UNL A   1     -27.035   0.492  26.139  0.00  0.00    +0.019 C 
ATOM     11  C   UNL A   1     -26.113   0.464  25.102  0.00  0.00    +0.002 C 
ENDBRANCH   7  10
ENDBRANCH   3   7
TORSDOF 2
