MODEL 1286
MODEL 1
REMARK VINA RESULT:    -5.660      0.000      0.000
REMARK INTER + INTRA:          -7.792
REMARK INTER:                  -7.315
REMARK INTRA:                  -0.477
REMARK UNBOUND:                -0.477
REMARK  Name = No_1286-gen_results/8p0m/2024-11-26-14-13-15/
REMARK  5 active torsions:
REMARK  status: ('A' for Active; 'I' for Inactive)
REMARK    1  A    between atoms: C_1  and  C_2
REMARK    2  A    between atoms: C_1  and  C_3
REMARK    3  A    between atoms: C_2  and  C_8
REMARK    4  A    between atoms: N_10  and  C_11
REMARK    5  A    between atoms: C_12  and  C_13
REMARK                            x       y       z     vdW  Elec       q    Type
REMARK                         _______ _______ _______ _____ _____    ______ ____
ROOT
ATOM      1  C   UNL A   1     -23.468   0.585  28.998  0.00  0.00    +0.279 C 
ATOM      2  O   UNL A   1     -24.254   1.279  29.470  0.00  0.00    -0.270 OA
ATOM      3  N   UNL A   1     -23.464  -0.720  29.205  0.00  0.00    -0.176 NA
ENDROOT
BRANCH   1   4
ATOM      4  C   UNL A   1     -22.325   1.072  28.183  0.00  0.00    +0.247 C 
ATOM      5  F   UNL A   1     -21.521   0.253  27.826  0.00  0.00    -0.227 F 
BRANCH   4   6
ATOM      6  C   UNL A   1     -22.326   2.005  27.693  0.00  0.00    +0.148 C 
BRANCH   6   7
ATOM      7  C   UNL A   1     -23.040   2.038  26.360  0.00  0.00    +0.401 C 
ATOM      8  F   UNL A   1     -23.865   2.947  26.375  0.00  0.00    -0.170 F 
ATOM      9  F   UNL A   1     -23.671   0.894  26.027  0.00  0.00    -0.170 F 
ATOM     10  F   UNL A   1     -22.195   2.252  25.275  0.00  0.00    -0.170 F 
ENDBRANCH   6   7
ENDBRANCH   4   6
ENDBRANCH   1   4
BRANCH   3  11
ATOM     11  C   UNL A   1     -24.400  -1.371  30.071  0.00  0.00    +0.089 C 
ATOM     12  C   UNL A   1     -24.492  -2.609  29.852  0.00  0.00    +0.018 C 
BRANCH  12  13
ATOM     13  C   UNL A   1     -23.872  -3.214  28.856  0.00  0.00    -0.003 C 
ATOM     14  C   UNL A   1     -24.102  -4.583  28.471  0.00  0.00    -0.026 C 
ATOM     15  C   UNL A   1     -24.981  -5.311  29.212  0.00  0.00    +0.031 C 
ENDBRANCH  12  13
ENDBRANCH   3  11
TORSDOF 5
ENDMDL
ENDMDL
