REMARK  Name = No_1286-gen_results/8p0m/2024-11-26-14-13-15/
REMARK  5 active torsions:
REMARK  status: ('A' for Active; 'I' for Inactive)
REMARK    1  A    between atoms: C_1  and  C_2
REMARK    2  A    between atoms: C_1  and  C_3
REMARK    3  A    between atoms: C_2  and  C_8
REMARK    4  A    between atoms: N_10  and  C_11
REMARK    5  A    between atoms: C_12  and  C_13
REMARK                            x       y       z     vdW  Elec       q    Type
REMARK                         _______ _______ _______ _____ _____    ______ ____
ROOT
ATOM      1  C   UNL A   1     -29.933  -0.937  30.033  0.00  0.00    +0.279 C 
ATOM      2  O   UNL A   1     -30.407  -1.811  30.612  0.00  0.00    -0.270 OA
ATOM      3  N   UNL A   1     -30.660  -0.019  29.423  0.00  0.00    -0.176 NA
ENDROOT
BRANCH   1   4
ATOM      4  C   UNL A   1     -28.469  -0.785  29.829  0.00  0.00    +0.247 C 
ATOM      5  F   UNL A   1     -27.765  -0.945  30.790  0.00  0.00    -0.227 F 
BRANCH   4   6
ATOM      6  C   UNL A   1     -28.016  -0.814  28.878  0.00  0.00    +0.148 C 
BRANCH   6   7
ATOM      7  C   UNL A   1     -26.504  -0.778  28.877  0.00  0.00    +0.401 C 
ATOM      8  F   UNL A   1     -26.081  -1.894  29.166  0.00  0.00    -0.170 F 
ATOM      9  F   UNL A   1     -25.958   0.118  29.724  0.00  0.00    -0.170 F 
ATOM     10  F   UNL A   1     -25.951  -0.420  27.651  0.00  0.00    -0.170 F 
ENDBRANCH   6   7
ENDBRANCH   4   6
ENDBRANCH   1   4
BRANCH   3  11
ATOM     11  C   UNL A   1     -32.091  -0.061  29.384  0.00  0.00    +0.089 C 
ATOM     12  C   UNL A   1     -32.576   0.601  28.428  0.00  0.00    +0.018 C 
BRANCH  12  13
ATOM     13  C   UNL A   1     -31.843   1.343  27.618  0.00  0.00    -0.003 C 
ATOM     14  C   UNL A   1     -32.358   2.035  26.465  0.00  0.00    -0.026 C 
ATOM     15  C   UNL A   1     -33.676   1.875  26.166  0.00  0.00    +0.031 C 
ENDBRANCH  12  13
ENDBRANCH   3  11
TORSDOF 5
