MODEL 1287
MODEL 1
REMARK VINA RESULT:    -7.361      0.000      0.000
REMARK INTER + INTRA:          -7.361
REMARK INTER:                  -7.361
REMARK INTRA:                   0.000
REMARK UNBOUND:                 0.000
REMARK  Name = No_1287-gen_results/8p0m/2024-11-26-14-13-15/
REMARK  0 active torsions:
REMARK  status: ('A' for Active; 'I' for Inactive)
REMARK                            x       y       z     vdW  Elec       q    Type
REMARK                         _______ _______ _______ _____ _____    ______ ____
ROOT
ATOM      1  C   UNL A   1     -30.241 -11.011  29.066  0.00  0.00    +0.138 C 
ATOM      2  C   UNL A   1     -29.627 -11.092  30.104  0.00  0.00    +0.003 A 
ATOM      3  C   UNL A   1     -29.769 -10.132  31.100  0.00  0.00    +0.049 A 
ATOM      4  C   UNL A   1     -29.063 -10.115  32.413  0.00  0.00    -0.012 A 
ATOM      5  C   UNL A   1     -28.294 -11.275  32.724  0.00  0.00    +0.051 A 
ATOM      6  C   UNL A   1     -28.211 -12.264  31.723  0.00  0.00    +0.004 A 
ATOM      7  C   UNL A   1     -28.829 -12.197  30.535  0.00  0.00    -0.002 A 
ATOM      8  N   UNL A   1     -29.566 -11.419  27.951  0.00  0.00    -0.201 NA
ATOM      9  C   UNL A   1     -30.024 -11.046  26.730  0.00  0.00    +0.242 C 
ATOM     10  C   UNL A   1     -27.643 -11.289  34.010  0.00  0.00    +0.265 C 
ATOM     11  N   UNL A   1     -27.873 -10.314  34.913  0.00  0.00    -0.201 NA
ATOM     12  O   UNL A   1     -27.056 -12.360  34.363  0.00  0.00    -0.268 OA
ATOM     13  C   UNL A   1     -31.000 -10.083  26.665  0.00  0.00    +0.089 C 
ATOM     14  C   UNL A   1     -31.552  -9.483  27.790  0.00  0.00    +0.033 C 
ATOM     15  C   UNL A   1     -31.031  -9.791  28.970  0.00  0.00    +0.120 C 
ATOM     16  N   UNL A   1     -31.304  -9.095  30.107  0.00  0.00    -0.201 NA
ATOM     17  C   UNL A   1     -30.636  -9.037  31.014  0.00  0.00    +0.264 C 
ATOM     18  O   UNL A   1     -29.638 -11.683  25.707  0.00  0.00    -0.273 OA
ATOM     19  O   UNL A   1     -30.907  -8.267  32.004  0.00  0.00    -0.268 OA
ATOM     20  C   UNL A   1     -28.545  -9.180  34.729  0.00  0.00    +0.120 C 
ATOM     21  C   UNL A   1     -29.224  -9.132  33.412  0.00  0.00    +0.050 C 
ENDROOT
TORSDOF 0
ENDMDL
ENDMDL
