REMARK  Name = No_1287-gen_results/8p0m/2024-11-26-14-13-15/
REMARK  0 active torsions:
REMARK  status: ('A' for Active; 'I' for Inactive)
REMARK                            x       y       z     vdW  Elec       q    Type
REMARK                         _______ _______ _______ _____ _____    ______ ____
ROOT
ATOM      1  C   UNL A   1     -28.016  -0.814  28.878  0.00  0.00    +0.138 C 
ATOM      2  C   UNL A   1     -27.064  -0.119  28.608  0.00  0.00    +0.003 A 
ATOM      3  C   UNL A   1     -25.792  -0.430  29.076  0.00  0.00    +0.049 A 
ATOM      4  C   UNL A   1     -24.546   0.349  28.823  0.00  0.00    -0.012 A 
ATOM      5  C   UNL A   1     -24.659   1.420  27.888  0.00  0.00    +0.051 A 
ATOM      6  C   UNL A   1     -25.947   1.681  27.379  0.00  0.00    +0.004 A 
ATOM      7  C   UNL A   1     -27.044   0.974  27.687  0.00  0.00    -0.002 A 
ATOM      8  N   UNL A   1     -29.188  -0.147  29.092  0.00  0.00    -0.201 NA
ATOM      9  C   UNL A   1     -30.202  -0.783  29.730  0.00  0.00    +0.242 C 
ATOM     10  C   UNL A   1     -23.451   2.152  27.601  0.00  0.00    +0.265 C 
ATOM     11  N   UNL A   1     -22.262   1.746  28.091  0.00  0.00    -0.201 NA
ATOM     12  O   UNL A   1     -23.495   3.028  26.680  0.00  0.00    -0.268 OA
ATOM     13  C   UNL A   1     -29.936  -1.981  30.345  0.00  0.00    +0.089 C 
ATOM     14  C   UNL A   1     -28.682  -2.580  30.333  0.00  0.00    +0.033 C 
ATOM     15  C   UNL A   1     -27.682  -1.903  29.785  0.00  0.00    +0.120 C 
ATOM     16  N   UNL A   1     -26.377  -2.259  29.931  0.00  0.00    -0.201 NA
ATOM     17  C   UNL A   1     -25.496  -1.559  29.847  0.00  0.00    +0.264 C 
ATOM     18  O   UNL A   1     -31.377  -0.326  29.627  0.00  0.00    -0.273 OA
ATOM     19  O   UNL A   1     -24.301  -1.944  30.112  0.00  0.00    -0.268 OA
ATOM     20  C   UNL A   1     -22.039   0.785  28.985  0.00  0.00    +0.120 C 
ATOM     21  C   UNL A   1     -23.264   0.015  29.305  0.00  0.00    +0.050 C 
ENDROOT
TORSDOF 0
