MODEL 1288
MODEL 1
REMARK VINA RESULT:    -5.019      0.000      0.000
REMARK INTER + INTRA:          -5.019
REMARK INTER:                  -5.019
REMARK INTRA:                   0.000
REMARK UNBOUND:                 0.000
REMARK  Name = No_1288-gen_results/8p0m/2024-11-26-14-13-15/
REMARK  0 active torsions:
REMARK  status: ('A' for Active; 'I' for Inactive)
REMARK                            x       y       z     vdW  Elec       q    Type
REMARK                         _______ _______ _______ _____ _____    ______ ____
ROOT
ATOM      1  C   UNL A   1     -10.361  -9.299  19.077  0.00  0.00    +0.042 A 
ATOM      2  C   UNL A   1      -9.536  -9.162  19.951  0.00  0.00    +0.003 A 
ATOM      3  C   UNL A   1      -8.309  -9.813  19.889  0.00  0.00    +0.000 A 
ATOM      4  C   UNL A   1      -7.999 -10.708  18.804  0.00  0.00    +0.003 A 
ATOM      5  C   UNL A   1      -9.018 -10.826  17.849  0.00  0.00    +0.042 A 
ATOM      6  C   UNL A   1     -10.168 -10.201  17.963  0.00  0.00    +0.196 A 
ATOM      7  O   UNL A   1     -11.120 -10.400  17.011  0.00  0.00    -0.287 OA
ENDROOT
TORSDOF 0
ENDMDL
ENDMDL
