MODEL 1289
MODEL 1
REMARK VINA RESULT:    -6.534      0.000      0.000
REMARK INTER + INTRA:          -7.245
REMARK INTER:                  -6.916
REMARK INTRA:                  -0.328
REMARK UNBOUND:                -0.328
REMARK  Name = No_1289-gen_results/8p0m/2024-11-26-14-13-15/
REMARK  1 active torsions:
REMARK  status: ('A' for Active; 'I' for Inactive)
REMARK    1  A    between atoms: C_3  and  C_7
REMARK                            x       y       z     vdW  Elec       q    Type
REMARK                         _______ _______ _______ _____ _____    ______ ____
ROOT
ATOM      1  C   UNL A   1     -26.461  -3.801  29.848  0.00  0.00    +0.000 A 
ATOM      2  C   UNL A   1     -25.946  -2.721  29.673  0.00  0.00    +0.000 A 
ATOM      3  C   UNL A   1     -24.705  -2.548  29.062  0.00  0.00    +0.000 A 
ATOM      4  C   UNL A   1     -23.947  -3.717  28.660  0.00  0.00    +0.000 A 
ATOM      5  C   UNL A   1     -24.606  -4.943  28.904  0.00  0.00    +0.000 A 
ATOM      6  C   UNL A   1     -25.774  -5.006  29.492  0.00  0.00    +0.000 A 
ENDROOT
BRANCH   3   7
ATOM      7  C   UNL A   1     -23.886  -1.361  28.651  0.00  0.00    +0.000 A 
ATOM      8  C   UNL A   1     -22.662  -1.191  29.231  0.00  0.00    +0.000 A 
ATOM      9  C   UNL A   1     -21.871  -0.052  28.866  0.00  0.00    +0.000 A 
ATOM     10  C   UNL A   1     -22.367   0.950  28.007  0.00  0.00    +0.000 A 
ATOM     11  C   UNL A   1     -24.363  -0.321  27.814  0.00  0.00    +0.000 A 
ATOM     12  C   UNL A   1     -23.566   0.815  27.511  0.00  0.00    +0.000 A 
ENDBRANCH   3   7
TORSDOF 1
ENDMDL
ENDMDL
