MODEL 128
MODEL 1
REMARK VINA RESULT:    -6.542      0.000      0.000
REMARK INTER + INTRA:          -7.233
REMARK INTER:                  -6.924
REMARK INTRA:                  -0.309
REMARK UNBOUND:                -0.309
REMARK  Name = No_128-gen_results/8p0m/2024-11-26-14-13-15/
REMARK  1 active torsions:
REMARK  status: ('A' for Active; 'I' for Inactive)
REMARK    1  A    between atoms: C_3  and  C_7
REMARK                            x       y       z     vdW  Elec       q    Type
REMARK                         _______ _______ _______ _____ _____    ______ ____
ROOT
ATOM      1  C   UNL A   1     -24.787  -4.986  28.937  0.00  0.00    +0.000 A 
ATOM      2  C   UNL A   1     -24.137  -4.003  28.664  0.00  0.00    +0.000 A 
ATOM      3  C   UNL A   1     -24.520  -2.706  29.003  0.00  0.00    +0.000 A 
ATOM      4  C   UNL A   1     -25.791  -2.497  29.669  0.00  0.00    +0.000 A 
ATOM      5  C   UNL A   1     -26.516  -3.655  29.948  0.00  0.00    +0.000 A 
ATOM      6  C   UNL A   1     -26.083  -4.845  29.580  0.00  0.00    +0.000 A 
ENDROOT
BRANCH   3   7
ATOM      7  C   UNL A   1     -23.770  -1.451  28.708  0.00  0.00    +0.000 A 
ATOM      8  C   UNL A   1     -24.265  -0.492  27.890  0.00  0.00    +0.000 A 
ATOM      9  C   UNL A   1     -23.521   0.656  27.598  0.00  0.00    +0.000 A 
ATOM     10  C   UNL A   1     -22.230   0.877  28.180  0.00  0.00    +0.000 A 
ATOM     11  C   UNL A   1     -22.473  -1.170  29.198  0.00  0.00    +0.000 A 
ATOM     12  C   UNL A   1     -21.751  -0.067  28.931  0.00  0.00    +0.000 A 
ENDBRANCH   3   7
TORSDOF 1
ENDMDL
ENDMDL
