REMARK  Name = No_129-gen_results/8p0m/2024-11-26-14-13-15/
REMARK  0 active torsions:
REMARK  status: ('A' for Active; 'I' for Inactive)
REMARK                            x       y       z     vdW  Elec       q    Type
REMARK                         _______ _______ _______ _____ _____    ______ ____
ROOT
ATOM      1  C   UNL A   1     -28.016  -0.814  28.878  0.00  0.00    +0.059 C 
ATOM      2  C   UNL A   1     -27.064  -0.119  28.608  0.00  0.00    -0.024 A 
ATOM      3  C   UNL A   1     -25.792  -0.430  29.076  0.00  0.00    -0.026 A 
ATOM      4  C   UNL A   1     -24.546   0.349  28.823  0.00  0.00    -0.001 A 
ATOM      5  C   UNL A   1     -23.241   0.022  29.332  0.00  0.00    -0.000 A 
ATOM      6  C   UNL A   1     -27.882  -1.899  29.863  0.00  0.00    +0.166 C 
ATOM      7  C   UNL A   1     -26.671  -2.327  30.321  0.00  0.00    +0.040 C 
ATOM      8  C   UNL A   1     -25.543  -1.585  29.932  0.00  0.00    +0.029 C 
ATOM      9  C   UNL A   1     -22.192   0.830  29.000  0.00  0.00    +0.003 A 
ATOM     10  C   UNL A   1     -22.147   1.778  28.029  0.00  0.00    +0.037 A 
ATOM     11  C   UNL A   1     -24.625   1.646  28.195  0.00  0.00    +0.034 A 
ATOM     12  C   UNL A   1     -23.413   2.259  27.682  0.00  0.00    +0.145 A 
ATOM     13  F   UNL A   1     -28.944  -2.651  30.200  0.00  0.00    -0.237 F 
ATOM     14  O   UNL A   1     -23.554   3.318  26.853  0.00  0.00    -0.450 OA
ATOM     15  C   UNL A   1     -24.736   3.967  26.849  0.00  0.00    +0.179 C 
ATOM     16  C   UNL A   1     -25.849   2.171  27.737  0.00  0.00    +0.006 A 
ATOM     17  C   UNL A   1     -25.878   3.508  27.218  0.00  0.00    +0.041 C 
ATOM     18  C   UNL A   1     -27.081   1.395  28.124  0.00  0.00    -0.004 A 
ATOM     19  C   UNL A   1     -28.407   1.826  27.690  0.00  0.00    -0.004 A 
ATOM     20  C   UNL A   1     -28.693   2.713  26.862  0.00  0.00    -0.000 A 
ATOM     21  C   UNL A   1     -29.983   3.117  26.527  0.00  0.00    -0.000 A 
ATOM     22  C   UNL A   1     -31.017   2.398  27.019  0.00  0.00    -0.000 A 
ATOM     23  C   UNL A   1     -30.759   1.328  27.901  0.00  0.00    -0.004 A 
ATOM     24  C   UNL A   1     -29.537   1.096  28.256  0.00  0.00    -0.022 A 
ATOM     25  C   UNL A   1     -29.203  -0.229  28.988  0.00  0.00    +0.033 C 
ENDROOT
TORSDOF 0
