REMARK  Name = No_1290-gen_results/8p0m/2024-11-26-14-13-15/
REMARK  1 active torsions:
REMARK  status: ('A' for Active; 'I' for Inactive)
REMARK    1  A    between atoms: C_3  and  C_14
REMARK                            x       y       z     vdW  Elec       q    Type
REMARK                         _______ _______ _______ _____ _____    ______ ____
ROOT
ATOM      1  C   UNL A   1     -28.016  -0.814  28.878  0.00  0.00    -0.004 A 
ATOM      2  C   UNL A   1     -27.064  -0.119  28.608  0.00  0.00    -0.022 A 
ATOM      3  C   UNL A   1     -26.972   0.714  27.506  0.00  0.00    +0.048 C 
ATOM      4  C   UNL A   1     -25.820   1.491  27.116  0.00  0.00    +0.030 C 
ATOM      5  C   UNL A   1     -24.858   1.342  27.601  0.00  0.00    -0.047 C 
ATOM      6  C   UNL A   1     -23.569   2.111  27.321  0.00  0.00    -0.051 C 
ATOM      7  C   UNL A   1     -23.716   2.816  26.097  0.00  0.00    +0.026 C 
ATOM      8  C   UNL A   1     -27.970  -1.635  30.099  0.00  0.00    -0.000 A 
ATOM      9  C   UNL A   1     -26.732  -1.837  30.720  0.00  0.00    -0.000 A 
ATOM     10  C   UNL A   1     -25.589  -1.226  30.291  0.00  0.00    -0.004 A 
ATOM     11  C   UNL A   1     -25.697  -0.353  29.209  0.00  0.00    -0.022 A 
ATOM     12  C   UNL A   1     -24.627   0.374  28.830  0.00  0.00    +0.047 C 
ATOM     13  C   UNL A   1     -22.332   2.004  27.990  0.00  0.00    +0.026 C 
ENDROOT
BRANCH   3  14
ATOM     14  C   UNL A   1     -28.230   0.857  26.676  0.00  0.00    -0.022 C 
ATOM     15  C   UNL A   1     -29.154   1.717  27.027  0.00  0.00    -0.005 C 
ENDBRANCH   3  14
TORSDOF 1
