MODEL 1291
MODEL 1
REMARK VINA RESULT:    -7.185      0.000      0.000
REMARK INTER + INTRA:          -9.354
REMARK INTER:                  -8.865
REMARK INTRA:                  -0.489
REMARK UNBOUND:                -0.489
REMARK  Name = No_1291-gen_results/8p0m/2024-11-26-14-13-15/
REMARK  4 active torsions:
REMARK  status: ('A' for Active; 'I' for Inactive)
REMARK    1  A    between atoms: C_1  and  C_2
REMARK    2  A    between atoms: C_1  and  C_8
REMARK    3  A    between atoms: C_4  and  C_15
REMARK    4  A    between atoms: C_15  and  C_16
REMARK                            x       y       z     vdW  Elec       q    Type
REMARK                         _______ _______ _______ _____ _____    ______ ____
ROOT
ATOM      1  C   UNL A   1     -23.429  -0.602  29.342  0.00  0.00    -0.018 A 
ATOM      2  C   UNL A   1     -24.010   0.164  28.338  0.00  0.00    -0.005 A 
ATOM      3  C   UNL A   1     -23.285   0.988  27.328  0.00  0.00    +0.014 A 
ATOM      4  C   UNL A   1     -21.878   1.114  27.521  0.00  0.00    +0.137 A 
ATOM      5  C   UNL A   1     -21.317   0.376  28.582  0.00  0.00    +0.029 A 
ATOM      6  C   UNL A   1     -22.018  -0.393  29.428  0.00  0.00    -0.002 A 
ATOM      7  F   UNL A   1     -21.225   1.881  26.709  0.00  0.00    -0.204 F 
ENDROOT
BRANCH   1   8
ATOM      8  C   UNL A   1     -24.109  -1.245  30.109  0.00  0.00    +0.053 C 
BRANCH   8   9
ATOM      9  C   UNL A   1     -24.409  -2.643  29.615  0.00  0.00    -0.018 A 
ATOM     10  C   UNL A   1     -23.715  -3.231  29.015  0.00  0.00    -0.004 A 
ATOM     11  C   UNL A   1     -24.078  -4.691  28.559  0.00  0.00    -0.000 A 
ATOM     12  C   UNL A   1     -25.318  -5.133  28.930  0.00  0.00    -0.000 A 
ATOM     13  C   UNL A   1     -25.796  -3.181  29.986  0.00  0.00    -0.004 A 
ATOM     14  C   UNL A   1     -26.180  -4.395  29.619  0.00  0.00    -0.000 A 
ENDBRANCH   8   9
ENDBRANCH   1   8
BRANCH   3  15
ATOM     15  C   UNL A   1     -23.994   1.785  26.333  0.00  0.00    +0.117 C 
BRANCH  15  16
ATOM     16  C   UNL A   1     -24.693   2.813  26.658  0.00  0.00    +0.265 C 
ATOM     17  N   UNL A   1     -24.478   3.562  27.720  0.00  0.00    -0.087 NA
ATOM     18  O   UNL A   1     -25.683   3.416  25.935  0.00  0.00    -0.271 OA
ENDBRANCH  15  16
ENDBRANCH   3  15
TORSDOF 4
ENDMDL
ENDMDL
