REMARK  Name = No_1291-gen_results/8p0m/2024-11-26-14-13-15/
REMARK  4 active torsions:
REMARK  status: ('A' for Active; 'I' for Inactive)
REMARK    1  A    between atoms: C_1  and  C_2
REMARK    2  A    between atoms: C_1  and  C_8
REMARK    3  A    between atoms: C_4  and  C_15
REMARK    4  A    between atoms: C_15  and  C_16
REMARK                            x       y       z     vdW  Elec       q    Type
REMARK                         _______ _______ _______ _____ _____    ______ ____
ROOT
ATOM      1  C   UNL A   1     -27.064  -0.119  28.608  0.00  0.00    -0.018 A 
ATOM      2  C   UNL A   1     -25.792  -0.430  29.076  0.00  0.00    -0.005 A 
ATOM      3  C   UNL A   1     -24.546   0.349  28.823  0.00  0.00    +0.014 A 
ATOM      4  C   UNL A   1     -24.659   1.420  27.888  0.00  0.00    +0.137 A 
ATOM      5  C   UNL A   1     -25.947   1.681  27.379  0.00  0.00    +0.029 A 
ATOM      6  C   UNL A   1     -27.044   0.974  27.687  0.00  0.00    -0.002 A 
ATOM      7  F   UNL A   1     -23.584   2.072  27.586  0.00  0.00    -0.204 F 
ENDROOT
BRANCH   1   8
ATOM      8  C   UNL A   1     -28.016  -0.814  28.878  0.00  0.00    +0.053 C 
BRANCH   8   9
ATOM      9  C   UNL A   1     -28.660  -0.460  30.201  0.00  0.00    -0.018 A 
ATOM     10  C   UNL A   1     -28.526   0.501  30.697  0.00  0.00    -0.004 A 
ATOM     11  C   UNL A   1     -29.249   0.815  32.057  0.00  0.00    -0.000 A 
ATOM     12  C   UNL A   1     -30.003  -0.203  32.572  0.00  0.00    -0.000 A 
ATOM     13  C   UNL A   1     -29.502  -1.574  30.834  0.00  0.00    -0.004 A 
ATOM     14  C   UNL A   1     -30.124  -1.389  31.989  0.00  0.00    -0.000 A 
ENDBRANCH   8   9
ENDBRANCH   1   8
BRANCH   3  15
ATOM     15  C   UNL A   1     -23.250  -0.084  29.335  0.00  0.00    +0.117 C 
BRANCH  15  16
ATOM     16  C   UNL A   1     -22.148   0.268  28.777  0.00  0.00    +0.265 C 
ATOM     17  N   UNL A   1     -20.965  -0.230  29.071  0.00  0.00    -0.087 NA
ATOM     18  O   UNL A   1     -21.979   1.097  27.704  0.00  0.00    -0.271 OA
ENDBRANCH  15  16
ENDBRANCH   3  15
TORSDOF 4
