MODEL 1292
MODEL 1
REMARK VINA RESULT:    -7.512      0.000      0.000
REMARK INTER + INTRA:         -10.836
REMARK INTER:                  -9.708
REMARK INTRA:                  -1.128
REMARK UNBOUND:                -1.128
REMARK  Name = No_1292-gen_results/8p0m/2024-11-26-14-13-15/
REMARK  5 active torsions:
REMARK  status: ('A' for Active; 'I' for Inactive)
REMARK    1  A    between atoms: C_4  and  C_17
REMARK    2  A    between atoms: C_7  and  C_8
REMARK    3  A    between atoms: C_17  and  N_18
REMARK    4  A    between atoms: N_18  and  C_20
REMARK    5  A    between atoms: C_20  and  C_21
REMARK                            x       y       z     vdW  Elec       q    Type
REMARK                         _______ _______ _______ _____ _____    ______ ____
ROOT
ATOM      1  F   UNL A   1     -26.237   0.630  23.904  0.00  0.00    -0.202 F 
ATOM      2  C   UNL A   1     -26.445   0.563  25.028  0.00  0.00    +0.167 A 
ATOM      3  C   UNL A   1     -25.406   0.511  25.787  0.00  0.00    +0.170 A 
ATOM      4  C   UNL A   1     -25.441   0.472  27.268  0.00  0.00    +0.095 A 
ATOM      5  C   UNL A   1     -26.762   0.511  27.838  0.00  0.00    +0.198 A 
ATOM      6  C   UNL A   1     -27.822   0.606  26.966  0.00  0.00    +0.044 A 
ATOM      7  C   UNL A   1     -27.685   0.663  25.611  0.00  0.00    +0.033 A 
ATOM      8  O   UNL A   1     -26.880   0.429  29.154  0.00  0.00    -0.287 OA
ATOM      9  F   UNL A   1     -24.123   0.475  25.362  0.00  0.00    -0.202 F 
ENDROOT
BRANCH   7  10
ATOM     10  C   UNL A   1     -28.890   0.799  24.819  0.00  0.00    +0.005 A 
ATOM     11  C   UNL A   1     -29.283   1.892  24.276  0.00  0.00    +0.000 A 
ATOM     12  C   UNL A   1     -30.394   1.954  23.420  0.00  0.00    +0.002 A 
ATOM     13  C   UNL A   1     -31.004   0.782  22.996  0.00  0.00    +0.030 A 
ATOM     14  C   UNL A   1     -30.509  -0.402  23.499  0.00  0.00    +0.140 A 
ATOM     15  C   UNL A   1     -29.473  -0.428  24.350  0.00  0.00    +0.030 A 
ATOM     16  F   UNL A   1     -31.127  -1.512  23.108  0.00  0.00    -0.204 F 
ENDBRANCH   7  10
BRANCH   4  17
ATOM     17  C   UNL A   1     -24.268   0.339  28.153  0.00  0.00    +0.264 C 
ATOM     18  F   UNL A   1     -23.544   1.359  28.210  0.00  0.00    -0.212 F 
BRANCH  17  19
ATOM     19  N   UNL A   1     -24.060  -0.672  28.850  0.00  0.00    -0.178 NA
BRANCH  19  20
ATOM     20  C   UNL A   1     -23.478  -1.703  28.792  0.00  0.00    +0.118 C 
BRANCH  20  21
ATOM     21  C   UNL A   1     -24.282  -3.012  29.057  0.00  0.00    -0.005 A 
ATOM     22  C   UNL A   1     -25.513  -2.726  29.591  0.00  0.00    -0.003 A 
ATOM     23  C   UNL A   1     -26.302  -3.507  29.868  0.00  0.00    -0.000 A 
ATOM     24  C   UNL A   1     -26.063  -4.924  29.563  0.00  0.00    -0.000 A 
ATOM     25  C   UNL A   1     -24.893  -5.258  28.921  0.00  0.00    -0.000 A 
ATOM     26  C   UNL A   1     -23.957  -4.275  28.643  0.00  0.00    -0.003 A 
ENDBRANCH  20  21
ENDBRANCH  19  20
ENDBRANCH  17  19
ENDBRANCH   4  17
TORSDOF 5
ENDMDL
ENDMDL
