REMARK  Name = No_1292-gen_results/8p0m/2024-11-26-14-13-15/
REMARK  5 active torsions:
REMARK  status: ('A' for Active; 'I' for Inactive)
REMARK    1  A    between atoms: C_4  and  C_17
REMARK    2  A    between atoms: C_7  and  C_8
REMARK    3  A    between atoms: C_17  and  N_18
REMARK    4  A    between atoms: N_18  and  C_20
REMARK    5  A    between atoms: C_20  and  C_21
REMARK                            x       y       z     vdW  Elec       q    Type
REMARK                         _______ _______ _______ _____ _____    ______ ____
ROOT
ATOM      1  F   UNL A   1     -28.073  -1.254  28.532  0.00  0.00    -0.202 F 
ATOM      2  C   UNL A   1     -27.359  -0.379  28.722  0.00  0.00    +0.167 A 
ATOM      3  C   UNL A   1     -26.332  -0.644  29.452  0.00  0.00    +0.170 A 
ATOM      4  C   UNL A   1     -25.256   0.320  29.782  0.00  0.00    +0.095 A 
ATOM      5  C   UNL A   1     -25.424   1.627  29.203  0.00  0.00    +0.198 A 
ATOM      6  C   UNL A   1     -26.526   1.825  28.403  0.00  0.00    +0.044 A 
ATOM      7  C   UNL A   1     -27.451   0.860  28.136  0.00  0.00    +0.033 A 
ATOM      8  O   UNL A   1     -24.531   2.561  29.492  0.00  0.00    -0.287 OA
ATOM      9  F   UNL A   1     -26.071  -1.834  30.040  0.00  0.00    -0.202 F 
ENDROOT
BRANCH   7  10
ATOM     10  C   UNL A   1     -28.540   1.202  27.245  0.00  0.00    +0.005 A 
ATOM     11  C   UNL A   1     -28.442   2.010  26.254  0.00  0.00    +0.000 A 
ATOM     12  C   UNL A   1     -29.491   2.223  25.346  0.00  0.00    +0.002 A 
ATOM     13  C   UNL A   1     -30.623   1.422  25.399  0.00  0.00    +0.030 A 
ATOM     14  C   UNL A   1     -30.679   0.478  26.402  0.00  0.00    +0.140 A 
ATOM     15  C   UNL A   1     -29.679   0.326  27.283  0.00  0.00    +0.030 A 
ATOM     16  F   UNL A   1     -31.784  -0.258  26.458  0.00  0.00    -0.204 F 
ENDBRANCH   7  10
BRANCH   4  17
ATOM     17  C   UNL A   1     -24.110   0.059  30.674  0.00  0.00    +0.264 C 
ATOM     18  F   UNL A   1     -22.994   0.098  30.108  0.00  0.00    -0.212 F 
BRANCH  17  19
ATOM     19  N   UNL A   1     -24.235  -0.105  31.903  0.00  0.00    -0.178 NA
BRANCH  19  20
ATOM     20  C   UNL A   1     -24.844  -0.777  32.666  0.00  0.00    +0.118 C 
BRANCH  20  21
ATOM     21  C   UNL A   1     -25.805  -0.063  33.663  0.00  0.00    -0.005 A 
ATOM     22  C   UNL A   1     -26.656   0.783  32.997  0.00  0.00    -0.003 A 
ATOM     23  C   UNL A   1     -27.466   1.419  33.494  0.00  0.00    -0.000 A 
ATOM     24  C   UNL A   1     -27.715   1.285  34.936  0.00  0.00    -0.000 A 
ATOM     25  C   UNL A   1     -26.970   0.366  35.637  0.00  0.00    -0.000 A 
ATOM     26  C   UNL A   1     -25.977  -0.351  34.990  0.00  0.00    -0.003 A 
ENDBRANCH  20  21
ENDBRANCH  19  20
ENDBRANCH  17  19
ENDBRANCH   4  17
TORSDOF 5
