MODEL 1293
MODEL 1
REMARK VINA RESULT:    -5.838      0.000      0.000
REMARK INTER + INTRA:          -7.419
REMARK INTER:                  -6.862
REMARK INTRA:                  -0.557
REMARK UNBOUND:                -0.557
REMARK  Name = No_1293-gen_results/8p0m/2024-11-26-14-13-15/
REMARK  3 active torsions:
REMARK  status: ('A' for Active; 'I' for Inactive)
REMARK    1  A    between atoms: C_3  and  C_4
REMARK    2  A    between atoms: C_8  and  C_10
REMARK    3  A    between atoms: C_10  and  C_11
REMARK                            x       y       z     vdW  Elec       q    Type
REMARK                         _______ _______ _______ _____ _____    ______ ____
ROOT
ATOM      1  C   UNL A   1     -23.216   0.813  29.925  0.00  0.00    -0.008 C 
ATOM      2  C   UNL A   1     -23.237  -0.545  30.260  0.00  0.00    -0.040 C 
ATOM      3  C   UNL A   1     -23.214  -0.932  31.596  0.00  0.00    +0.027 C 
ENDROOT
BRANCH   1   6
ATOM      4  C   UNL A   1     -21.870   1.416  27.758  0.00  0.00    -0.000 A 
ATOM      5  C   UNL A   1     -21.980   1.819  26.790  0.00  0.00    -0.000 A 
ATOM      6  C   UNL A   1     -23.106   1.211  28.530  0.00  0.00    -0.001 A 
ATOM      7  C   UNL A   1     -23.180   2.042  25.948  0.00  0.00    -0.000 A 
ATOM      8  C   UNL A   1     -24.392   1.862  26.605  0.00  0.00    -0.000 A 
ATOM      9  C   UNL A   1     -24.420   1.417  27.910  0.00  0.00    -0.000 A 
ENDBRANCH   1   6
BRANCH   2  10
ATOM     10  C   UNL A   1     -23.324  -1.531  29.269  0.00  0.00    +0.048 C 
BRANCH  10  11
ATOM     11  C   UNL A   1     -24.196  -2.623  29.485  0.00  0.00    -0.026 C 
ATOM     12  C   UNL A   1     -23.949  -3.679  28.675  0.00  0.00    -0.030 C 
ATOM     13  C   UNL A   1     -24.657  -4.881  28.978  0.00  0.00    +0.030 C 
ENDBRANCH  10  11
ENDBRANCH   2  10
TORSDOF 3
ENDMDL
ENDMDL
