REMARK  Name = No_1293-gen_results/8p0m/2024-11-26-14-13-15/
REMARK  3 active torsions:
REMARK  status: ('A' for Active; 'I' for Inactive)
REMARK    1  A    between atoms: C_3  and  C_4
REMARK    2  A    between atoms: C_8  and  C_10
REMARK    3  A    between atoms: C_10  and  C_11
REMARK                            x       y       z     vdW  Elec       q    Type
REMARK                         _______ _______ _______ _____ _____    ______ ____
ROOT
ATOM      1  C   UNL A   1     -25.683  -0.777  27.683  0.00  0.00    -0.008 C 
ATOM      2  C   UNL A   1     -25.898   0.239  26.745  0.00  0.00    -0.040 C 
ATOM      3  C   UNL A   1     -25.002   0.417  25.696  0.00  0.00    +0.027 C 
ENDROOT
BRANCH   1   6
ATOM      4  C   UNL A   1     -28.016  -0.814  28.878  0.00  0.00    -0.000 A 
ATOM      5  C   UNL A   1     -28.469  -0.785  29.829  0.00  0.00    -0.000 A 
ATOM      6  C   UNL A   1     -26.546  -0.876  28.850  0.00  0.00    -0.001 A 
ATOM      7  C   UNL A   1     -27.918  -1.003  31.188  0.00  0.00    -0.000 A 
ATOM      8  C   UNL A   1     -26.531  -1.079  31.246  0.00  0.00    -0.000 A 
ATOM      9  C   UNL A   1     -25.780  -1.046  30.090  0.00  0.00    -0.000 A 
ENDBRANCH   1   6
BRANCH   2  10
ATOM     10  C   UNL A   1     -27.030   1.060  26.818  0.00  0.00    +0.048 C 
BRANCH  10  11
ATOM     11  C   UNL A   1     -27.311   1.912  25.725  0.00  0.00    -0.026 C 
ATOM     12  C   UNL A   1     -28.170   2.913  26.028  0.00  0.00    -0.030 C 
ATOM     13  C   UNL A   1     -28.336   3.921  25.031  0.00  0.00    +0.030 C 
ENDBRANCH  10  11
ENDBRANCH   2  10
TORSDOF 3
