MODEL 1294
MODEL 1
REMARK VINA RESULT:    -6.498      0.000      0.000
REMARK INTER + INTRA:          -7.660
REMARK INTER:                  -7.258
REMARK INTRA:                  -0.402
REMARK UNBOUND:                -0.402
REMARK  Name = No_1294-gen_results/8p0m/2024-11-26-14-13-15/
REMARK  2 active torsions:
REMARK  status: ('A' for Active; 'I' for Inactive)
REMARK    1  A    between atoms: C_2  and  C_11
REMARK    2  A    between atoms: C_6  and  C_7
REMARK                            x       y       z     vdW  Elec       q    Type
REMARK                         _______ _______ _______ _____ _____    ______ ____
ROOT
ATOM      1  C   UNL A   1     -26.017  -2.283  29.774  0.00  0.00    +0.010 A 
ATOM      2  C   UNL A   1     -24.948  -2.583  29.296  0.00  0.00    +0.045 A 
ATOM      3  C   UNL A   1     -24.642  -3.906  28.994  0.00  0.00    +0.141 A 
ATOM      4  C   UNL A   1     -25.573  -4.966  29.283  0.00  0.00    +0.030 A 
ATOM      5  C   UNL A   1     -26.776  -4.532  29.856  0.00  0.00    +0.009 A 
ATOM      6  C   UNL A   1     -27.009  -3.271  30.139  0.00  0.00    +0.080 A 
ATOM      7  F   UNL A   1     -23.460  -4.307  28.421  0.00  0.00    -0.204 F 
ENDROOT
BRANCH   2   8
ATOM      8  C   UNL A   1     -23.883  -1.590  28.875  0.00  0.00    +0.084 A 
ATOM      9  N   UNL A   1     -22.924  -1.353  29.387  0.00  0.00    -0.244 NA
ATOM     10  C   UNL A   1     -24.433  -0.504  27.965  0.00  0.00    +0.019 A 
ATOM     11  C   UNL A   1     -23.549   0.482  27.714  0.00  0.00    +0.003 A 
ATOM     12  C   UNL A   1     -21.944  -0.472  29.205  0.00  0.00    +0.099 A 
ATOM     13  C   UNL A   1     -22.258   0.556  28.271  0.00  0.00    +0.021 A 
ENDBRANCH   2   8
BRANCH   6  14
ATOM     14  C   UNL A   1     -28.298  -2.950  30.795  0.00  0.00    +0.388 C 
ATOM     15  O   UNL A   1     -28.710  -3.624  31.635  0.00  0.00    -0.241 OA
ATOM     16  O   UNL A   1     -29.084  -2.120  30.134  0.00  0.00    -0.241 OA
ENDBRANCH   6  14
TORSDOF 2
ENDMDL
ENDMDL
