REMARK  Name = No_1294-gen_results/8p0m/2024-11-26-14-13-15/
REMARK  2 active torsions:
REMARK  status: ('A' for Active; 'I' for Inactive)
REMARK    1  A    between atoms: C_2  and  C_11
REMARK    2  A    between atoms: C_6  and  C_7
REMARK                            x       y       z     vdW  Elec       q    Type
REMARK                         _______ _______ _______ _____ _____    ______ ____
ROOT
ATOM      1  C   UNL A   1     -28.016  -0.814  28.878  0.00  0.00    +0.010 A 
ATOM      2  C   UNL A   1     -27.064  -0.119  28.608  0.00  0.00    +0.045 A 
ATOM      3  C   UNL A   1     -25.792  -0.430  29.076  0.00  0.00    +0.141 A 
ATOM      4  C   UNL A   1     -25.576  -1.565  29.936  0.00  0.00    +0.030 A 
ATOM      5  C   UNL A   1     -26.735  -2.300  30.217  0.00  0.00    +0.009 A 
ATOM      6  C   UNL A   1     -27.918  -1.954  29.763  0.00  0.00    +0.080 A 
ATOM      7  F   UNL A   1     -24.667   0.300  28.779  0.00  0.00    -0.204 F 
ENDROOT
BRANCH   2   8
ATOM      8  C   UNL A   1     -27.105   1.071  27.670  0.00  0.00    +0.084 A 
ATOM      9  N   UNL A   1     -27.271   2.141  27.926  0.00  0.00    -0.244 NA
ATOM     10  C   UNL A   1     -27.443   0.672  26.243  0.00  0.00    +0.019 A 
ATOM     11  C   UNL A   1     -27.651   1.724  25.428  0.00  0.00    +0.003 A 
ATOM     12  C   UNL A   1     -27.419   3.269  27.236  0.00  0.00    +0.099 A 
ATOM     13  C   UNL A   1     -27.622   3.070  25.841  0.00  0.00    +0.021 A 
ENDBRANCH   2   8
BRANCH   6  14
ATOM     14  C   UNL A   1     -29.073  -2.784  30.178  0.00  0.00    +0.388 C 
ATOM     15  O   UNL A   1     -30.149  -2.383  30.072  0.00  0.00    -0.241 OA
ATOM     16  O   UNL A   1     -28.793  -3.789  30.987  0.00  0.00    -0.241 OA
ENDBRANCH   6  14
TORSDOF 2
