REMARK  Name = No_1295-gen_results/8p0m/2024-11-26-14-13-15/
REMARK  7 active torsions:
REMARK  status: ('A' for Active; 'I' for Inactive)
REMARK    1  A    between atoms: C_3  and  N_15
REMARK    2  A    between atoms: C_4  and  C_5
REMARK    3  A    between atoms: C_5  and  C_8
REMARK    4  A    between atoms: C_12  and  N_13
REMARK    5  A    between atoms: N_13  and  C_26
REMARK    6  A    between atoms: N_15  and  C_16
REMARK    7  A    between atoms: C_16  and  C_18
REMARK                            x       y       z     vdW  Elec       q    Type
REMARK                         _______ _______ _______ _____ _____    ______ ____
ROOT
ATOM      1  C   UNL A   1     -28.016  -0.814  28.878  0.00  0.00    +0.155 A 
ATOM      2  C   UNL A   1     -28.469  -0.785  29.829  0.00  0.00    +0.031 A 
ATOM      3  C   UNL A   1     -26.546  -0.876  28.850  0.00  0.00    +0.094 A 
ATOM      4  C   UNL A   1     -25.804  -1.032  30.057  0.00  0.00    -0.000 A 
ATOM      5  C   UNL A   1     -27.990  -1.005  31.209  0.00  0.00    +0.002 A 
ATOM      6  C   UNL A   1     -26.562  -1.137  31.260  0.00  0.00    -0.003 A 
ATOM      7  F   UNL A   1     -28.453  -1.634  28.177  0.00  0.00    -0.203 F 
ENDROOT
BRANCH   4   8
ATOM      8  C   UNL A   1     -24.370  -1.100  30.072  0.00  0.00    +0.054 C 
BRANCH   8   9
ATOM      9  C   UNL A   1     -23.727   0.171  30.026  0.00  0.00    -0.017 A 
ATOM     10  C   UNL A   1     -22.455   0.306  29.412  0.00  0.00    -0.004 A 
ATOM     11  C   UNL A   1     -21.876   1.534  29.137  0.00  0.00    +0.001 A 
ATOM     12  C   UNL A   1     -24.256   1.342  30.666  0.00  0.00    +0.013 A 
ATOM     13  C   UNL A   1     -23.744   2.627  30.356  0.00  0.00    +0.070 A 
ATOM     14  C   UNL A   1     -22.544   2.671  29.611  0.00  0.00    +0.017 A 
BRANCH  13  15
ATOM     15  N   UNL A   1     -24.335   3.700  30.913  0.00  0.00    -0.211 NA
BRANCH  15  16
ATOM     16  C   UNL A   1     -25.709   3.868  31.074  0.00  0.00    +0.081 C 
ATOM     17  C   UNL A   1     -26.459   3.454  31.639  0.00  0.00    -0.008 C 
ATOM     18  C   UNL A   1     -27.916   3.716  31.624  0.00  0.00    +0.032 C 
ENDBRANCH  15  16
ENDBRANCH  13  15
ENDBRANCH   8   9
ENDBRANCH   4   8
BRANCH   3  19
ATOM     19  N   UNL A   1     -25.793  -0.777  27.695  0.00  0.00    -0.210 NA
BRANCH  19  20
ATOM     20  C   UNL A   1     -26.078   0.109  26.649  0.00  0.00    +0.074 C 
ATOM     21  C   UNL A   1     -25.162   0.228  25.651  0.00  0.00    +0.018 C 
BRANCH  20  22
ATOM     22  C   UNL A   1     -27.326   0.707  26.488  0.00  0.00    +0.054 A 
ATOM     23  C   UNL A   1     -27.567   1.461  25.378  0.00  0.00    +0.004 A 
ATOM     24  C   UNL A   1     -28.764   2.145  25.273  0.00  0.00    +0.000 A 
ATOM     25  C   UNL A   1     -29.730   1.970  26.183  0.00  0.00    +0.003 A 
ATOM     26  C   UNL A   1     -29.460   1.254  27.343  0.00  0.00    +0.042 A 
ATOM     27  C   UNL A   1     -28.298   0.672  27.561  0.00  0.00    +0.197 A 
ATOM     28  O   UNL A   1     -27.615   1.675  28.434  0.00  0.00    -0.286 OA
ENDBRANCH  20  22
ENDBRANCH  19  20
ENDBRANCH   3  19
TORSDOF 7
