MODEL 1295
MODEL 1
REMARK VINA RESULT:    -6.719      0.000      0.000
REMARK INTER + INTRA:         -12.135
REMARK INTER:                  -9.469
REMARK INTRA:                  -2.666
REMARK UNBOUND:                -2.666
REMARK  Name = No_1295-gen_results/8p0m/2024-11-26-14-13-15/
REMARK  7 active torsions:
REMARK  status: ('A' for Active; 'I' for Inactive)
REMARK    1  A    between atoms: C_3  and  N_15
REMARK    2  A    between atoms: C_4  and  C_5
REMARK    3  A    between atoms: C_5  and  C_8
REMARK    4  A    between atoms: C_12  and  N_13
REMARK    5  A    between atoms: N_13  and  C_26
REMARK    6  A    between atoms: N_15  and  C_16
REMARK    7  A    between atoms: C_16  and  C_18
REMARK                            x       y       z     vdW  Elec       q    Type
REMARK                         _______ _______ _______ _____ _____    ______ ____
ROOT
ATOM      1  C   UNL A   1     -27.425   1.136  25.519  0.00  0.00    +0.155 A 
ATOM      2  C   UNL A   1     -27.174   0.316  24.908  0.00  0.00    +0.031 A 
ATOM      3  C   UNL A   1     -26.317   1.787  26.237  0.00  0.00    +0.094 A 
ATOM      4  C   UNL A   1     -24.967   1.400  25.989  0.00  0.00    -0.000 A 
ATOM      5  C   UNL A   1     -25.904  -0.248  24.405  0.00  0.00    +0.002 A 
ATOM      6  C   UNL A   1     -24.767   0.379  25.015  0.00  0.00    -0.003 A 
ATOM      7  F   UNL A   1     -28.065   1.944  24.979  0.00  0.00    -0.203 F 
ENDROOT
BRANCH   4   8
ATOM      8  C   UNL A   1     -23.858   2.012  26.665  0.00  0.00    +0.054 C 
BRANCH   8   9
ATOM      9  C   UNL A   1     -23.069   1.104  27.428  0.00  0.00    -0.017 A 
ATOM     10  C   UNL A   1     -21.655   1.220  27.439  0.00  0.00    -0.004 A 
ATOM     11  C   UNL A   1     -20.846   0.521  28.320  0.00  0.00    +0.001 A 
ATOM     12  C   UNL A   1     -23.624  -0.018  28.133  0.00  0.00    +0.013 A 
ATOM     13  C   UNL A   1     -22.855  -0.714  29.100  0.00  0.00    +0.070 A 
ATOM     14  C   UNL A   1     -21.472  -0.427  29.140  0.00  0.00    +0.017 A 
BRANCH  13  15
ATOM     15  N   UNL A   1     -23.450  -1.698  29.798  0.00  0.00    -0.211 NA
BRANCH  15  16
ATOM     16  C   UNL A   1     -23.747  -2.968  29.305  0.00  0.00    +0.081 C 
ATOM     17  C   UNL A   1     -24.519  -3.641  29.370  0.00  0.00    -0.008 C 
ATOM     18  C   UNL A   1     -24.633  -5.012  28.823  0.00  0.00    +0.032 C 
ENDBRANCH  15  16
ENDBRANCH  13  15
ENDBRANCH   8   9
ENDBRANCH   4   8
BRANCH   3  19
ATOM     19  N   UNL A   1     -26.489   2.779  27.184  0.00  0.00    -0.210 NA
BRANCH  19  20
ATOM     20  C   UNL A   1     -27.157   2.591  28.400  0.00  0.00    +0.074 C 
ATOM     21  C   UNL A   1     -28.504   2.774  28.419  0.00  0.00    +0.018 C 
BRANCH  20  22
ATOM     22  C   UNL A   1     -26.540   2.037  29.520  0.00  0.00    +0.054 A 
ATOM     23  C   UNL A   1     -25.357   2.556  29.956  0.00  0.00    +0.004 A 
ATOM     24  C   UNL A   1     -24.690   1.937  30.996  0.00  0.00    +0.000 A 
ATOM     25  C   UNL A   1     -25.255   0.918  31.656  0.00  0.00    +0.003 A 
ATOM     26  C   UNL A   1     -26.428   0.351  31.171  0.00  0.00    +0.042 A 
ATOM     27  C   UNL A   1     -27.056   0.821  30.112  0.00  0.00    +0.197 A 
ATOM     28  O   UNL A   1     -26.574  -0.102  29.039  0.00  0.00    -0.286 OA
ENDBRANCH  20  22
ENDBRANCH  19  20
ENDBRANCH   3  19
TORSDOF 7
ENDMDL
ENDMDL
