REMARK  Name = No_1296-gen_results/8p0m/2024-11-26-14-13-15/
REMARK  3 active torsions:
REMARK  status: ('A' for Active; 'I' for Inactive)
REMARK    1  A    between atoms: C_4  and  C_8
REMARK    2  A    between atoms: C_8  and  C_9
REMARK    3  A    between atoms: C_13  and  C_15
REMARK                            x       y       z     vdW  Elec       q    Type
REMARK                         _______ _______ _______ _____ _____    ______ ____
ROOT
ATOM      1  C   UNL A   1     -23.632  -0.317  29.120  0.00  0.00    -0.018 A 
ATOM      2  C   UNL A   1     -22.188  -0.241  29.246  0.00  0.00    -0.004 A 
ATOM      3  C   UNL A   1     -21.447   0.322  28.188  0.00  0.00    -0.000 A 
ATOM      4  C   UNL A   1     -22.123   1.226  27.305  0.00  0.00    +0.004 A 
ATOM      5  C   UNL A   1     -23.502   1.368  27.341  0.00  0.00    +0.071 A 
ATOM      6  C   UNL A   1     -24.258   0.696  28.285  0.00  0.00    -0.000 A 
ENDROOT
BRANCH   5   7
ATOM      7  C   UNL A   1     -24.070   2.336  26.409  0.00  0.00    +0.419 C 
ATOM      8  F   UNL A   1     -24.915   3.054  26.932  0.00  0.00    -0.166 F 
ATOM      9  F   UNL A   1     -23.115   3.163  25.863  0.00  0.00    -0.166 F 
ATOM     10  F   UNL A   1     -24.654   1.572  25.409  0.00  0.00    -0.166 F 
ENDBRANCH   5   7
BRANCH   1  11
ATOM     11  C   UNL A   1     -24.380  -0.802  30.142  0.00  0.00    +0.045 C 
ATOM     12  C   UNL A   1     -23.949  -0.238  31.500  0.00  0.00    +0.009 C 
BRANCH  11  16
ATOM     13  C   UNL A   1     -28.016  -0.814  28.878  0.00  0.00    +0.029 A 
ATOM     14  C   UNL A   1     -28.469  -0.785  29.829  0.00  0.00    +0.140 A 
ATOM     15  C   UNL A   1     -26.504  -0.778  28.877  0.00  0.00    -0.002 A 
ATOM     16  C   UNL A   1     -25.810  -0.853  30.103  0.00  0.00    -0.018 A 
ATOM     17  C   UNL A   1     -27.991  -0.892  31.226  0.00  0.00    +0.029 A 
ATOM     18  C   UNL A   1     -26.604  -0.868  31.265  0.00  0.00    -0.002 A 
ATOM     19  F   UNL A   1     -29.920  -0.833  29.824  0.00  0.00    -0.204 F 
ENDBRANCH  11  16
ENDBRANCH   1  11
TORSDOF 3
