MODEL 1296
MODEL 1
REMARK VINA RESULT:    -7.489      0.000      0.000
REMARK INTER + INTRA:          -9.653
REMARK INTER:                  -8.803
REMARK INTRA:                  -0.850
REMARK UNBOUND:                -0.850
REMARK  Name = No_1296-gen_results/8p0m/2024-11-26-14-13-15/
REMARK  3 active torsions:
REMARK  status: ('A' for Active; 'I' for Inactive)
REMARK    1  A    between atoms: C_4  and  C_8
REMARK    2  A    between atoms: C_8  and  C_9
REMARK    3  A    between atoms: C_13  and  C_15
REMARK                            x       y       z     vdW  Elec       q    Type
REMARK                         _______ _______ _______ _____ _____    ______ ____
ROOT
ATOM      1  C   UNL A   1     -22.780  -0.344  28.502  0.00  0.00    -0.018 A 
ATOM      2  C   UNL A   1     -21.672   0.592  28.564  0.00  0.00    -0.004 A 
ATOM      3  C   UNL A   1     -21.494   1.498  27.499  0.00  0.00    -0.000 A 
ATOM      4  C   UNL A   1     -22.635   1.813  26.691  0.00  0.00    +0.004 A 
ATOM      5  C   UNL A   1     -23.812   1.088  26.798  0.00  0.00    +0.071 A 
ATOM      6  C   UNL A   1     -23.944   0.088  27.744  0.00  0.00    -0.000 A 
ENDROOT
BRANCH   5   7
ATOM      7  C   UNL A   1     -24.909   1.520  25.939  0.00  0.00    +0.419 C 
ATOM      8  F   UNL A   1     -26.005   1.395  26.475  0.00  0.00    -0.166 F 
ATOM      9  F   UNL A   1     -24.791   2.838  25.557  0.00  0.00    -0.166 F 
ATOM     10  F   UNL A   1     -24.835   0.702  24.821  0.00  0.00    -0.166 F 
ENDBRANCH   5   7
BRANCH   1  11
ATOM     11  C   UNL A   1     -23.013  -1.192  29.534  0.00  0.00    +0.045 C 
ATOM     12  C   UNL A   1     -23.046  -0.471  30.886  0.00  0.00    +0.009 C 
BRANCH  11  16
ATOM     13  C   UNL A   1     -26.349  -3.009  30.156  0.00  0.00    +0.029 A 
ATOM     14  C   UNL A   1     -26.065  -3.925  29.720  0.00  0.00    +0.140 A 
ATOM     15  C   UNL A   1     -25.278  -1.941  30.182  0.00  0.00    -0.002 A 
ATOM     16  C   UNL A   1     -24.057  -2.172  29.515  0.00  0.00    -0.018 A 
ATOM     17  C   UNL A   1     -24.899  -4.404  28.943  0.00  0.00    +0.029 A 
ATOM     18  C   UNL A   1     -23.896  -3.445  28.938  0.00  0.00    -0.002 A 
ATOM     19  F   UNL A   1     -27.101  -4.942  29.687  0.00  0.00    -0.204 F 
ENDBRANCH  11  16
ENDBRANCH   1  11
TORSDOF 3
ENDMDL
ENDMDL
