MODEL 1297
MODEL 1
REMARK VINA RESULT:    -8.329      0.000      0.000
REMARK INTER + INTRA:         -12.987
REMARK INTER:                 -11.737
REMARK INTRA:                  -1.250
REMARK UNBOUND:                -1.250
REMARK  Name = No_1297-gen_results/8p0m/2024-11-26-14-13-15/
REMARK  7 active torsions:
REMARK  status: ('A' for Active; 'I' for Inactive)
REMARK    1  A    between atoms: C_3  and  C_4
REMARK    2  A    between atoms: C_7  and  C_13
REMARK    3  A    between atoms: C_16  and  C_18
REMARK    4  A    between atoms: C_20  and  C_29
REMARK    5  A    between atoms: C_22  and  C_24
REMARK    6  A    between atoms: N_31  and  C_32
REMARK    7  A    between atoms: C_33  and  C_34
REMARK                            x       y       z     vdW  Elec       q    Type
REMARK                         _______ _______ _______ _____ _____    ______ ____
ROOT
ATOM      1  C   UNL A   1     -30.718 -13.907  26.871  0.00  0.00    +0.272 C 
ATOM      2  N   UNL A   1     -29.920 -14.175  25.944  0.00  0.00    -0.137 NA
ATOM      3  O   UNL A   1     -31.959 -14.142  26.729  0.00  0.00    -0.268 OA
ATOM      4  C   UNL A   1     -30.318 -14.880  24.713  0.00  0.00    +0.272 C 
ATOM      5  O   UNL A   1     -31.407 -15.382  24.773  0.00  0.00    -0.268 OA
ENDROOT
BRANCH   1   9
ATOM      6  C   UNL A   1     -29.699 -11.806  27.971  0.00  0.00    +0.004 A 
ATOM      7  C   UNL A   1     -29.364 -11.234  28.983  0.00  0.00    -0.004 A 
ATOM      8  C   UNL A   1     -29.311 -11.847  30.234  0.00  0.00    -0.022 A 
ATOM      9  C   UNL A   1     -30.243 -13.193  28.085  0.00  0.00    +0.056 A 
ATOM     10  C   UNL A   1     -30.159 -13.909  29.246  0.00  0.00    +0.004 A 
ATOM     11  C   UNL A   1     -29.720 -13.258  30.431  0.00  0.00    -0.004 A 
BRANCH   8  12
ATOM     12  C   UNL A   1     -28.927 -11.225  31.516  0.00  0.00    +0.030 C 
ATOM     13  C   UNL A   1     -29.442  -9.985  32.037  0.00  0.00    +0.005 C 
ATOM     14  C   UNL A   1     -29.013  -9.492  33.284  0.00  0.00    +0.008 C 
ATOM     15  C   UNL A   1     -28.288 -10.315  34.202  0.00  0.00    +0.065 C 
ATOM     16  C   UNL A   1     -28.123 -11.952  32.498  0.00  0.00    +0.069 C 
ATOM     17  C   UNL A   1     -27.824 -11.522  33.529  0.00  0.00    +0.151 C 
ATOM     18  O   UNL A   1     -27.062 -12.304  34.457  0.00  0.00    -0.296 OA
ENDBRANCH   8  12
ENDBRANCH   1   9
BRANCH   4  19
ATOM     19  C   UNL A   1     -29.571 -14.987  23.813  0.00  0.00    +0.056 A 
ATOM     20  C   UNL A   1     -28.741 -15.887  23.642  0.00  0.00    +0.009 A 
ATOM     21  C   UNL A   1     -27.870 -16.095  22.472  0.00  0.00    +0.056 A 
ATOM     22  C   UNL A   1     -27.951 -15.094  21.498  0.00  0.00    +0.008 A 
ATOM     23  C   UNL A   1     -28.798 -14.050  21.621  0.00  0.00    +0.072 A 
ATOM     24  C   UNL A   1     -29.664 -13.963  22.669  0.00  0.00    +0.008 A 
BRANCH  23  25
ATOM     25  C   UNL A   1     -28.920 -13.039  20.504  0.00  0.00    +0.419 C 
ATOM     26  F   UNL A   1     -29.486 -13.293  19.550  0.00  0.00    -0.166 F 
ATOM     27  F   UNL A   1     -29.472 -11.874  21.081  0.00  0.00    -0.166 F 
ATOM     28  F   UNL A   1     -27.591 -12.620  20.304  0.00  0.00    -0.166 F 
ENDBRANCH  23  25
BRANCH  21  29
ATOM     29  C   UNL A   1     -26.914 -17.182  22.402  0.00  0.00    +0.269 C 
ATOM     30  O   UNL A   1     -26.751 -17.924  21.596  0.00  0.00    -0.268 OA
ATOM     31  N   UNL A   1     -26.122 -17.200  23.613  0.00  0.00    -0.174 NA
BRANCH  31  32
ATOM     32  C   UNL A   1     -25.104 -18.213  23.793  0.00  0.00    +0.089 C 
ATOM     33  C   UNL A   1     -24.113 -17.793  24.306  0.00  0.00    +0.018 C 
BRANCH  33  34
ATOM     34  C   UNL A   1     -22.935 -18.645  24.600  0.00  0.00    +0.001 C 
ATOM     35  C   UNL A   1     -21.934 -18.334  25.543  0.00  0.00    +0.000 C 
ENDBRANCH  33  34
ENDBRANCH  31  32
ENDBRANCH  21  29
ENDBRANCH   4  19
TORSDOF 7
ENDMDL
ENDMDL
