REMARK  Name = No_1298-gen_results/8p0m/2024-11-26-14-13-15/
REMARK  0 active torsions:
REMARK  status: ('A' for Active; 'I' for Inactive)
REMARK                            x       y       z     vdW  Elec       q    Type
REMARK                         _______ _______ _______ _____ _____    ______ ____
ROOT
ATOM      1  C   UNL A   1     -28.016  -0.814  28.878  0.00  0.00    +0.000 A 
ATOM      2  C   UNL A   1     -27.064  -0.119  28.608  0.00  0.00    +0.000 A 
ATOM      3  C   UNL A   1     -25.792  -0.430  29.076  0.00  0.00    +0.000 A 
ATOM      4  C   UNL A   1     -24.546   0.349  28.823  0.00  0.00    +0.000 A 
ATOM      5  C   UNL A   1     -24.659   1.420  27.888  0.00  0.00    +0.000 A 
ATOM      6  C   UNL A   1     -23.540   2.179  27.550  0.00  0.00    +0.000 A 
ATOM      7  C   UNL A   1     -22.293   1.743  28.047  0.00  0.00    +0.000 A 
ATOM      8  C   UNL A   1     -22.171   0.708  28.928  0.00  0.00    +0.000 A 
ATOM      9  C   UNL A   1     -23.334  -0.062  29.308  0.00  0.00    +0.000 A 
ATOM     10  C   UNL A   1     -29.340  -0.300  28.677  0.00  0.00    +0.000 A 
ATOM     11  C   UNL A   1     -29.460   0.822  27.861  0.00  0.00    +0.000 A 
ATOM     12  C   UNL A   1     -28.379   1.493  27.411  0.00  0.00    +0.000 A 
ATOM     13  C   UNL A   1     -27.107   1.125  27.812  0.00  0.00    +0.000 A 
ATOM     14  C   UNL A   1     -25.949   1.825  27.437  0.00  0.00    +0.000 A 
ENDROOT
TORSDOF 0
