MODEL 1298
MODEL 1
REMARK VINA RESULT:    -6.586      0.000      0.000
REMARK INTER + INTRA:          -6.586
REMARK INTER:                  -6.586
REMARK INTRA:                   0.000
REMARK UNBOUND:                 0.000
REMARK  Name = No_1298-gen_results/8p0m/2024-11-26-14-13-15/
REMARK  0 active torsions:
REMARK  status: ('A' for Active; 'I' for Inactive)
REMARK                            x       y       z     vdW  Elec       q    Type
REMARK                         _______ _______ _______ _____ _____    ______ ____
ROOT
ATOM      1  C   UNL A   1     -27.583 -12.361  32.173  0.00  0.00    +0.000 A 
ATOM      2  C   UNL A   1     -28.324 -11.700  31.482  0.00  0.00    +0.000 A 
ATOM      3  C   UNL A   1     -28.479 -11.975  30.128  0.00  0.00    +0.000 A 
ATOM      4  C   UNL A   1     -29.349 -11.231  29.173  0.00  0.00    +0.000 A 
ATOM      5  C   UNL A   1     -30.210 -10.250  29.748  0.00  0.00    +0.000 A 
ATOM      6  C   UNL A   1     -31.094  -9.533  28.944  0.00  0.00    +0.000 A 
ATOM      7  C   UNL A   1     -31.202  -9.929  27.593  0.00  0.00    +0.000 A 
ATOM      8  C   UNL A   1     -30.395 -10.879  27.037  0.00  0.00    +0.000 A 
ATOM      9  C   UNL A   1     -29.453 -11.603  27.860  0.00  0.00    +0.000 A 
ATOM     10  C   UNL A   1     -27.185 -11.859  33.457  0.00  0.00    +0.000 A 
ATOM     11  C   UNL A   1     -27.943 -10.816  33.984  0.00  0.00    +0.000 A 
ATOM     12  C   UNL A   1     -28.901 -10.197  33.262  0.00  0.00    +0.000 A 
ATOM     13  C   UNL A   1     -29.110 -10.535  31.937  0.00  0.00    +0.000 A 
ATOM     14  C   UNL A   1     -30.040  -9.880  31.114  0.00  0.00    +0.000 A 
ENDROOT
TORSDOF 0
ENDMDL
ENDMDL
