MODEL 1299
MODEL 1
REMARK VINA RESULT:    -6.314      0.000      0.000
REMARK INTER + INTRA:          -9.816
REMARK INTER:                  -8.898
REMARK INTRA:                  -0.919
REMARK UNBOUND:                -0.919
REMARK  Name = No_1299-gen_results/8p0m/2024-11-26-14-13-15/
REMARK  7 active torsions:
REMARK  status: ('A' for Active; 'I' for Inactive)
REMARK    1  A    between atoms: C_2  and  C_3
REMARK    2  A    between atoms: C_9  and  C_10
REMARK    3  A    between atoms: N_11  and  C_13
REMARK    4  A    between atoms: N_11  and  C_14
REMARK    5  A    between atoms: C_13  and  C_15
REMARK    6  A    between atoms: C_14  and  C_21
REMARK    7  A    between atoms: C_21  and  C_22
REMARK                            x       y       z     vdW  Elec       q    Type
REMARK                         _______ _______ _______ _____ _____    ______ ____
ROOT
ATOM      1  C   UNL A   1     -23.993   0.721  28.320  0.00  0.00    +0.249 C 
ATOM      2  N   UNL A   1     -23.799  -0.205  29.116  0.00  0.00    -0.271 N 
ATOM      3  O   UNL A   1     -23.220   1.815  28.337  0.00  0.00    -0.270 OA
ENDROOT
BRANCH   1   9
ATOM      4  C   UNL A   1     -26.650   0.410  25.060  0.00  0.00    +0.069 A 
ATOM      5  C   UNL A   1     -25.665   0.325  24.771  0.00  0.00    +0.003 A 
ATOM      6  C   UNL A   1     -27.074   0.716  26.570  0.00  0.00    +0.003 A 
ATOM      7  C   UNL A   1     -26.473   0.777  27.438  0.00  0.00    +0.004 A 
ATOM      8  C   UNL A   1     -24.500   0.445  25.865  0.00  0.00    +0.004 A 
ATOM      9  C   UNL A   1     -24.948   0.648  27.198  0.00  0.00    +0.054 A 
BRANCH   4  11
ATOM     10  O   UNL A   1     -28.381  -0.580  24.006  0.00  0.00    -0.262 OA
ATOM     11  C   UNL A   1     -27.697   0.425  24.235  0.00  0.00    +0.449 C 
ATOM     12  O   UNL A   1     -28.279   1.648  23.774  0.00  0.00    -0.262 OA
ENDBRANCH   4  11
ENDBRANCH   1   9
BRANCH   2  13
ATOM     13  C   UNL A   1     -22.910  -0.093  30.318  0.00  0.00    +0.120 C 
BRANCH  13  14
ATOM     14  C   UNL A   1     -23.699  -0.167  31.572  0.00  0.00    -0.002 A 
ATOM     15  C   UNL A   1     -23.371  -1.031  32.291  0.00  0.00    -0.003 A 
ATOM     16  C   UNL A   1     -24.000  -1.164  33.662  0.00  0.00    -0.000 A 
ATOM     17  C   UNL A   1     -25.036  -0.263  33.916  0.00  0.00    -0.000 A 
ATOM     18  C   UNL A   1     -25.316   0.714  32.976  0.00  0.00    -0.000 A 
ATOM     19  C   UNL A   1     -24.647   0.798  31.787  0.00  0.00    -0.003 A 
ENDBRANCH  13  14
ENDBRANCH   2  13
BRANCH   2  20
ATOM     20  C   UNL A   1     -24.449  -1.523  28.999  0.00  0.00    +0.106 C 
BRANCH  20  21
ATOM     21  C   UNL A   1     -23.562  -2.686  28.893  0.00  0.00    +0.136 C 
BRANCH  21  22
ATOM     22  C   UNL A   1     -24.232  -3.870  29.178  0.00  0.00    +0.367 C 
ATOM     23  O   UNL A   1     -23.982  -4.896  28.831  0.00  0.00    -0.246 OA
ATOM     24  O   UNL A   1     -25.631  -3.724  29.370  0.00  0.00    -0.246 OA
ENDBRANCH  21  22
ENDBRANCH  20  21
ENDBRANCH   2  20
TORSDOF 7
ENDMDL
ENDMDL
