REMARK  Name = No_1299-gen_results/8p0m/2024-11-26-14-13-15/
REMARK  7 active torsions:
REMARK  status: ('A' for Active; 'I' for Inactive)
REMARK    1  A    between atoms: C_2  and  C_3
REMARK    2  A    between atoms: C_9  and  C_10
REMARK    3  A    between atoms: N_11  and  C_13
REMARK    4  A    between atoms: N_11  and  C_14
REMARK    5  A    between atoms: C_13  and  C_15
REMARK    6  A    between atoms: C_14  and  C_21
REMARK    7  A    between atoms: C_21  and  C_22
REMARK                            x       y       z     vdW  Elec       q    Type
REMARK                         _______ _______ _______ _____ _____    ______ ____
ROOT
ATOM      1  C   UNL A   1     -25.921   3.248  32.419  0.00  0.00    +0.249 C 
ATOM      2  N   UNL A   1     -26.155   3.218  33.633  0.00  0.00    -0.271 N 
ATOM      3  O   UNL A   1     -25.186   4.233  31.886  0.00  0.00    -0.270 OA
ENDROOT
BRANCH   1   9
ATOM      4  C   UNL A   1     -27.025   0.188  29.736  0.00  0.00    +0.069 A 
ATOM      5  C   UNL A   1     -27.824   0.533  30.285  0.00  0.00    +0.003 A 
ATOM      6  C   UNL A   1     -25.535   0.716  29.971  0.00  0.00    +0.003 A 
ATOM      7  C   UNL A   1     -25.188   1.494  30.598  0.00  0.00    +0.004 A 
ATOM      8  C   UNL A   1     -27.602   1.680  31.382  0.00  0.00    +0.004 A 
ATOM      9  C   UNL A   1     -26.267   2.154  31.492  0.00  0.00    +0.054 A 
BRANCH   4  11
ATOM     10  O   UNL A   1     -28.123  -1.335  28.487  0.00  0.00    -0.262 OA
ATOM     11  C   UNL A   1     -27.064  -0.824  28.869  0.00  0.00    +0.449 C 
ATOM     12  O   UNL A   1     -25.917  -1.210  28.105  0.00  0.00    -0.262 OA
ENDBRANCH   4  11
ENDBRANCH   1   9
BRANCH   2  13
ATOM     13  C   UNL A   1     -25.902   4.372  34.556  0.00  0.00    +0.120 C 
BRANCH  13  14
ATOM     14  C   UNL A   1     -27.109   5.225  34.684  0.00  0.00    -0.002 A 
ATOM     15  C   UNL A   1     -26.875   6.358  34.859  0.00  0.00    -0.003 A 
ATOM     16  C   UNL A   1     -27.997   7.374  34.891  0.00  0.00    -0.000 A 
ATOM     17  C   UNL A   1     -29.279   6.827  34.807  0.00  0.00    -0.000 A 
ATOM     18  C   UNL A   1     -29.410   5.465  34.595  0.00  0.00    -0.000 A 
ATOM     19  C   UNL A   1     -28.331   4.631  34.513  0.00  0.00    -0.003 A 
ENDBRANCH  13  14
ENDBRANCH   2  13
BRANCH   2  20
ATOM     20  C   UNL A   1     -26.747   2.052  34.314  0.00  0.00    +0.106 C 
BRANCH  20  21
ATOM     21  C   UNL A   1     -25.860   1.286  35.196  0.00  0.00    +0.136 C 
BRANCH  21  22
ATOM     22  C   UNL A   1     -26.051  -0.083  35.053  0.00  0.00    +0.367 C 
ATOM     23  O   UNL A   1     -25.532  -0.904  35.592  0.00  0.00    -0.246 OA
ATOM     24  O   UNL A   1     -26.433  -0.491  33.748  0.00  0.00    -0.246 OA
ENDBRANCH  21  22
ENDBRANCH  20  21
ENDBRANCH   2  20
TORSDOF 7
