MODEL 129
MODEL 1
REMARK VINA RESULT:    -8.060      0.000      0.000
REMARK INTER + INTRA:          -8.060
REMARK INTER:                  -8.060
REMARK INTRA:                   0.000
REMARK UNBOUND:                 0.000
REMARK  Name = No_129-gen_results/8p0m/2024-11-26-14-13-15/
REMARK  0 active torsions:
REMARK  status: ('A' for Active; 'I' for Inactive)
REMARK                            x       y       z     vdW  Elec       q    Type
REMARK                         _______ _______ _______ _____ _____    ______ ____
ROOT
ATOM      1  C   UNL A   1     -24.030   1.679  26.509  0.00  0.00    +0.059 C 
ATOM      2  C   UNL A   1     -24.294   1.094  27.534  0.00  0.00    -0.024 A 
ATOM      3  C   UNL A   1     -23.300   0.763  28.448  0.00  0.00    -0.026 A 
ATOM      4  C   UNL A   1     -23.496   0.037  29.736  0.00  0.00    -0.001 A 
ATOM      5  C   UNL A   1     -22.452  -0.313  30.662  0.00  0.00    -0.000 A 
ATOM      6  C   UNL A   1     -22.627   1.887  26.118  0.00  0.00    +0.166 C 
ATOM      7  C   UNL A   1     -21.588   1.665  26.974  0.00  0.00    +0.040 C 
ATOM      8  C   UNL A   1     -21.895   1.076  28.212  0.00  0.00    +0.029 C 
ATOM      9  C   UNL A   1     -22.793  -0.969  31.809  0.00  0.00    +0.003 A 
ATOM     10  C   UNL A   1     -24.032  -1.121  32.344  0.00  0.00    +0.037 A 
ATOM     11  C   UNL A   1     -24.774  -0.561  30.037  0.00  0.00    +0.034 A 
ATOM     12  C   UNL A   1     -25.050  -0.995  31.395  0.00  0.00    +0.145 A 
ATOM     13  F   UNL A   1     -22.323   2.500  24.961  0.00  0.00    -0.237 F 
ATOM     14  O   UNL A   1     -26.335  -1.276  31.709  0.00  0.00    -0.450 OA
ATOM     15  C   UNL A   1     -27.200  -1.503  30.699  0.00  0.00    +0.179 C 
ATOM     16  C   UNL A   1     -25.880  -0.411  29.178  0.00  0.00    +0.006 A 
ATOM     17  C   UNL A   1     -27.092  -1.116  29.479  0.00  0.00    +0.041 C 
ATOM     18  C   UNL A   1     -25.591   0.229  27.844  0.00  0.00    -0.004 A 
ATOM     19  C   UNL A   1     -26.659   0.460  26.875  0.00  0.00    -0.004 A 
ATOM     20  C   UNL A   1     -27.889   0.343  27.046  0.00  0.00    -0.000 A 
ATOM     21  C   UNL A   1     -28.860   0.526  26.065  0.00  0.00    -0.000 A 
ATOM     22  C   UNL A   1     -28.462   1.015  24.868  0.00  0.00    -0.000 A 
ATOM     23  C   UNL A   1     -27.091   1.245  24.635  0.00  0.00    -0.004 A 
ATOM     24  C   UNL A   1     -26.242   0.933  25.560  0.00  0.00    -0.022 A 
ATOM     25  C   UNL A   1     -24.779   1.432  25.440  0.00  0.00    +0.033 C 
ENDROOT
TORSDOF 0
ENDMDL
ENDMDL
