MODEL 12
MODEL 1
REMARK VINA RESULT:    -3.811      0.000      0.000
REMARK INTER + INTRA:          -4.259
REMARK INTER:                  -4.257
REMARK INTRA:                  -0.002
REMARK UNBOUND:                -0.002
REMARK  Name = No_12-gen_results/8p0m/2024-11-26-14-13-15/
REMARK  2 active torsions:
REMARK  status: ('A' for Active; 'I' for Inactive)
REMARK    1  A    between atoms: C_1  and  C_2
REMARK    2  A    between atoms: C_1  and  C_5
REMARK                            x       y       z     vdW  Elec       q    Type
REMARK                         _______ _______ _______ _____ _____    ______ ____
ROOT
ATOM      1  C   UNL A   1      -9.338  -9.360  19.802  0.00  0.00    +0.260 C 
ATOM      2  F   UNL A   1     -10.008  -9.169  20.804  0.00  0.00    -0.226 F 
ENDROOT
BRANCH   1   3
ATOM      3  C   UNL A   1      -8.149  -9.341  20.024  0.00  0.00    +0.236 C 
ATOM      4  F   UNL A   1      -7.844  -9.873  21.096  0.00  0.00    -0.231 F 
ENDBRANCH   1   3
BRANCH   1   5
ATOM      5  C   UNL A   1      -9.910  -9.734  18.544  0.00  0.00    +0.245 C 
ATOM      6  O   UNL A   1     -10.562  -9.002  17.812  0.00  0.00    -0.285 OA
ENDBRANCH   1   5
TORSDOF 2
ENDMDL
ENDMDL
