REMARK  Name = No_13-gen_results/8p0m/2024-11-26-14-13-15/
REMARK  1 active torsions:
REMARK  status: ('A' for Active; 'I' for Inactive)
REMARK    1  A    between atoms: C_2  and  C_5
REMARK                            x       y       z     vdW  Elec       q    Type
REMARK                         _______ _______ _______ _____ _____    ______ ____
ROOT
ATOM      1  C   UNL A   1     -28.016  -0.814  28.878  0.00  0.00    +0.006 A 
ATOM      2  C   UNL A   1     -28.469  -0.785  29.829  0.00  0.00    +0.080 A 
ATOM      3  C   UNL A   1     -28.196   0.348  28.055  0.00  0.00    -0.003 A 
ATOM      4  C   UNL A   1     -29.019   1.350  28.378  0.00  0.00    -0.018 A 
ATOM      5  C   UNL A   1     -29.595   1.286  29.605  0.00  0.00    -0.004 A 
ATOM      6  C   UNL A   1     -29.346   0.209  30.375  0.00  0.00    +0.006 A 
ATOM      7  C   UNL A   1     -27.441   0.350  26.687  0.00  0.00    -0.000 C 
ATOM      8  C   UNL A   1     -28.009   0.689  25.531  0.00  0.00    -0.000 C 
ATOM      9  C   UNL A   1     -29.334   1.040  25.524  0.00  0.00    -0.004 C 
ATOM     10  C   UNL A   1     -29.762   1.980  26.060  0.00  0.00    -0.021 C 
ATOM     11  C   UNL A   1     -29.737   2.172  27.366  0.00  0.00    +0.052 C 
ENDROOT
BRANCH   2  12
ATOM     12  C   UNL A   1     -28.317  -1.981  30.856  0.00  0.00    +0.388 C 
ATOM     13  O   UNL A   1     -27.697  -1.830  31.737  0.00  0.00    -0.241 OA
ATOM     14  O   UNL A   1     -28.805  -3.140  30.405  0.00  0.00    -0.241 OA
ENDBRANCH   2  12
TORSDOF 1
