REMARK  Name = No_130-gen_results/8p0m/2024-11-26-14-13-15/
REMARK  0 active torsions:
REMARK  status: ('A' for Active; 'I' for Inactive)
REMARK                            x       y       z     vdW  Elec       q    Type
REMARK                         _______ _______ _______ _____ _____    ______ ____
ROOT
ATOM      1  C   UNL A   1     -28.016  -0.814  28.878  0.00  0.00    +0.000 A 
ATOM      2  C   UNL A   1     -28.469  -0.785  29.829  0.00  0.00    +0.000 A 
ATOM      3  C   UNL A   1     -27.136   0.236  28.535  0.00  0.00    +0.000 A 
ATOM      4  C   UNL A   1     -26.805   1.051  29.276  0.00  0.00    +0.000 A 
ATOM      5  C   UNL A   1     -28.237   0.150  30.930  0.00  0.00    +0.000 A 
ATOM      6  C   UNL A   1     -27.352   1.124  30.607  0.00  0.00    +0.000 A 
ATOM      7  C   UNL A   1     -26.462   0.196  27.137  0.00  0.00    +0.000 A 
ATOM      8  C   UNL A   1     -25.061   0.425  27.091  0.00  0.00    +0.000 A 
ATOM      9  C   UNL A   1     -24.493   1.263  28.076  0.00  0.00    +0.000 A 
ATOM     10  C   UNL A   1     -25.304   1.474  29.310  0.00  0.00    +0.000 A 
ENDROOT
TORSDOF 0
