MODEL 1300
MODEL 1
REMARK VINA RESULT:    -6.963      0.000      0.000
REMARK INTER + INTRA:          -8.166
REMARK INTER:                  -7.777
REMARK INTRA:                  -0.389
REMARK UNBOUND:                -0.389
REMARK  Name = No_1300-gen_results/8p0m/2024-11-26-14-13-15/
REMARK  2 active torsions:
REMARK  status: ('A' for Active; 'I' for Inactive)
REMARK    1  A    between atoms: C_5  and  N_15
REMARK    2  A    between atoms: C_7  and  C_8
REMARK                            x       y       z     vdW  Elec       q    Type
REMARK                         _______ _______ _______ _____ _____    ______ ____
ROOT
ATOM      1  C   UNL A   1     -24.218  -3.504  29.512  0.00  0.00    +0.087 C 
ATOM      2  C   UNL A   1     -25.192  -3.832  29.278  0.00  0.00    +0.027 C 
ATOM      3  C   UNL A   1     -23.830  -2.158  28.941  0.00  0.00    +0.232 C 
ATOM      4  N   UNL A   1     -24.620  -1.131  29.164  0.00  0.00    -0.225 N 
ATOM      5  C   UNL A   1     -26.442  -2.960  29.677  0.00  0.00    +0.078 C 
ATOM      6  C   UNL A   1     -26.060  -1.514  29.271  0.00  0.00    +0.117 C 
ATOM      7  C   UNL A   1     -24.288   0.161  29.189  0.00  0.00    +0.255 C 
ATOM      8  O   UNL A   1     -24.815   0.892  30.075  0.00  0.00    -0.270 OA
ATOM      9  O   UNL A   1     -22.590  -1.901  28.798  0.00  0.00    -0.275 OA
ENDROOT
BRANCH   7  10
ATOM     10  C   UNL A   1     -23.654   0.700  28.064  0.00  0.00    +0.054 A 
ATOM     11  C   UNL A   1     -22.396   1.186  28.189  0.00  0.00    +0.004 A 
ATOM     12  C   UNL A   1     -21.846   1.884  27.050  0.00  0.00    +0.000 A 
ATOM     13  C   UNL A   1     -22.680   2.175  25.946  0.00  0.00    +0.000 A 
ATOM     14  C   UNL A   1     -23.919   1.474  25.821  0.00  0.00    +0.000 A 
ATOM     15  C   UNL A   1     -24.389   0.891  26.907  0.00  0.00    +0.004 A 
ENDBRANCH   7  10
BRANCH   5  16
ATOM     16  N   UNL A   1     -27.572  -3.230  30.170  0.00  0.00    -0.272 NA
ATOM     17  C   UNL A   1     -28.383  -2.255  30.653  0.00  0.00    +0.072 C 
ATOM     18  C   UNL A   1     -28.006  -4.578  30.357  0.00  0.00    +0.072 C 
ATOM     19  C   UNL A   1     -29.233  -4.826  30.859  0.00  0.00    +0.017 C 
ATOM     20  C   UNL A   1     -29.718  -2.451  31.151  0.00  0.00    +0.017 C 
ATOM     21  C   UNL A   1     -30.116  -3.775  31.251  0.00  0.00    +0.003 C 
ENDBRANCH   5  16
TORSDOF 2
ENDMDL
ENDMDL
