REMARK  Name = No_1301-gen_results/8p0m/2024-11-26-14-13-15/
REMARK  5 active torsions:
REMARK  status: ('A' for Active; 'I' for Inactive)
REMARK    1  A    between atoms: C_1  and  C_2
REMARK    2  A    between atoms: C_1  and  O_8
REMARK    3  A    between atoms: O_8  and  C_10
REMARK    4  A    between atoms: C_10  and  C_11
REMARK    5  A    between atoms: C_10  and  C_14
REMARK                            x       y       z     vdW  Elec       q    Type
REMARK                         _______ _______ _______ _____ _____    ______ ____
ROOT
ATOM      1  C   UNL A   1     -28.016  -0.814  28.878  0.00  0.00    +0.169 C 
ENDROOT
BRANCH   1   2
ATOM      2  C   UNL A   1     -27.064  -0.119  28.608  0.00  0.00    +0.007 A 
ATOM      3  C   UNL A   1     -27.001   0.691  27.491  0.00  0.00    -0.001 A 
ATOM      4  C   UNL A   1     -25.777   1.021  26.913  0.00  0.00    +0.011 A 
ATOM      5  C   UNL A   1     -24.509   0.736  27.569  0.00  0.00    +0.058 A 
ATOM      6  C   UNL A   1     -24.593  -0.036  28.739  0.00  0.00    +0.011 A 
ATOM      7  C   UNL A   1     -25.811  -0.477  29.158  0.00  0.00    -0.001 A 
ATOM      8 CL   UNL A   1     -23.159   1.545  26.953  0.00  0.00    -0.082 Cl
ENDBRANCH   1   2
BRANCH   1   9
ATOM      9  O   UNL A   1     -28.541  -0.558  29.986  0.00  0.00    -0.341 OA
BRANCH   9  10
ATOM     10  C   UNL A   1     -29.759  -0.460  30.337  0.00  0.00    +0.216 C 
BRANCH  10  11
ATOM     11  C   UNL A   1     -30.471   0.446  29.820  0.00  0.00    +0.236 C 
ATOM     12 BR   UNL A   1     -32.192   0.422  29.483  0.00  0.00    -0.005 Br
ATOM     13  O   UNL A   1     -29.822   1.527  29.380  0.00  0.00    -0.281 OA
ENDBRANCH  10  11
BRANCH  10  14
ATOM     14  C   UNL A   1     -30.323  -1.431  31.308  0.00  0.00    +0.220 C 
ATOM     15  O   UNL A   1     -30.708  -2.562  31.018  0.00  0.00    -0.217 OA
ENDBRANCH  10  14
ENDBRANCH   9  10
ENDBRANCH   1   9
TORSDOF 5
