REMARK  Name = No_1302-gen_results/8p0m/2024-11-26-14-13-15/
REMARK  6 active torsions:
REMARK  status: ('A' for Active; 'I' for Inactive)
REMARK    1  A    between atoms: C_1  and  C_2
REMARK    2  A    between atoms: C_1  and  C_8
REMARK    3  A    between atoms: C_7  and  C_17
REMARK    4  A    between atoms: C_21  and  C_22
REMARK    5  A    between atoms: C_22  and  N_24
REMARK    6  A    between atoms: N_24  and  C_25
REMARK                            x       y       z     vdW  Elec       q    Type
REMARK                         _______ _______ _______ _____ _____    ______ ____
ROOT
ATOM      1  C   UNL A   1     -27.064  -0.119  28.608  0.00  0.00    -0.012 A 
ATOM      2  C   UNL A   1     -25.792  -0.430  29.076  0.00  0.00    -0.008 A 
ATOM      3  C   UNL A   1     -24.546   0.349  28.823  0.00  0.00    -0.015 A 
ATOM      4  C   UNL A   1     -24.659   1.420  27.888  0.00  0.00    +0.051 A 
ATOM      5  C   UNL A   1     -25.947   1.681  27.379  0.00  0.00    +0.011 A 
ATOM      6  C   UNL A   1     -27.044   0.974  27.687  0.00  0.00    +0.076 A 
ATOM      7  C   UNL A   1     -23.445   2.134  27.552  0.00  0.00    +0.265 C 
ATOM      8  O   UNL A   1     -23.480   3.110  26.818  0.00  0.00    -0.268 OA
ATOM      9  N   UNL A   1     -22.192   1.655  27.927  0.00  0.00    -0.201 NA
ATOM     10  C   UNL A   1     -21.936   0.604  28.786  0.00  0.00    +0.121 C 
ATOM     11  C   UNL A   1     -23.141  -0.176  29.206  0.00  0.00    +0.066 C 
ENDROOT
BRANCH   6  12
ATOM     12  C   UNL A   1     -28.345   1.354  27.065  0.00  0.00    +0.388 C 
ATOM     13  O   UNL A   1     -28.524   1.728  26.082  0.00  0.00    -0.241 OA
ATOM     14  O   UNL A   1     -29.330   1.613  27.968  0.00  0.00    -0.241 OA
ENDBRANCH   6  12
BRANCH   1  15
ATOM     15  C   UNL A   1     -28.016  -0.814  28.878  0.00  0.00    +0.053 C 
BRANCH  15  16
ATOM     16  C   UNL A   1     -28.660  -0.460  30.201  0.00  0.00    -0.018 A 
ATOM     17  C   UNL A   1     -28.526   0.501  30.697  0.00  0.00    -0.003 A 
ATOM     18  C   UNL A   1     -29.205   0.797  32.056  0.00  0.00    +0.006 A 
ATOM     19  C   UNL A   1     -29.542  -1.609  30.786  0.00  0.00    -0.003 A 
ATOM     20  C   UNL A   1     -30.189  -1.353  31.996  0.00  0.00    +0.006 A 
ATOM     21  C   UNL A   1     -29.989  -0.107  32.618  0.00  0.00    +0.035 A 
ATOM     22 BR   UNL A   1     -30.834   0.192  34.284  0.00  0.00    -0.049 Br
ENDBRANCH  15  16
ENDBRANCH   1  15
BRANCH  11  23
ATOM     23  C   UNL A   1     -22.974  -1.288  30.050  0.00  0.00    +0.118 C 
BRANCH  23  24
ATOM     24  N   UNL A   1     -23.280  -1.493  31.259  0.00  0.00    -0.237 NA
BRANCH  24  25
ATOM     25  C   UNL A   1     -23.813  -0.495  31.990  0.00  0.00    +0.065 A 
ATOM     26  C   UNL A   1     -24.715   0.425  31.688  0.00  0.00    +0.016 A 
ATOM     27  C   UNL A   1     -25.225   1.338  32.642  0.00  0.00    +0.001 A 
ATOM     28  C   UNL A   1     -25.683   0.827  33.821  0.00  0.00    +0.000 A 
ATOM     29  C   UNL A   1     -24.971  -0.355  34.304  0.00  0.00    +0.001 A 
ATOM     30  C   UNL A   1     -24.168  -1.129  33.460  0.00  0.00    +0.016 A 
ENDBRANCH  24  25
ENDBRANCH  23  24
ENDBRANCH  11  23
TORSDOF 6
