MODEL 1302
MODEL 1
REMARK VINA RESULT:    -7.474      0.000      0.000
REMARK INTER + INTRA:         -11.742
REMARK INTER:                 -10.095
REMARK INTRA:                  -1.647
REMARK UNBOUND:                -1.647
REMARK  Name = No_1302-gen_results/8p0m/2024-11-26-14-13-15/
REMARK  6 active torsions:
REMARK  status: ('A' for Active; 'I' for Inactive)
REMARK    1  A    between atoms: C_1  and  C_2
REMARK    2  A    between atoms: C_1  and  C_8
REMARK    3  A    between atoms: C_7  and  C_17
REMARK    4  A    between atoms: C_21  and  C_22
REMARK    5  A    between atoms: C_22  and  N_24
REMARK    6  A    between atoms: N_24  and  C_25
REMARK                            x       y       z     vdW  Elec       q    Type
REMARK                         _______ _______ _______ _____ _____    ______ ____
ROOT
ATOM      1  C   UNL A   1     -15.107   4.042  38.103  0.00  0.00    -0.012 A 
ATOM      2  C   UNL A   1     -13.907   3.355  37.957  0.00  0.00    -0.008 A 
ATOM      3  C   UNL A   1     -13.305   2.899  36.671  0.00  0.00    -0.015 A 
ATOM      4  C   UNL A   1     -14.120   3.054  35.511  0.00  0.00    +0.051 A 
ATOM      5  C   UNL A   1     -15.359   3.700  35.691  0.00  0.00    +0.011 A 
ATOM      6  C   UNL A   1     -15.825   4.136  36.871  0.00  0.00    +0.076 A 
ATOM      7  C   UNL A   1     -13.598   2.535  34.264  0.00  0.00    +0.265 C 
ATOM      8  O   UNL A   1     -14.207   2.701  33.218  0.00  0.00    -0.268 OA
ATOM      9  N   UNL A   1     -12.475   1.713  34.231  0.00  0.00    -0.201 NA
ATOM     10  C   UNL A   1     -11.624   1.440  35.284  0.00  0.00    +0.121 C 
ATOM     11  C   UNL A   1     -12.073   1.963  36.611  0.00  0.00    +0.066 C 
ENDROOT
BRANCH   6  12
ATOM     12  C   UNL A   1     -17.162   4.794  36.919  0.00  0.00    +0.388 C 
ATOM     13  O   UNL A   1     -18.122   4.353  36.772  0.00  0.00    -0.241 OA
ATOM     14  O   UNL A   1     -17.116   6.144  36.747  0.00  0.00    -0.241 OA
ENDBRANCH   6  12
BRANCH   1  15
ATOM     15  C   UNL A   1     -15.506   4.376  39.195  0.00  0.00    +0.053 C 
BRANCH  15  16
ATOM     16  C   UNL A   1     -15.889   3.207  40.076  0.00  0.00    -0.018 A 
ATOM     17  C   UNL A   1     -16.843   2.686  40.004  0.00  0.00    -0.003 A 
ATOM     18  C   UNL A   1     -17.177   1.502  40.943  0.00  0.00    +0.006 A 
ATOM     19  C   UNL A   1     -14.776   2.815  41.101  0.00  0.00    -0.003 A 
ATOM     20  C   UNL A   1     -15.044   1.731  41.938  0.00  0.00    +0.006 A 
ATOM     21  C   UNL A   1     -16.288   1.084  41.828  0.00  0.00    +0.035 A 
ATOM     22 BR   UNL A   1     -16.645  -0.347  43.012  0.00  0.00    -0.049 Br
ENDBRANCH  15  16
ENDBRANCH   1  15
BRANCH  11  23
ATOM     23  C   UNL A   1     -11.290   1.701  37.749  0.00  0.00    +0.118 C 
BRANCH  23  24
ATOM     24  N   UNL A   1     -10.451   0.794  38.015  0.00  0.00    -0.237 NA
BRANCH  24  25
ATOM     25  C   UNL A   1     -10.864  -0.340  38.613  0.00  0.00    +0.065 A 
ATOM     26  C   UNL A   1     -11.811  -0.561  39.511  0.00  0.00    +0.016 A 
ATOM     27  C   UNL A   1     -12.163  -1.861  39.946  0.00  0.00    +0.001 A 
ATOM     28  C   UNL A   1     -12.416  -2.799  38.989  0.00  0.00    +0.000 A 
ATOM     29  C   UNL A   1     -11.625  -2.668  37.766  0.00  0.00    +0.001 A 
ATOM     30  C   UNL A   1     -10.967  -1.479  37.438  0.00  0.00    +0.016 A 
ENDBRANCH  24  25
ENDBRANCH  23  24
ENDBRANCH  11  23
TORSDOF 6
ENDMDL
ENDMDL
