REMARK  Name = No_1303-gen_results/8p0m/2024-11-26-14-13-15/
REMARK  2 active torsions:
REMARK  status: ('A' for Active; 'I' for Inactive)
REMARK    1  A    between atoms: C_1  and  C_2
REMARK    2  A    between atoms: C_3  and  C_4
REMARK                            x       y       z     vdW  Elec       q    Type
REMARK                         _______ _______ _______ _____ _____    ______ ____
ROOT
ATOM      1  C   UNL A   1     -27.064  -0.119  28.608  0.00  0.00    -0.026 C 
ATOM      2  C   UNL A   1     -25.792  -0.430  29.076  0.00  0.00    -0.005 C 
ENDROOT
BRANCH   1   3
ATOM      3  C   UNL A   1     -28.016  -0.814  28.878  0.00  0.00    +0.026 C 
ATOM      4  C   UNL A   1     -27.851  -1.900  29.814  0.00  0.00    +0.005 C 
ENDBRANCH   1   3
BRANCH   2   5
ATOM      5  C   UNL A   1     -25.568  -1.241  29.757  0.00  0.00    -0.000 C 
ATOM      6  C   UNL A   1     -24.238  -1.669  30.365  0.00  0.00    -0.000 C 
ENDBRANCH   2   5
TORSDOF 2
