MODEL 1303
MODEL 1
REMARK VINA RESULT:    -3.556      0.000      0.000
REMARK INTER + INTRA:          -4.103
REMARK INTER:                  -3.972
REMARK INTRA:                  -0.131
REMARK UNBOUND:                -0.131
REMARK  Name = No_1303-gen_results/8p0m/2024-11-26-14-13-15/
REMARK  2 active torsions:
REMARK  status: ('A' for Active; 'I' for Inactive)
REMARK    1  A    between atoms: C_1  and  C_2
REMARK    2  A    between atoms: C_3  and  C_4
REMARK                            x       y       z     vdW  Elec       q    Type
REMARK                         _______ _______ _______ _____ _____    ______ ____
ROOT
ATOM      1  C   UNL A   1     -24.476  -3.148  29.613  0.00  0.00    -0.026 C 
ATOM      2  C   UNL A   1     -23.919  -1.874  29.592  0.00  0.00    -0.005 C 
ENDROOT
BRANCH   1   3
ATOM      3  C   UNL A   1     -24.131  -3.993  28.820  0.00  0.00    +0.026 C 
ATOM      4  C   UNL A   1     -24.709  -5.313  28.902  0.00  0.00    +0.005 C 
ENDBRANCH   1   3
BRANCH   2   5
ATOM      5  C   UNL A   1     -23.109  -1.567  28.944  0.00  0.00    -0.000 C 
ATOM      6  C   UNL A   1     -21.912  -0.669  29.233  0.00  0.00    -0.000 C 
ENDBRANCH   2   5
TORSDOF 2
ENDMDL
ENDMDL
