REMARK  Name = No_1304-gen_results/8p0m/2024-11-26-14-13-15/
REMARK  6 active torsions:
REMARK  status: ('A' for Active; 'I' for Inactive)
REMARK    1  A    between atoms: C_1  and  C_11
REMARK    2  A    between atoms: C_4  and  C_5
REMARK    3  A    between atoms: C_16  and  C_19
REMARK    4  A    between atoms: C_19  and  C_21
REMARK    5  A    between atoms: C_21  and  N_22
REMARK    6  A    between atoms: N_22  and  C_23
REMARK                            x       y       z     vdW  Elec       q    Type
REMARK                         _______ _______ _______ _____ _____    ______ ____
ROOT
ATOM      1  C   UNL A   1     -28.024  -1.608  30.196  0.00  0.00    +0.249 C 
ATOM      2  O   UNL A   1     -27.109  -2.436  30.374  0.00  0.00    -0.270 OA
ATOM      3  N   UNL A   1     -28.702  -1.276  31.244  0.00  0.00    -0.276 N 
ATOM      4  C   UNL A   1     -28.689  -2.083  32.473  0.00  0.00    +0.094 C 
ATOM      5  C   UNL A   1     -29.715  -0.233  31.222  0.00  0.00    +0.095 C 
ATOM      6  C   UNL A   1     -30.211   0.111  32.464  0.00  0.00    +0.037 C 
ATOM      7  C   UNL A   1     -29.227  -1.526  33.617  0.00  0.00    +0.022 C 
ATOM      8  C   UNL A   1     -30.124  -0.541  33.589  0.00  0.00    +0.005 C 
ENDROOT
BRANCH   1   9
ATOM      9  C   UNL A   1     -28.016  -0.814  28.878  0.00  0.00    +0.054 A 
ATOM     10  C   UNL A   1     -27.064  -0.119  28.608  0.00  0.00    +0.004 A 
ATOM     11  C   UNL A   1     -27.001   0.691  27.491  0.00  0.00    +0.004 A 
ATOM     12  C   UNL A   1     -28.137   0.736  26.635  0.00  0.00    +0.071 A 
ATOM     13  C   UNL A   1     -29.280  -0.552  28.248  0.00  0.00    +0.004 A 
ATOM     14  C   UNL A   1     -29.255   0.095  27.045  0.00  0.00    +0.004 A 
BRANCH  12  15
ATOM     15  C   UNL A   1     -28.144   1.432  25.488  0.00  0.00    +0.419 C 
ATOM     16  F   UNL A   1     -27.295   1.270  24.634  0.00  0.00    -0.166 F 
ATOM     17  F   UNL A   1     -28.075   2.853  25.701  0.00  0.00    -0.166 F 
ATOM     18  F   UNL A   1     -29.401   1.381  24.821  0.00  0.00    -0.166 F 
ENDBRANCH  12  15
ENDBRANCH   1   9
BRANCH   6  19
ATOM     19  C   UNL A   1     -31.137   1.361  32.316  0.00  0.00    +0.103 C 
ATOM     20 CL   UNL A   1     -31.480   2.282  33.472  0.00  0.00    -0.113 Cl
BRANCH  19  21
ATOM     21  C   UNL A   1     -31.697   1.669  31.022  0.00  0.00    +0.128 C 
BRANCH  21  22
ATOM     22  N   UNL A   1     -32.530   1.010  30.453  0.00  0.00    -0.235 NA
BRANCH  22  23
ATOM     23  C   UNL A   1     -33.099   0.012  30.741  0.00  0.00    +0.075 C 
ATOM     24  C   UNL A   1     -33.438  -0.915  30.241  0.00  0.00    -0.008 C 
ATOM     25  C   UNL A   1     -34.054  -2.127  30.747  0.00  0.00    +0.032 C 
ENDBRANCH  22  23
ENDBRANCH  21  22
ENDBRANCH  19  21
ENDBRANCH   6  19
TORSDOF 6
