MODEL 1304
MODEL 1
REMARK VINA RESULT:    -6.040      0.000      0.000
REMARK INTER + INTRA:          -9.880
REMARK INTER:                  -8.158
REMARK INTRA:                  -1.722
REMARK UNBOUND:                -1.722
REMARK  Name = No_1304-gen_results/8p0m/2024-11-26-14-13-15/
REMARK  6 active torsions:
REMARK  status: ('A' for Active; 'I' for Inactive)
REMARK    1  A    between atoms: C_1  and  C_11
REMARK    2  A    between atoms: C_4  and  C_5
REMARK    3  A    between atoms: C_16  and  C_19
REMARK    4  A    between atoms: C_19  and  C_21
REMARK    5  A    between atoms: C_21  and  N_22
REMARK    6  A    between atoms: N_22  and  C_23
REMARK                            x       y       z     vdW  Elec       q    Type
REMARK                         _______ _______ _______ _____ _____    ______ ____
ROOT
ATOM      1  C   UNL A   1     -28.024 -12.692   7.576  0.00  0.00    +0.249 C 
ATOM      2  O   UNL A   1     -27.245 -12.960   6.641  0.00  0.00    -0.270 OA
ATOM      3  N   UNL A   1     -28.453 -13.697   8.265  0.00  0.00    -0.276 N 
ATOM      4  C   UNL A   1     -28.371 -15.079   7.767  0.00  0.00    +0.094 C 
ATOM      5  C   UNL A   1     -29.265 -13.537   9.460  0.00  0.00    +0.095 C 
ATOM      6  C   UNL A   1     -29.482 -14.704  10.167  0.00  0.00    +0.037 C 
ATOM      7  C   UNL A   1     -28.610 -16.103   8.663  0.00  0.00    +0.022 C 
ATOM      8  C   UNL A   1     -29.320 -15.937   9.779  0.00  0.00    +0.005 C 
ENDROOT
BRANCH   1   9
ATOM      9  C   UNL A   1     -28.102 -11.226   8.037  0.00  0.00    +0.054 A 
ATOM     10  C   UNL A   1     -28.839 -10.460   7.461  0.00  0.00    +0.004 A 
ATOM     11  C   UNL A   1     -28.916  -9.111   7.749  0.00  0.00    +0.004 A 
ATOM     12  C   UNL A   1     -28.051  -8.593   8.753  0.00  0.00    +0.071 A 
ATOM     13  C   UNL A   1     -27.001 -10.706   8.799  0.00  0.00    +0.004 A 
ATOM     14  C   UNL A   1     -27.112  -9.424   9.259  0.00  0.00    +0.004 A 
BRANCH  12  15
ATOM     15  C   UNL A   1     -28.104  -7.315   9.156  0.00  0.00    +0.419 C 
ATOM     16  F   UNL A   1     -28.485  -7.008  10.269  0.00  0.00    -0.166 F 
ATOM     17  F   UNL A   1     -28.954  -6.506   8.325  0.00  0.00    -0.166 F 
ATOM     18  F   UNL A   1     -26.880  -6.619   8.944  0.00  0.00    -0.166 F 
ENDBRANCH  12  15
ENDBRANCH   1   9
BRANCH   6  19
ATOM     19  C   UNL A   1     -30.196 -14.360  11.513  0.00  0.00    +0.103 C 
ATOM     20 CL   UNL A   1     -29.837 -15.015  12.834  0.00  0.00    -0.113 Cl
BRANCH  19  21
ATOM     21  C   UNL A   1     -31.247 -13.371  11.517  0.00  0.00    +0.128 C 
BRANCH  21  22
ATOM     22  N   UNL A   1     -31.203 -12.317  12.099  0.00  0.00    -0.235 NA
BRANCH  22  23
ATOM     23  C   UNL A   1     -31.322 -11.195  11.739  0.00  0.00    +0.075 C 
ATOM     24  C   UNL A   1     -30.973 -10.557  10.904  0.00  0.00    -0.008 C 
ATOM     25  C   UNL A   1     -31.280  -9.192  10.525  0.00  0.00    +0.032 C 
ENDBRANCH  22  23
ENDBRANCH  21  22
ENDBRANCH  19  21
ENDBRANCH   6  19
TORSDOF 6
ENDMDL
ENDMDL
