REMARK  Name = No_1305-gen_results/8p0m/2024-11-26-14-13-15/
REMARK  0 active torsions:
REMARK  status: ('A' for Active; 'I' for Inactive)
REMARK                            x       y       z     vdW  Elec       q    Type
REMARK                         _______ _______ _______ _____ _____    ______ ____
ROOT
ATOM      1  C   UNL A   1     -28.016  -0.814  28.878  0.00  0.00    +0.059 A 
ATOM      2  C   UNL A   1     -28.469  -0.785  29.829  0.00  0.00    +0.142 A 
ATOM      3  C   UNL A   1     -27.136   0.236  28.535  0.00  0.00    +0.142 A 
ATOM      4  C   UNL A   1     -26.805   1.051  29.276  0.00  0.00    +0.030 A 
ATOM      5  C   UNL A   1     -28.237   0.150  30.930  0.00  0.00    +0.030 A 
ATOM      6  C   UNL A   1     -27.352   1.124  30.607  0.00  0.00    +0.005 A 
ATOM      7  F   UNL A   1     -26.557   0.157  27.264  0.00  0.00    -0.204 F 
ATOM      8  F   UNL A   1     -29.367  -1.839  30.255  0.00  0.00    -0.204 F 
ENDROOT
TORSDOF 0
