MODEL 1305
MODEL 1
REMARK VINA RESULT:    -4.980      0.000      0.000
REMARK INTER + INTRA:          -4.980
REMARK INTER:                  -4.980
REMARK INTRA:                   0.000
REMARK UNBOUND:                 0.000
REMARK  Name = No_1305-gen_results/8p0m/2024-11-26-14-13-15/
REMARK  0 active torsions:
REMARK  status: ('A' for Active; 'I' for Inactive)
REMARK                            x       y       z     vdW  Elec       q    Type
REMARK                         _______ _______ _______ _____ _____    ______ ____
ROOT
ATOM      1  C   UNL A   1      -8.167 -10.433  18.765  0.00  0.00    +0.059 A 
ATOM      2  C   UNL A   1      -9.006 -10.320  18.137  0.00  0.00    +0.142 A 
ATOM      3  C   UNL A   1      -8.186  -9.774  20.014  0.00  0.00    +0.142 A 
ATOM      4  C   UNL A   1      -9.107  -9.218  20.422  0.00  0.00    +0.030 A 
ATOM      5  C   UNL A   1     -10.277  -9.649  18.411  0.00  0.00    +0.030 A 
ATOM      6  C   UNL A   1     -10.302  -9.063  19.632  0.00  0.00    +0.005 A 
ATOM      7  F   UNL A   1      -7.054  -9.953  20.816  0.00  0.00    -0.204 F 
ATOM      8  F   UNL A   1      -9.063 -10.983  16.850  0.00  0.00    -0.204 F 
ENDROOT
TORSDOF 0
ENDMDL
ENDMDL
