MODEL 1306
MODEL 1
REMARK VINA RESULT:    -6.484      0.000      0.000
REMARK INTER + INTRA:          -7.191
REMARK INTER:                  -6.863
REMARK INTRA:                  -0.328
REMARK UNBOUND:                -0.328
REMARK  Name = No_1306-gen_results/8p0m/2024-11-26-14-13-15/
REMARK  1 active torsions:
REMARK  status: ('A' for Active; 'I' for Inactive)
REMARK    1  A    between atoms: C_3  and  C_7
REMARK                            x       y       z     vdW  Elec       q    Type
REMARK                         _______ _______ _______ _____ _____    ______ ____
ROOT
ATOM      1  C   UNL A   1     -24.782  -5.040  28.979  0.00  0.00    +0.000 A 
ATOM      2  C   UNL A   1     -24.128  -4.068  28.677  0.00  0.00    +0.000 A 
ATOM      3  C   UNL A   1     -24.526  -2.758  28.938  0.00  0.00    +0.000 A 
ATOM      4  C   UNL A   1     -25.819  -2.523  29.553  0.00  0.00    +0.000 A 
ATOM      5  C   UNL A   1     -26.530  -3.703  29.869  0.00  0.00    +0.000 A 
ATOM      6  C   UNL A   1     -26.075  -4.895  29.577  0.00  0.00    +0.000 A 
ENDROOT
BRANCH   3   7
ATOM      7  C   UNL A   1     -23.771  -1.521  28.608  0.00  0.00    +0.000 A 
ATOM      8  C   UNL A   1     -22.607  -1.260  29.145  0.00  0.00    +0.000 A 
ATOM      9  C   UNL A   1     -21.927  -0.029  28.866  0.00  0.00    +0.000 A 
ATOM     10  C   UNL A   1     -22.493   0.987  28.164  0.00  0.00    +0.000 A 
ATOM     11  C   UNL A   1     -24.405  -0.455  27.856  0.00  0.00    +0.000 A 
ATOM     12  C   UNL A   1     -23.742   0.785  27.648  0.00  0.00    +0.000 A 
ENDBRANCH   3   7
TORSDOF 1
ENDMDL
ENDMDL
