MODEL 1307
MODEL 1
REMARK VINA RESULT:    -7.297      0.000      0.000
REMARK INTER + INTRA:         -10.480
REMARK INTER:                  -9.004
REMARK INTRA:                  -1.476
REMARK UNBOUND:                -1.476
REMARK  Name = No_1307-gen_results/8p0m/2024-11-26-14-13-15/
REMARK  4 active torsions:
REMARK  status: ('A' for Active; 'I' for Inactive)
REMARK    1  A    between atoms: C_2  and  C_7
REMARK    2  A    between atoms: C_3  and  C_11
REMARK    3  A    between atoms: C_12  and  C_14
REMARK    4  A    between atoms: C_15  and  C_16
REMARK                            x       y       z     vdW  Elec       q    Type
REMARK                         _______ _______ _______ _____ _____    ______ ____
ROOT
ATOM      1  C   UNL A   1      -9.156   1.697  34.727  0.00  0.00    -0.004 C 
ATOM      2  C   UNL A   1      -8.688   0.586  35.509  0.00  0.00    -0.022 C 
ATOM      3  C   UNL A   1      -7.283   0.403  35.540  0.00  0.00    +0.031 C 
ENDROOT
BRANCH   1   6
ATOM      4  C   UNL A   1     -11.622   2.430  35.402  0.00  0.00    +0.004 A 
ATOM      5  C   UNL A   1     -12.640   2.299  35.160  0.00  0.00    +0.071 A 
ATOM      6  C   UNL A   1     -10.645   1.777  34.516  0.00  0.00    -0.000 A 
ATOM      7  C   UNL A   1     -11.071   1.128  33.321  0.00  0.00    -0.000 A 
ATOM      8  C   UNL A   1     -13.333   1.733  33.971  0.00  0.00    +0.004 A 
ATOM      9  C   UNL A   1     -12.460   1.110  33.130  0.00  0.00    -0.000 A 
BRANCH   5  10
ATOM     10  C   UNL A   1     -13.729   3.007  36.085  0.00  0.00    +0.419 C 
ATOM     11  F   UNL A   1     -14.899   3.092  35.484  0.00  0.00    -0.166 F 
ATOM     12  F   UNL A   1     -13.290   4.215  36.466  0.00  0.00    -0.166 F 
ATOM     13  F   UNL A   1     -13.824   2.267  37.159  0.00  0.00    -0.166 F 
ENDBRANCH   5  10
ENDBRANCH   1   6
BRANCH   2  14
ATOM     14  C   UNL A   1      -9.467  -0.233  36.275  0.00  0.00    -0.004 C 
ATOM     15  C   UNL A   1      -9.655  -0.039  37.655  0.00  0.00    -0.000 C 
BRANCH  15  16
ATOM     16  C   UNL A   1     -10.382  -0.973  38.298  0.00  0.00    -0.000 A 
ATOM     17  C   UNL A   1     -10.694  -0.807  39.562  0.00  0.00    -0.000 A 
ATOM     18  C   UNL A   1     -11.645  -1.381  40.079  0.00  0.00    -0.000 A 
ATOM     19  C   UNL A   1     -12.381  -2.469  39.410  0.00  0.00    +0.000 A 
ATOM     20  C   UNL A   1     -12.032  -2.701  38.114  0.00  0.00    -0.000 A 
ATOM     21  C   UNL A   1     -11.111  -1.942  37.495  0.00  0.00    -0.000 A 
ENDBRANCH  15  16
ENDBRANCH   2  14
TORSDOF 4
ENDMDL
ENDMDL
