REMARK  Name = No_1307-gen_results/8p0m/2024-11-26-14-13-15/
REMARK  4 active torsions:
REMARK  status: ('A' for Active; 'I' for Inactive)
REMARK    1  A    between atoms: C_2  and  C_7
REMARK    2  A    between atoms: C_3  and  C_11
REMARK    3  A    between atoms: C_12  and  C_14
REMARK    4  A    between atoms: C_15  and  C_16
REMARK                            x       y       z     vdW  Elec       q    Type
REMARK                         _______ _______ _______ _____ _____    ______ ____
ROOT
ATOM      1  C   UNL A   1     -25.667  -0.784  27.630  0.00  0.00    -0.004 C 
ATOM      2  C   UNL A   1     -25.944   0.303  26.733  0.00  0.00    -0.022 C 
ATOM      3  C   UNL A   1     -24.998   0.504  25.697  0.00  0.00    +0.031 C 
ENDROOT
BRANCH   1   6
ATOM      4  C   UNL A   1     -28.016  -0.814  28.878  0.00  0.00    +0.004 A 
ATOM      5  C   UNL A   1     -28.469  -0.785  29.829  0.00  0.00    +0.071 A 
ATOM      6  C   UNL A   1     -26.546  -0.876  28.850  0.00  0.00    -0.000 A 
ATOM      7  C   UNL A   1     -25.804  -1.032  30.057  0.00  0.00    -0.000 A 
ATOM      8  C   UNL A   1     -27.944  -0.987  31.207  0.00  0.00    +0.004 A 
ATOM      9  C   UNL A   1     -26.582  -1.039  31.223  0.00  0.00    -0.000 A 
BRANCH   5  10
ATOM     10  C   UNL A   1     -30.061  -0.737  29.902  0.00  0.00    +0.419 C 
ATOM     11  F   UNL A   1     -30.483   0.116  30.813  0.00  0.00    -0.166 F 
ATOM     12  F   UNL A   1     -30.546  -1.967  30.127  0.00  0.00    -0.166 F 
ATOM     13  F   UNL A   1     -30.465  -0.368  28.714  0.00  0.00    -0.166 F 
ENDBRANCH   5  10
ENDBRANCH   1   6
BRANCH   2  14
ATOM     14  C   UNL A   1     -27.065   1.083  26.748  0.00  0.00    -0.004 C 
ATOM     15  C   UNL A   1     -27.366   2.011  25.735  0.00  0.00    -0.000 C 
BRANCH  15  16
ATOM     16  C   UNL A   1     -28.462   2.769  25.923  0.00  0.00    -0.000 A 
ATOM     17  C   UNL A   1     -28.721   3.764  25.106  0.00  0.00    -0.000 A 
ATOM     18  C   UNL A   1     -29.850   4.220  24.973  0.00  0.00    -0.000 A 
ATOM     19  C   UNL A   1     -30.967   3.862  25.866  0.00  0.00    +0.000 A 
ATOM     20  C   UNL A   1     -30.704   2.872  26.764  0.00  0.00    -0.000 A 
ATOM     21  C   UNL A   1     -29.514   2.247  26.782  0.00  0.00    -0.000 A 
ENDBRANCH  15  16
ENDBRANCH   2  14
TORSDOF 4
