MODEL 1308
MODEL 1
REMARK VINA RESULT:    -5.820      0.000      0.000
REMARK INTER + INTRA:          -6.747
REMARK INTER:                  -6.500
REMARK INTRA:                  -0.247
REMARK UNBOUND:                -0.247
REMARK  Name = No_1308-gen_results/8p0m/2024-11-26-14-13-15/
REMARK  2 active torsions:
REMARK  status: ('A' for Active; 'I' for Inactive)
REMARK    1  A    between atoms: C_1  and  C_2
REMARK    2  A    between atoms: C_5  and  C_11
REMARK                            x       y       z     vdW  Elec       q    Type
REMARK                         _______ _______ _______ _____ _____    ______ ____
ROOT
ATOM      1  C   UNL A   1     -29.697 -10.860  30.110  0.00  0.00    +0.071 A 
ATOM      2  C   UNL A   1     -28.679 -11.803  30.200  0.00  0.00    +0.004 A 
ATOM      3  C   UNL A   1     -27.893 -12.135  31.423  0.00  0.00    +0.005 A 
ATOM      4  C   UNL A   1     -28.110 -11.291  32.552  0.00  0.00    +0.057 A 
ATOM      5  C   UNL A   1     -29.104 -10.302  32.420  0.00  0.00    +0.005 A 
ATOM      6  C   UNL A   1     -29.819 -10.086  31.305  0.00  0.00    +0.004 A 
ENDROOT
BRANCH   1   7
ATOM      7  C   UNL A   1     -30.283 -10.671  29.069  0.00  0.00    +0.419 C 
ATOM      8  F   UNL A   1     -30.567  -9.528  28.644  0.00  0.00    -0.166 F 
ATOM      9  F   UNL A   1     -31.461 -11.384  29.033  0.00  0.00    -0.166 F 
ATOM     10  F   UNL A   1     -29.488 -11.074  27.991  0.00  0.00    -0.166 F 
ENDBRANCH   1   7
BRANCH   4  11
ATOM     11  C   UNL A   1     -27.359 -11.613  33.737  0.00  0.00    +0.284 C 
ATOM     12  N   UNL A   1     -27.038 -10.741  34.543  0.00  0.00    -0.084 NA
ATOM     13  O   UNL A   1     -26.739 -12.791  33.933  0.00  0.00    -0.267 OA
ENDBRANCH   4  11
TORSDOF 2
ENDMDL
ENDMDL
