MODEL 1309
MODEL 1
REMARK VINA RESULT:    -6.108      0.000      0.000
REMARK INTER + INTRA:          -7.597
REMARK INTER:                  -7.179
REMARK INTRA:                  -0.418
REMARK UNBOUND:                -0.418
REMARK  Name = No_1309-gen_results/8p0m/2024-11-26-14-13-15/
REMARK  3 active torsions:
REMARK  status: ('A' for Active; 'I' for Inactive)
REMARK    1  A    between atoms: C_1  and  C_2
REMARK    2  A    between atoms: C_2  and  C_8
REMARK    3  A    between atoms: C_9  and  C_10
REMARK                            x       y       z     vdW  Elec       q    Type
REMARK                         _______ _______ _______ _____ _____    ______ ____
ROOT
ATOM      1  C   UNL A   1     -25.009  -2.484  28.731  0.00  0.00    -0.018 A 
ATOM      2  C   UNL A   1     -23.903  -3.391  28.613  0.00  0.00    -0.004 A 
ATOM      3  C   UNL A   1     -24.121  -4.851  28.566  0.00  0.00    -0.000 A 
ATOM      4  C   UNL A   1     -25.239  -5.398  29.223  0.00  0.00    -0.000 A 
ATOM      5  C   UNL A   1     -26.217  -4.526  29.743  0.00  0.00    -0.000 A 
ATOM      6  C   UNL A   1     -26.079  -3.192  29.636  0.00  0.00    -0.004 A 
ENDROOT
BRANCH   1   7
ATOM      7  C   UNL A   1     -24.765  -1.475  28.913  0.00  0.00    +0.052 C 
BRANCH   7   8
ATOM      8  C   UNL A   1     -23.654  -0.822  28.595  0.00  0.00    -0.021 C 
ATOM      9  C   UNL A   1     -23.486   0.492  28.194  0.00  0.00    -0.005 C 
BRANCH   9  10
ATOM     10  C   UNL A   1     -22.202   1.093  28.045  0.00  0.00    -0.005 C 
ATOM     11  C   UNL A   1     -22.034   1.947  26.983  0.00  0.00    -0.026 C 
ATOM     12  C   UNL A   1     -22.990   2.147  26.073  0.00  0.00    +0.031 C 
ENDBRANCH   9  10
ENDBRANCH   7   8
ENDBRANCH   1   7
TORSDOF 3
ENDMDL
ENDMDL
