REMARK  Name = No_1309-gen_results/8p0m/2024-11-26-14-13-15/
REMARK  3 active torsions:
REMARK  status: ('A' for Active; 'I' for Inactive)
REMARK    1  A    between atoms: C_1  and  C_2
REMARK    2  A    between atoms: C_2  and  C_8
REMARK    3  A    between atoms: C_9  and  C_10
REMARK                            x       y       z     vdW  Elec       q    Type
REMARK                         _______ _______ _______ _____ _____    ______ ____
ROOT
ATOM      1  C   UNL A   1     -28.016  -0.814  28.878  0.00  0.00    -0.018 A 
ATOM      2  C   UNL A   1     -28.196   0.348  28.055  0.00  0.00    -0.004 A 
ATOM      3  C   UNL A   1     -27.442   0.510  26.795  0.00  0.00    -0.000 A 
ATOM      4  C   UNL A   1     -26.169  -0.079  26.679  0.00  0.00    -0.000 A 
ATOM      5  C   UNL A   1     -25.731  -0.961  27.688  0.00  0.00    -0.000 A 
ATOM      6  C   UNL A   1     -26.504  -1.222  28.758  0.00  0.00    -0.004 A 
ENDROOT
BRANCH   1   7
ATOM      7  C   UNL A   1     -28.469  -0.785  29.829  0.00  0.00    +0.052 C 
BRANCH   7   8
ATOM      8  C   UNL A   1     -29.653  -0.289  30.166  0.00  0.00    -0.021 C 
ATOM      9  C   UNL A   1     -30.438  -0.555  31.275  0.00  0.00    -0.005 C 
BRANCH   9  10
ATOM     10  C   UNL A   1     -31.618   0.185  31.577  0.00  0.00    -0.005 C 
ATOM     11  C   UNL A   1     -32.031   1.105  30.645  0.00  0.00    -0.026 C 
ATOM     12  C   UNL A   1     -31.323   1.371  29.545  0.00  0.00    +0.031 C 
ENDBRANCH   9  10
ENDBRANCH   7   8
ENDBRANCH   1   7
TORSDOF 3
