MODEL 130
MODEL 1
REMARK VINA RESULT:    -5.541      0.000      0.000
REMARK INTER + INTRA:          -5.541
REMARK INTER:                  -5.541
REMARK INTRA:                   0.000
REMARK UNBOUND:                 0.000
REMARK  Name = No_130-gen_results/8p0m/2024-11-26-14-13-15/
REMARK  0 active torsions:
REMARK  status: ('A' for Active; 'I' for Inactive)
REMARK                            x       y       z     vdW  Elec       q    Type
REMARK                         _______ _______ _______ _____ _____    ______ ____
ROOT
ATOM      1  C   UNL A   1     -24.102  -4.313  28.818  0.00  0.00    +0.000 A 
ATOM      2  C   UNL A   1     -24.853  -5.043  28.936  0.00  0.00    +0.000 A 
ATOM      3  C   UNL A   1     -24.413  -2.984  29.183  0.00  0.00    +0.000 A 
ATOM      4  C   UNL A   1     -25.394  -2.684  29.703  0.00  0.00    +0.000 A 
ATOM      5  C   UNL A   1     -26.178  -4.911  29.542  0.00  0.00    +0.000 A 
ATOM      6  C   UNL A   1     -26.445  -3.642  29.935  0.00  0.00    +0.000 A 
ATOM      7  C   UNL A   1     -23.310  -1.905  29.015  0.00  0.00    +0.000 A 
ATOM      8  C   UNL A   1     -23.088  -1.034  30.115  0.00  0.00    +0.000 A 
ATOM      9  C   UNL A   1     -24.183  -0.737  30.957  0.00  0.00    +0.000 A 
ATOM     10  C   UNL A   1     -25.338  -1.679  30.894  0.00  0.00    +0.000 A 
ENDROOT
TORSDOF 0
ENDMDL
ENDMDL
