MODEL 1310
MODEL 1
REMARK VINA RESULT:    -6.800      0.000      0.000
REMARK INTER + INTRA:          -8.569
REMARK INTER:                  -7.993
REMARK INTRA:                  -0.577
REMARK UNBOUND:                -0.577
REMARK  Name = No_1310-gen_results/8p0m/2024-11-26-14-13-15/
REMARK  3 active torsions:
REMARK  status: ('A' for Active; 'I' for Inactive)
REMARK    1  A    between atoms: C_3  and  C_5
REMARK    2  A    between atoms: N_9  and  C_10
REMARK    3  A    between atoms: C_10  and  C_11
REMARK                            x       y       z     vdW  Elec       q    Type
REMARK                         _______ _______ _______ _____ _____    ______ ____
ROOT
ATOM      1  C   UNL A   1     -23.416   0.169  30.472  0.00  0.00    +0.250 C 
ATOM      2  N   UNL A   1     -23.688  -0.936  30.322  0.00  0.00    -0.200 NA
ATOM      3  O   UNL A   1     -23.664   0.509  31.706  0.00  0.00    -0.273 OA
ENDROOT
BRANCH   1   6
ATOM      4  O   UNL A   1     -24.402   2.377  28.977  0.00  0.00    -0.273 OA
ATOM      5  C   UNL A   1     -23.423   1.774  28.907  0.00  0.00    +0.250 C 
ATOM      6  C   UNL A   1     -22.914   0.933  29.366  0.00  0.00    +0.156 C 
ATOM      7  N   UNL A   1     -22.597   2.253  27.687  0.00  0.00    -0.205 NA
ATOM      8  C   UNL A   1     -21.435   1.643  27.284  0.00  0.00    +0.115 C 
ATOM      9  C   UNL A   1     -20.990   0.583  28.041  0.00  0.00    +0.024 C 
ATOM     10  C   UNL A   1     -21.654   0.131  29.019  0.00  0.00    +0.020 C 
ENDBRANCH   1   6
BRANCH   2  11
ATOM     11  C   UNL A   1     -24.801  -1.434  29.805  0.00  0.00    +0.141 C 
BRANCH  11  12
ATOM     12  C   UNL A   1     -24.951  -2.840  29.608  0.00  0.00    -0.001 A 
ATOM     13  C   UNL A   1     -25.784  -3.411  29.880  0.00  0.00    -0.003 A 
ATOM     14  C   UNL A   1     -26.125  -4.875  29.577  0.00  0.00    -0.000 A 
ATOM     15  C   UNL A   1     -25.170  -5.552  28.910  0.00  0.00    -0.000 A 
ATOM     16  C   UNL A   1     -24.033  -4.829  28.526  0.00  0.00    -0.000 A 
ATOM     17  C   UNL A   1     -23.873  -3.486  28.816  0.00  0.00    -0.003 A 
ENDBRANCH  11  12
ENDBRANCH   2  11
TORSDOF 3
ENDMDL
ENDMDL
