REMARK  Name = No_1310-gen_results/8p0m/2024-11-26-14-13-15/
REMARK  3 active torsions:
REMARK  status: ('A' for Active; 'I' for Inactive)
REMARK    1  A    between atoms: C_3  and  C_5
REMARK    2  A    between atoms: N_9  and  C_10
REMARK    3  A    between atoms: C_10  and  C_11
REMARK                            x       y       z     vdW  Elec       q    Type
REMARK                         _______ _______ _______ _____ _____    ______ ____
ROOT
ATOM      1  C   UNL A   1     -27.651   0.126  30.880  0.00  0.00    +0.250 C 
ATOM      2  N   UNL A   1     -28.230  -0.812  31.202  0.00  0.00    -0.200 NA
ATOM      3  O   UNL A   1     -27.555   0.940  31.894  0.00  0.00    -0.273 OA
ENDROOT
BRANCH   1   6
ATOM      4  O   UNL A   1     -28.123  -1.335  28.487  0.00  0.00    -0.273 OA
ATOM      5  C   UNL A   1     -27.481  -0.404  28.709  0.00  0.00    +0.250 C 
ATOM      6  C   UNL A   1     -27.190   0.246  29.527  0.00  0.00    +0.156 C 
ATOM      7  N   UNL A   1     -26.687  -0.000  27.442  0.00  0.00    -0.205 NA
ATOM      8  C   UNL A   1     -25.751   1.005  27.434  0.00  0.00    +0.115 C 
ATOM      9  C   UNL A   1     -25.561   1.691  28.612  0.00  0.00    +0.024 C 
ATOM     10  C   UNL A   1     -26.156   1.368  29.681  0.00  0.00    +0.020 C 
ENDBRANCH   1   6
BRANCH   2  11
ATOM     11  C   UNL A   1     -29.514  -1.076  31.012  0.00  0.00    +0.141 C 
BRANCH  11  12
ATOM     12  C   UNL A   1     -30.023  -2.398  31.192  0.00  0.00    -0.001 A 
ATOM     13  C   UNL A   1     -29.730  -3.245  30.653  0.00  0.00    -0.003 A 
ATOM     14  C   UNL A   1     -30.079  -4.724  30.863  0.00  0.00    -0.000 A 
ATOM     15  C   UNL A   1     -30.953  -4.963  31.860  0.00  0.00    -0.000 A 
ATOM     16  C   UNL A   1     -31.376  -3.857  32.610  0.00  0.00    -0.000 A 
ATOM     17  C   UNL A   1     -30.937  -2.571  32.349  0.00  0.00    -0.003 A 
ENDBRANCH  11  12
ENDBRANCH   2  11
TORSDOF 3
