REMARK  Name = No_1311-gen_results/8p0m/2024-11-26-14-13-15/
REMARK  1 active torsions:
REMARK  status: ('A' for Active; 'I' for Inactive)
REMARK    1  A    between atoms: C_4  and  C_5
REMARK                            x       y       z     vdW  Elec       q    Type
REMARK                         _______ _______ _______ _____ _____    ______ ____
ROOT
ATOM      1  C   UNL A   1     -28.016  -0.814  28.878  0.00  0.00    -0.000 A 
ATOM      2  C   UNL A   1     -27.064  -0.119  28.608  0.00  0.00    -0.000 A 
ATOM      3  C   UNL A   1     -27.001   0.691  27.491  0.00  0.00    -0.000 A 
ATOM      4  C   UNL A   1     -28.137   0.736  26.635  0.00  0.00    -0.004 A 
ATOM      5  C   UNL A   1     -29.280  -0.552  28.248  0.00  0.00    -0.000 A 
ATOM      6  C   UNL A   1     -29.255   0.095  27.045  0.00  0.00    -0.000 A 
ENDROOT
BRANCH   4   7
ATOM      7  C   UNL A   1     -28.144   1.432  25.488  0.00  0.00    -0.026 C 
ATOM      8  C   UNL A   1     -28.532   2.615  25.477  0.00  0.00    -0.030 C 
ATOM      9  C   UNL A   1     -27.637   0.803  24.269  0.00  0.00    +0.031 C 
ATOM     10  C   UNL A   1     -28.960   3.308  24.215  0.00  0.00    +0.030 C 
ENDBRANCH   4   7
TORSDOF 1
