MODEL 1311
MODEL 1
REMARK VINA RESULT:    -5.436      0.000      0.000
REMARK INTER + INTRA:          -6.040
REMARK INTER:                  -5.753
REMARK INTRA:                  -0.287
REMARK UNBOUND:                -0.287
REMARK  Name = No_1311-gen_results/8p0m/2024-11-26-14-13-15/
REMARK  1 active torsions:
REMARK  status: ('A' for Active; 'I' for Inactive)
REMARK    1  A    between atoms: C_4  and  C_5
REMARK                            x       y       z     vdW  Elec       q    Type
REMARK                         _______ _______ _______ _____ _____    ______ ____
ROOT
ATOM      1  C   UNL A   1     -26.117  -4.876  29.544  0.00  0.00    -0.000 A 
ATOM      2  C   UNL A   1     -24.967  -5.000  29.194  0.00  0.00    -0.000 A 
ATOM      3  C   UNL A   1     -24.137  -3.935  28.903  0.00  0.00    -0.000 A 
ATOM      4  C   UNL A   1     -24.659  -2.620  29.063  0.00  0.00    -0.004 A 
ATOM      5  C   UNL A   1     -26.572  -3.604  30.033  0.00  0.00    -0.000 A 
ATOM      6  C   UNL A   1     -25.883  -2.497  29.625  0.00  0.00    -0.000 A 
ENDROOT
BRANCH   4   7
ATOM      7  C   UNL A   1     -23.958  -1.525  28.734  0.00  0.00    -0.026 C 
ATOM      8  C   UNL A   1     -22.779  -1.400  29.114  0.00  0.00    -0.030 C 
ATOM      9  C   UNL A   1     -24.576  -0.513  27.878  0.00  0.00    +0.031 C 
ATOM     10  C   UNL A   1     -22.084  -0.069  29.151  0.00  0.00    +0.030 C 
ENDBRANCH   4   7
TORSDOF 1
ENDMDL
ENDMDL
