MODEL 1312
MODEL 1
REMARK VINA RESULT:    -5.273      0.000      0.000
REMARK INTER + INTRA:          -5.718
REMARK INTER:                  -5.581
REMARK INTRA:                  -0.137
REMARK UNBOUND:                -0.137
REMARK  Name = No_1312-gen_results/8p0m/2024-11-26-14-13-15/
REMARK  1 active torsions:
REMARK  status: ('A' for Active; 'I' for Inactive)
REMARK    1  A    between atoms: C_3  and  C_7
REMARK                            x       y       z     vdW  Elec       q    Type
REMARK                         _______ _______ _______ _____ _____    ______ ____
ROOT
ATOM      1  C   UNL A   1     -26.001  -2.990  29.608  0.00  0.00    +0.015 A 
ATOM      2  C   UNL A   1     -26.165  -4.028  29.691  0.00  0.00    +0.058 A 
ATOM      3  C   UNL A   1     -24.731  -2.647  28.969  0.00  0.00    +0.072 A 
ATOM      4  C   UNL A   1     -23.862  -3.606  28.510  0.00  0.00    +0.004 A 
ATOM      5  C   UNL A   1     -25.447  -5.241  29.303  0.00  0.00    +0.011 A 
ATOM      6  C   UNL A   1     -24.216  -4.920  28.683  0.00  0.00    +0.001 A 
ATOM      7 CL   UNL A   1     -27.792  -4.561  30.386  0.00  0.00    -0.082 Cl
ENDROOT
BRANCH   3   8
ATOM      8  C   UNL A   1     -24.338  -1.229  28.725  0.00  0.00    +0.419 C 
ATOM      9  F   UNL A   1     -24.789  -0.516  29.505  0.00  0.00    -0.166 F 
ATOM     10  F   UNL A   1     -24.784  -0.786  27.478  0.00  0.00    -0.166 F 
ATOM     11  F   UNL A   1     -22.948  -1.130  28.633  0.00  0.00    -0.166 F 
ENDBRANCH   3   8
TORSDOF 1
ENDMDL
ENDMDL
