REMARK  Name = No_1313-gen_results/8p0m/2024-11-26-14-13-15/
REMARK  3 active torsions:
REMARK  status: ('A' for Active; 'I' for Inactive)
REMARK    1  A    between atoms: C_3  and  C_4
REMARK    2  A    between atoms: C_4  and  C_8
REMARK    3  A    between atoms: C_11  and  C_12
REMARK                            x       y       z     vdW  Elec       q    Type
REMARK                         _______ _______ _______ _____ _____    ______ ____
ROOT
ATOM      1  C   UNL A   1     -25.926   0.282  26.744  0.00  0.00    -0.018 A 
ATOM      2  C   UNL A   1     -25.023   0.448  25.677  0.00  0.00    -0.004 A 
ATOM      3  C   UNL A   1     -26.479   1.490  27.102  0.00  0.00    -0.004 A 
ATOM      4  C   UNL A   1     -26.702   2.504  26.168  0.00  0.00    -0.000 A 
ATOM      5  C   UNL A   1     -26.194   2.165  25.222  0.00  0.00    -0.000 A 
ATOM      6  C   UNL A   1     -25.283   1.274  24.724  0.00  0.00    -0.000 A 
ENDROOT
BRANCH   4   7
ATOM      7  C   UNL A   1     -27.434   3.632  26.532  0.00  0.00    -0.000 A 
ATOM      8  C   UNL A   1     -27.480   4.718  25.685  0.00  0.00    -0.000 A 
ATOM      9  C   UNL A   1     -28.265   5.840  26.030  0.00  0.00    -0.000 A 
ATOM     10  C   UNL A   1     -29.042   5.855  27.225  0.00  0.00    +0.000 A 
ATOM     11  C   UNL A   1     -28.945   4.768  28.036  0.00  0.00    -0.000 A 
ATOM     12  C   UNL A   1     -28.164   3.655  27.757  0.00  0.00    -0.000 A 
ENDBRANCH   4   7
BRANCH   1  13
ATOM     13  C   UNL A   1     -25.654  -0.660  27.719  0.00  0.00    +0.053 C 
BRANCH  13  16
ATOM     14  C   UNL A   1     -28.016  -0.814  28.878  0.00  0.00    +0.026 A 
ATOM     15  C   UNL A   1     -28.469  -0.785  29.829  0.00  0.00    +0.140 A 
ATOM     16  C   UNL A   1     -26.504  -0.778  28.877  0.00  0.00    -0.016 A 
ATOM     17  C   UNL A   1     -27.918  -0.937  31.182  0.00  0.00    +0.030 A 
ATOM     18  C   UNL A   1     -26.542  -0.940  31.261  0.00  0.00    +0.002 A 
ATOM     19  C   UNL A   1     -25.783  -0.893  30.120  0.00  0.00    -0.004 A 
ATOM     20  F   UNL A   1     -29.911  -0.732  29.840  0.00  0.00    -0.204 F 
ENDBRANCH  13  16
ENDBRANCH   1  13
TORSDOF 3
