MODEL 1313
MODEL 1
REMARK VINA RESULT:    -7.992      0.000      0.000
REMARK INTER + INTRA:         -10.386
REMARK INTER:                  -9.394
REMARK INTRA:                  -0.992
REMARK UNBOUND:                -0.992
REMARK  Name = No_1313-gen_results/8p0m/2024-11-26-14-13-15/
REMARK  3 active torsions:
REMARK  status: ('A' for Active; 'I' for Inactive)
REMARK    1  A    between atoms: C_3  and  C_4
REMARK    2  A    between atoms: C_4  and  C_8
REMARK    3  A    between atoms: C_11  and  C_12
REMARK                            x       y       z     vdW  Elec       q    Type
REMARK                         _______ _______ _______ _____ _____    ______ ____
ROOT
ATOM      1  C   UNL A   1     -23.433  -0.317  28.497  0.00  0.00    -0.018 A 
ATOM      2  C   UNL A   1     -22.531   0.764  28.537  0.00  0.00    -0.004 A 
ATOM      3  C   UNL A   1     -24.540   0.005  27.747  0.00  0.00    -0.004 A 
ATOM      4  C   UNL A   1     -24.464   0.875  26.656  0.00  0.00    -0.000 A 
ATOM      5  C   UNL A   1     -23.429   1.317  26.689  0.00  0.00    -0.000 A 
ATOM      6  C   UNL A   1     -22.335   1.490  27.492  0.00  0.00    -0.000 A 
ENDROOT
BRANCH   4   7
ATOM      7  C   UNL A   1     -25.563   1.025  25.812  0.00  0.00    -0.000 A 
ATOM      8  C   UNL A   1     -26.032  -0.060  25.104  0.00  0.00    -0.000 A 
ATOM      9  C   UNL A   1     -27.177   0.080  24.290  0.00  0.00    -0.000 A 
ATOM     10  C   UNL A   1     -27.881   1.317  24.216  0.00  0.00    +0.000 A 
ATOM     11  C   UNL A   1     -27.365   2.361  24.917  0.00  0.00    -0.000 A 
ATOM     12  C   UNL A   1     -26.225   2.283  25.706  0.00  0.00    -0.000 A 
ENDBRANCH   4   7
BRANCH   1  13
ATOM     13  C   UNL A   1     -23.574  -1.121  29.613  0.00  0.00    +0.053 C 
BRANCH  13  16
ATOM     14  C   UNL A   1     -23.910  -3.639  28.911  0.00  0.00    +0.026 A 
ATOM     15  C   UNL A   1     -24.653  -4.384  28.850  0.00  0.00    +0.140 A 
ATOM     16  C   UNL A   1     -24.346  -2.336  29.543  0.00  0.00    -0.016 A 
ATOM     17  C   UNL A   1     -25.985  -4.491  29.461  0.00  0.00    +0.030 A 
ATOM     18  C   UNL A   1     -26.442  -3.349  30.082  0.00  0.00    +0.002 A 
ATOM     19  C   UNL A   1     -25.638  -2.243  30.177  0.00  0.00    -0.004 A 
ATOM     20  F   UNL A   1     -24.274  -5.600  28.172  0.00  0.00    -0.204 F 
ENDBRANCH  13  16
ENDBRANCH   1  13
TORSDOF 3
ENDMDL
ENDMDL
