REMARK  Name = No_1314-gen_results/8p0m/2024-11-26-14-13-15/
REMARK  4 active torsions:
REMARK  status: ('A' for Active; 'I' for Inactive)
REMARK    1  A    between atoms: C_2  and  C_14
REMARK    2  A    between atoms: C_7  and  C_18
REMARK    3  A    between atoms: C_9  and  C_11
REMARK    4  A    between atoms: C_18  and  C_20
REMARK                            x       y       z     vdW  Elec       q    Type
REMARK                         _______ _______ _______ _____ _____    ______ ____
ROOT
ATOM      1  C   UNL A   1     -28.016  -0.814  28.878  0.00  0.00    +0.006 A 
ATOM      2  C   UNL A   1     -28.469  -0.785  29.829  0.00  0.00    +0.080 A 
ATOM      3  C   UNL A   1     -27.136   0.236  28.535  0.00  0.00    -0.001 A 
ATOM      4  C   UNL A   1     -26.875   1.282  29.398  0.00  0.00    +0.027 A 
ATOM      5  C   UNL A   1     -28.361   0.199  30.924  0.00  0.00    +0.007 A 
ATOM      6  C   UNL A   1     -27.528   1.223  30.636  0.00  0.00    +0.002 A 
ATOM      7  C   UNL A   1     -26.372   0.510  27.259  0.00  0.00    -0.018 A 
ATOM      8  C   UNL A   1     -25.142   0.621  27.216  0.00  0.00    +0.005 A 
ATOM      9  C   UNL A   1     -24.494   1.373  28.292  0.00  0.00    +0.107 A 
ATOM     10  C   UNL A   1     -25.380   1.662  29.447  0.00  0.00    +0.146 A 
ATOM     11  F   UNL A   1     -24.920   2.445  30.363  0.00  0.00    -0.204 F 
ENDROOT
BRANCH   9  12
ATOM     12  C   UNL A   1     -23.211   1.942  28.186  0.00  0.00    +0.390 C 
ATOM     13  O   UNL A   1     -22.487   2.084  29.141  0.00  0.00    -0.240 OA
ATOM     14  O   UNL A   1     -22.813   2.442  27.024  0.00  0.00    -0.240 OA
ENDBRANCH   9  12
BRANCH   2  15
ATOM     15  C   UNL A   1     -29.609  -1.892  30.201  0.00  0.00    +0.388 C 
ATOM     16  O   UNL A   1     -30.583  -1.758  29.649  0.00  0.00    -0.241 OA
ATOM     17  O   UNL A   1     -29.466  -2.599  31.314  0.00  0.00    -0.241 OA
ENDBRANCH   2  15
BRANCH   7  18
ATOM     18  C   UNL A   1     -27.212   0.476  26.044  0.00  0.00    +0.044 C 
ATOM     19  C   UNL A   1     -26.659  -0.065  24.885  0.00  0.00    +0.009 C 
BRANCH  18  20
ATOM     20  C   UNL A   1     -28.453   1.097  25.949  0.00  0.00    -0.022 C 
ATOM     21  C   UNL A   1     -28.917   2.148  26.627  0.00  0.00    -0.005 C 
ENDBRANCH  18  20
ENDBRANCH   7  18
TORSDOF 4
