MODEL 1314
MODEL 1
REMARK VINA RESULT:    -6.934      0.000      0.000
REMARK INTER + INTRA:          -9.361
REMARK INTER:                  -8.555
REMARK INTRA:                  -0.806
REMARK UNBOUND:                -0.806
REMARK  Name = No_1314-gen_results/8p0m/2024-11-26-14-13-15/
REMARK  4 active torsions:
REMARK  status: ('A' for Active; 'I' for Inactive)
REMARK    1  A    between atoms: C_2  and  C_14
REMARK    2  A    between atoms: C_7  and  C_18
REMARK    3  A    between atoms: C_9  and  C_11
REMARK    4  A    between atoms: C_18  and  C_20
REMARK                            x       y       z     vdW  Elec       q    Type
REMARK                         _______ _______ _______ _____ _____    ______ ____
ROOT
ATOM      1  C   UNL A   1     -25.419  -0.801  27.471  0.00  0.00    +0.006 A 
ATOM      2  C   UNL A   1     -24.984  -0.074  26.844  0.00  0.00    +0.080 A 
ATOM      3  C   UNL A   1     -24.843  -1.003  28.745  0.00  0.00    -0.001 A 
ATOM      4  C   UNL A   1     -23.738  -0.292  29.168  0.00  0.00    +0.027 A 
ATOM      5  C   UNL A   1     -23.822   0.812  27.050  0.00  0.00    +0.007 A 
ATOM      6  C   UNL A   1     -23.239   0.650  28.259  0.00  0.00    +0.002 A 
ATOM      7  C   UNL A   1     -25.194  -1.979  29.846  0.00  0.00    -0.018 A 
ATOM      8  C   UNL A   1     -25.496  -1.628  30.991  0.00  0.00    +0.005 A 
ATOM      9  C   UNL A   1     -24.721  -0.541  31.591  0.00  0.00    +0.107 A 
ATOM     10  C   UNL A   1     -23.856   0.187  30.630  0.00  0.00    +0.146 A 
ATOM     11  F   UNL A   1     -23.037   1.058  31.115  0.00  0.00    -0.204 F 
ENDROOT
BRANCH   9  12
ATOM     12  C   UNL A   1     -24.643  -0.308  32.977  0.00  0.00    +0.390 C 
ATOM     13  O   UNL A   1     -24.082  -1.068  33.729  0.00  0.00    -0.240 OA
ATOM     14  O   UNL A   1     -25.296   0.719  33.504  0.00  0.00    -0.240 OA
ENDBRANCH   9  12
BRANCH   2  15
ATOM     15  C   UNL A   1     -25.521   0.078  25.311  0.00  0.00    +0.388 C 
ATOM     16  O   UNL A   1     -24.708   0.052  24.530  0.00  0.00    -0.241 OA
ATOM     17  O   UNL A   1     -26.740   0.561  25.111  0.00  0.00    -0.241 OA
ENDBRANCH   2  15
BRANCH   7  18
ATOM     18  C   UNL A   1     -25.296  -3.380  29.388  0.00  0.00    +0.044 C 
ATOM     19  C   UNL A   1     -26.449  -4.090  29.715  0.00  0.00    +0.009 C 
BRANCH  18  20
ATOM     20  C   UNL A   1     -24.246  -4.075  28.797  0.00  0.00    -0.022 C 
ATOM     21  C   UNL A   1     -24.179  -5.364  28.461  0.00  0.00    -0.005 C 
ENDBRANCH  18  20
ENDBRANCH   7  18
TORSDOF 4
ENDMDL
ENDMDL
