MODEL 1315
MODEL 1
REMARK VINA RESULT:    -5.004      0.000      0.000
REMARK INTER + INTRA:          -5.004
REMARK INTER:                  -5.004
REMARK INTRA:                   0.000
REMARK UNBOUND:                 0.000
REMARK  Name = No_1315-gen_results/8p0m/2024-11-26-14-13-15/
REMARK  0 active torsions:
REMARK  status: ('A' for Active; 'I' for Inactive)
REMARK                            x       y       z     vdW  Elec       q    Type
REMARK                         _______ _______ _______ _____ _____    ______ ____
ROOT
ATOM      1  C   UNL A   1     -10.377  -9.283  19.107  0.00  0.00    +0.042 A 
ATOM      2  C   UNL A   1      -9.556  -9.140  19.983  0.00  0.00    +0.003 A 
ATOM      3  C   UNL A   1      -8.317  -9.767  19.915  0.00  0.00    +0.000 A 
ATOM      4  C   UNL A   1      -7.990 -10.645  18.821  0.00  0.00    +0.003 A 
ATOM      5  C   UNL A   1      -9.006 -10.772  17.865  0.00  0.00    +0.042 A 
ATOM      6  C   UNL A   1     -10.167 -10.170  17.984  0.00  0.00    +0.196 A 
ATOM      7  O   UNL A   1     -11.115 -10.378  17.029  0.00  0.00    -0.287 OA
ENDROOT
TORSDOF 0
ENDMDL
ENDMDL
