MODEL 1316
MODEL 1
REMARK VINA RESULT:    -3.065      0.000      0.000
REMARK INTER + INTRA:          -3.315
REMARK INTER:                  -3.244
REMARK INTRA:                  -0.071
REMARK UNBOUND:                -0.071
REMARK  Name = No_1316-gen_results/8p0m/2024-11-26-14-13-15/
REMARK  1 active torsions:
REMARK  status: ('A' for Active; 'I' for Inactive)
REMARK    1  A    between atoms: C_3  and  C_4
REMARK                            x       y       z     vdW  Elec       q    Type
REMARK                         _______ _______ _______ _____ _____    ______ ____
ROOT
ATOM      1 CL   UNL A   1     -26.245  -4.854  29.673  0.00  0.00    -0.081 Cl
ATOM      2  C   UNL A   1     -24.934  -5.128  29.138  0.00  0.00    +0.068 C 
ATOM      3  C   UNL A   1     -24.155  -4.417  28.629  0.00  0.00    +0.012 C 
ENDROOT
BRANCH   3   4
ATOM      4  C   UNL A   1     -24.453  -2.923  28.521  0.00  0.00    +0.001 C 
ATOM      5  C   UNL A   1     -23.705  -2.176  29.493  0.00  0.00    +0.000 C 
ENDBRANCH   3   4
TORSDOF 1
ENDMDL
ENDMDL
