MODEL 1317
MODEL 1
REMARK VINA RESULT:    -7.898      0.000      0.000
REMARK INTER + INTRA:         -10.202
REMARK INTER:                  -9.284
REMARK INTRA:                  -0.919
REMARK UNBOUND:                -0.919
REMARK  Name = No_1317-gen_results/8p0m/2024-11-26-14-13-15/
REMARK  3 active torsions:
REMARK  status: ('A' for Active; 'I' for Inactive)
REMARK    1  A    between atoms: C_4  and  C_8
REMARK    2  A    between atoms: C_8  and  C_9
REMARK    3  A    between atoms: C_13  and  C_15
REMARK                            x       y       z     vdW  Elec       q    Type
REMARK                         _______ _______ _______ _____ _____    ______ ____
ROOT
ATOM      1  C   UNL A   1     -23.004   1.354  27.476  0.00  0.00    -0.018 A 
ATOM      2  C   UNL A   1     -21.603   1.412  27.447  0.00  0.00    -0.004 A 
ATOM      3  C   UNL A   1     -20.865   0.493  28.204  0.00  0.00    -0.000 A 
ATOM      4  C   UNL A   1     -21.508  -0.471  29.052  0.00  0.00    -0.000 A 
ATOM      5  C   UNL A   1     -22.875  -0.552  28.964  0.00  0.00    -0.000 A 
ATOM      6  C   UNL A   1     -23.632   0.342  28.213  0.00  0.00    -0.004 A 
ENDROOT
BRANCH   5   7
ATOM      7  C   UNL A   1     -23.474  -1.651  29.748  0.00  0.00    -0.000 A 
ATOM      8  C   UNL A   1     -24.520  -1.311  30.574  0.00  0.00    -0.000 A 
ATOM      9  C   UNL A   1     -25.697  -1.854  30.745  0.00  0.00    -0.000 A 
ATOM     10  C   UNL A   1     -26.095  -2.899  29.820  0.00  0.00    +0.000 A 
ATOM     11  C   UNL A   1     -25.062  -3.559  29.101  0.00  0.00    -0.000 A 
ATOM     12  C   UNL A   1     -23.799  -2.841  28.913  0.00  0.00    -0.000 A 
ENDBRANCH   5   7
BRANCH   1  13
ATOM     13  C   UNL A   1     -23.751   2.244  26.720  0.00  0.00    +0.053 C 
BRANCH  13  17
ATOM     14  C   UNL A   1     -27.219   1.616  25.315  0.00  0.00    +0.011 A 
ATOM     15  C   UNL A   1     -27.029   0.728  24.781  0.00  0.00    +0.058 A 
ATOM     16  C   UNL A   1     -26.072   2.227  26.006  0.00  0.00    -0.003 A 
ATOM     17  C   UNL A   1     -24.975   1.679  26.005  0.00  0.00    -0.018 A 
ATOM     18  C   UNL A   1     -25.792  -0.037  24.537  0.00  0.00    +0.011 A 
ATOM     19  C   UNL A   1     -24.740   0.486  25.225  0.00  0.00    -0.003 A 
ATOM     20 CL   UNL A   1     -28.391  -0.026  23.837  0.00  0.00    -0.082 Cl
ENDBRANCH  13  17
ENDBRANCH   1  13
TORSDOF 3
ENDMDL
ENDMDL
