REMARK  Name = No_1317-gen_results/8p0m/2024-11-26-14-13-15/
REMARK  3 active torsions:
REMARK  status: ('A' for Active; 'I' for Inactive)
REMARK    1  A    between atoms: C_4  and  C_8
REMARK    2  A    between atoms: C_8  and  C_9
REMARK    3  A    between atoms: C_13  and  C_15
REMARK                            x       y       z     vdW  Elec       q    Type
REMARK                         _______ _______ _______ _____ _____    ______ ____
ROOT
ATOM      1  C   UNL A   1     -23.703   0.017  29.095  0.00  0.00    -0.018 A 
ATOM      2  C   UNL A   1     -22.304  -0.025  29.005  0.00  0.00    -0.004 A 
ATOM      3  C   UNL A   1     -21.645   0.883  28.167  0.00  0.00    -0.000 A 
ATOM      4  C   UNL A   1     -22.370   1.820  27.355  0.00  0.00    -0.000 A 
ATOM      5  C   UNL A   1     -23.726   1.889  27.558  0.00  0.00    -0.000 A 
ATOM      6  C   UNL A   1     -24.404   1.005  28.391  0.00  0.00    -0.004 A 
ENDROOT
BRANCH   5   7
ATOM      7  C   UNL A   1     -24.403   2.963  26.804  0.00  0.00    -0.000 A 
ATOM      8  C   UNL A   1     -25.698   2.710  26.414  0.00  0.00    -0.000 A 
ATOM      9  C   UNL A   1     -26.785   3.430  26.511  0.00  0.00    -0.000 A 
ATOM     10  C   UNL A   1     -26.717   4.644  27.302  0.00  0.00    +0.000 A 
ATOM     11  C   UNL A   1     -25.429   5.197  27.537  0.00  0.00    -0.000 A 
ATOM     12  C   UNL A   1     -24.278   4.293  27.462  0.00  0.00    -0.000 A 
ENDBRANCH   5   7
BRANCH   1  13
ATOM     13  C   UNL A   1     -24.372  -0.862  29.932  0.00  0.00    +0.053 C 
BRANCH  13  17
ATOM     14  C   UNL A   1     -28.016  -0.814  28.878  0.00  0.00    +0.011 A 
ATOM     15  C   UNL A   1     -28.469  -0.785  29.829  0.00  0.00    +0.058 A 
ATOM     16  C   UNL A   1     -26.546  -0.876  28.850  0.00  0.00    -0.003 A 
ATOM     17  C   UNL A   1     -25.897  -0.827  29.889  0.00  0.00    -0.018 A 
ATOM     18  C   UNL A   1     -27.913  -0.839  31.194  0.00  0.00    +0.011 A 
ATOM     19  C   UNL A   1     -26.552  -0.832  31.177  0.00  0.00    -0.003 A 
ATOM     20 CL   UNL A   1     -30.287  -0.793  29.926  0.00  0.00    -0.082 Cl
ENDBRANCH  13  17
ENDBRANCH   1  13
TORSDOF 3
