MODEL 1318
MODEL 1
REMARK VINA RESULT:    -4.836      0.000      0.000
REMARK INTER + INTRA:          -5.343
REMARK INTER:                  -5.119
REMARK INTRA:                  -0.225
REMARK UNBOUND:                -0.225
REMARK  Name = No_1318-gen_results/8p0m/2024-11-26-14-13-15/
REMARK  1 active torsions:
REMARK  status: ('A' for Active; 'I' for Inactive)
REMARK    1  A    between atoms: C_3  and  C_4
REMARK                            x       y       z     vdW  Elec       q    Type
REMARK                         _______ _______ _______ _____ _____    ______ ____
ROOT
ATOM      1  C   UNL A   1     -23.852  -3.646  28.586  0.00  0.00    -0.000 A 
ATOM      2  C   UNL A   1     -24.114  -4.666  28.575  0.00  0.00    -0.000 A 
ATOM      3  C   UNL A   1     -24.861  -2.712  29.111  0.00  0.00    -0.000 A 
ATOM      4  C   UNL A   1     -25.250  -5.397  29.185  0.00  0.00    -0.000 A 
ATOM      5  C   UNL A   1     -26.247  -4.583  29.711  0.00  0.00    -0.000 A 
ATOM      6  C   UNL A   1     -26.096  -3.212  29.726  0.00  0.00    -0.000 A 
ENDROOT
BRANCH   3   7
ATOM      7  C   UNL A   1     -24.806  -1.258  29.099  0.00  0.00    -0.005 C 
ATOM      8  C   UNL A   1     -24.456  -0.532  30.269  0.00  0.00    -0.026 C 
ATOM      9  C   UNL A   1     -23.537  -1.150  31.162  0.00  0.00    +0.031 C 
ENDBRANCH   3   7
TORSDOF 1
ENDMDL
ENDMDL
