MODEL 1319
MODEL 1
REMARK VINA RESULT:    -7.422      0.000      0.000
REMARK INTER + INTRA:         -13.823
REMARK INTER:                 -11.326
REMARK INTRA:                  -2.497
REMARK UNBOUND:                -2.497
REMARK  Name = No_1319-gen_results/8p0m/2024-11-26-14-13-15/
REMARK  9 active torsions:
REMARK  status: ('A' for Active; 'I' for Inactive)
REMARK    1  A    between atoms: C_2  and  C_7
REMARK    2  A    between atoms: C_4  and  C_28
REMARK    3  A    between atoms: C_5  and  O_16
REMARK    4  A    between atoms: C_7  and  C_8
REMARK    5  A    between atoms: C_12  and  C_13
REMARK    6  A    between atoms: O_16  and  C_17
REMARK    7  A    between atoms: C_28  and  O_30
REMARK    8  A    between atoms: O_30  and  C_31
REMARK    9  A    between atoms: C_31  and  C_32
REMARK                            x       y       z     vdW  Elec       q    Type
REMARK                         _______ _______ _______ _____ _____    ______ ____
ROOT
ATOM      1  C   UNL A   1     -29.989  -9.809   9.755  0.00  0.00    +0.034 A 
ATOM      2  C   UNL A   1     -30.961 -10.041  10.436  0.00  0.00    -0.015 A 
ATOM      3  C   UNL A   1     -31.102 -10.969  11.338  0.00  0.00    +0.003 A 
ATOM      4  C   UNL A   1     -30.002 -11.849  11.574  0.00  0.00    +0.078 A 
ATOM      5  C   UNL A   1     -28.793 -10.587  10.018  0.00  0.00    +0.145 A 
ATOM      6  C   UNL A   1     -28.856 -11.571  10.915  0.00  0.00    +0.044 A 
ENDROOT
BRANCH   4   7
ATOM      7  C   UNL A   1     -30.079 -12.931  12.621  0.00  0.00    +0.342 C 
ATOM      8  O   UNL A   1     -30.895 -13.103  13.369  0.00  0.00    -0.245 OA
BRANCH   7   9
ATOM      9  O   UNL A   1     -29.294 -14.000  12.283  0.00  0.00    -0.435 OA
BRANCH   9  10
ATOM     10  C   UNL A   1     -29.947 -15.182  12.000  0.00  0.00    +0.294 C 
BRANCH  10  11
ATOM     11  C   UNL A   1     -29.900 -15.731  10.765  0.00  0.00    +0.286 C 
ATOM     12  O   UNL A   1     -28.981 -16.046  10.381  0.00  0.00    -0.269 OA
ATOM     13  N   UNL A   1     -31.015 -15.455   9.915  0.00  0.00    -0.200 NA
ATOM     14  C   UNL A   1     -32.282 -14.855  10.308  0.00  0.00    +0.139 C 
ENDBRANCH  10  11
ENDBRANCH   9  10
ENDBRANCH   7   9
ENDBRANCH   4   7
BRANCH   2  15
ATOM     15  C   UNL A   1     -32.240  -9.172  10.282  0.00  0.00    +0.049 C 
BRANCH  15  16
ATOM     16  C   UNL A   1     -31.965  -7.721  10.141  0.00  0.00    -0.025 C 
ATOM     17  C   UNL A   1     -31.993  -6.950  11.147  0.00  0.00    -0.008 C 
ATOM     18  C   UNL A   1     -31.614  -5.567  10.965  0.00  0.00    -0.004 C 
ATOM     19  C   UNL A   1     -31.618  -5.170   9.650  0.00  0.00    -0.011 C 
ATOM     20  C   UNL A   1     -31.873  -6.952   8.939  0.00  0.00    +0.144 C 
BRANCH  20  21
ATOM     21  C   UNL A   1     -31.790  -7.097   7.562  0.00  0.00    +0.372 C 
ATOM     22  O   UNL A   1     -32.826  -7.054   6.877  0.00  0.00    -0.245 OA
ATOM     23  O   UNL A   1     -30.685  -7.700   7.076  0.00  0.00    -0.245 OA
ENDBRANCH  20  21
ENDBRANCH  15  16
ENDBRANCH   2  15
BRANCH   5  24
ATOM     24  O   UNL A   1     -27.659 -10.277   9.324  0.00  0.00    -0.454 OA
BRANCH  24  25
ATOM     25  C   UNL A   1     -27.477  -9.137   8.750  0.00  0.00    +0.145 A 
ATOM     26  C   UNL A   1     -27.712  -7.993   9.510  0.00  0.00    +0.037 A 
ATOM     27  C   UNL A   1     -27.735  -6.828   8.924  0.00  0.00    +0.003 A 
ATOM     28  C   UNL A   1     -27.307  -6.684   7.559  0.00  0.00    +0.000 A 
ATOM     29  C   UNL A   1     -26.991  -7.771   6.820  0.00  0.00    +0.003 A 
ATOM     30  C   UNL A   1     -27.127  -9.081   7.389  0.00  0.00    +0.031 A 
ATOM     31  C   UNL A   1     -26.823 -10.261   6.633  0.00  0.00    -0.019 A 
ATOM     32  C   UNL A   1     -25.987 -10.335   5.670  0.00  0.00    -0.004 A 
ATOM     33  C   UNL A   1     -26.704 -11.554   7.113  0.00  0.00    +0.031 C 
ATOM     34  C   UNL A   1     -25.925  -9.175   4.731  0.00  0.00    -0.000 A 
ATOM     35  C   UNL A   1     -26.299  -7.871   5.428  0.00  0.00    +0.000 A 
ENDBRANCH  24  25
ENDBRANCH   5  24
TORSDOF 9
ENDMDL
ENDMDL
