MODEL 131
MODEL 1
REMARK VINA RESULT:    -3.228      0.000      0.000
REMARK INTER + INTRA:          -3.416
REMARK INTER:                  -3.416
REMARK INTRA:                   0.000
REMARK UNBOUND:                 0.000
REMARK  Name = No_131-gen_results/8p0m/2024-11-26-14-13-15/
REMARK  1 active torsions:
REMARK  status: ('A' for Active; 'I' for Inactive)
REMARK    1  A    between atoms: C_1  and  C_3
REMARK                            x       y       z     vdW  Elec       q    Type
REMARK                         _______ _______ _______ _____ _____    ______ ____
ROOT
ATOM      1  C   UNL A   1      -9.140  -9.375  19.705  0.00  0.00    -0.078 C 
ATOM      2  C   UNL A   1      -9.938  -9.083  20.329  0.00  0.00    -0.014 C 
ENDROOT
BRANCH   1   3
ATOM      3  C   UNL A   1      -7.781  -9.289  20.041  0.00  0.00    +0.077 C 
ATOM      4  C   UNL A   1      -7.081  -8.136  19.688  0.00  0.00    +0.015 C 
ENDBRANCH   1   3
TORSDOF 1
ENDMDL
ENDMDL
