REMARK  Name = No_1320-gen_results/8p0m/2024-11-26-14-13-15/
REMARK  5 active torsions:
REMARK  status: ('A' for Active; 'I' for Inactive)
REMARK    1  A    between atoms: C_2  and  C_7
REMARK    2  A    between atoms: C_3  and  C_10
REMARK    3  A    between atoms: C_10  and  C_11
REMARK    4  A    between atoms: C_15  and  C_16
REMARK    5  A    between atoms: C_16  and  C_18
REMARK                            x       y       z     vdW  Elec       q    Type
REMARK                         _______ _______ _______ _____ _____    ______ ____
ROOT
ATOM      1  C   UNL A   1     -25.883   0.362  26.781  0.00  0.00    -0.018 A 
ATOM      2  C   UNL A   1     -25.542   1.342  26.685  0.00  0.00    -0.004 A 
ATOM      3  C   UNL A   1     -25.820   2.297  25.633  0.00  0.00    -0.001 A 
ATOM      4  C   UNL A   1     -26.622  -0.074  25.455  0.00  0.00    -0.008 A 
ATOM      5  C   UNL A   1     -27.233   0.757  24.908  0.00  0.00    -0.018 A 
ATOM      6  C   UNL A   1     -26.783   2.079  24.767  0.00  0.00    -0.004 A 
ENDROOT
BRANCH   1   7
ATOM      7  C   UNL A   1     -25.646  -0.724  27.686  0.00  0.00    +0.053 C 
BRANCH   7  10
ATOM      8  C   UNL A   1     -28.016  -0.814  28.878  0.00  0.00    +0.003 A 
ATOM      9  C   UNL A   1     -28.469  -0.785  29.829  0.00  0.00    +0.080 A 
ATOM     10  C   UNL A   1     -26.504  -0.778  28.877  0.00  0.00    -0.018 A 
ATOM     11  C   UNL A   1     -25.810  -0.853  30.103  0.00  0.00    -0.004 A 
ATOM     12  C   UNL A   1     -27.991  -0.892  31.226  0.00  0.00    +0.007 A 
ATOM     13  C   UNL A   1     -26.604  -0.868  31.265  0.00  0.00    -0.000 A 
BRANCH   9  14
ATOM     14  C   UNL A   1     -30.074  -0.836  29.861  0.00  0.00    +0.388 C 
ATOM     15  O   UNL A   1     -30.683  -0.070  30.692  0.00  0.00    -0.241 OA
ATOM     16  O   UNL A   1     -30.623  -1.529  29.013  0.00  0.00    -0.241 OA
ENDBRANCH   9  14
ENDBRANCH   7  10
ENDBRANCH   1   7
BRANCH   5  17
ATOM     17  C   UNL A   1     -28.152   0.344  23.762  0.00  0.00    +0.053 C 
BRANCH  17  18
ATOM     18  C   UNL A   1     -29.543   0.253  24.304  0.00  0.00    -0.018 A 
ATOM     19  C   UNL A   1     -30.373  -0.724  23.972  0.00  0.00    -0.004 A 
ATOM     20  C   UNL A   1     -31.689  -0.911  24.493  0.00  0.00    -0.000 A 
ATOM     21  C   UNL A   1     -32.087  -0.093  25.562  0.00  0.00    -0.000 A 
ATOM     22  C   UNL A   1     -31.220   0.937  25.991  0.00  0.00    -0.000 A 
ATOM     23  C   UNL A   1     -29.944   1.103  25.437  0.00  0.00    -0.004 A 
ATOM     24  C   UNL A   1     -31.663   1.798  27.128  0.00  0.00    -0.000 A 
ATOM     25  C   UNL A   1     -30.779   2.651  27.658  0.00  0.00    -0.000 A 
ATOM     26  C   UNL A   1     -31.118   3.561  28.721  0.00  0.00    -0.000 A 
ATOM     27  C   UNL A   1     -30.177   4.475  29.270  0.00  0.00    +0.000 A 
ATOM     28  C   UNL A   1     -28.867   4.445  28.735  0.00  0.00    -0.000 A 
ATOM     29  C   UNL A   1     -28.497   3.581  27.729  0.00  0.00    -0.000 A 
ATOM     30  C   UNL A   1     -29.414   2.707  27.258  0.00  0.00    -0.000 A 
ATOM     31  C   UNL A   1     -29.026   1.968  26.056  0.00  0.00    -0.000 A 
ENDBRANCH  17  18
ENDBRANCH   5  17
TORSDOF 5
