MODEL 1320
MODEL 1
REMARK VINA RESULT:    -7.034      0.000      0.000
REMARK INTER + INTRA:         -13.291
REMARK INTER:                  -9.090
REMARK INTRA:                  -4.201
REMARK UNBOUND:                -4.201
REMARK  Name = No_1320-gen_results/8p0m/2024-11-26-14-13-15/
REMARK  5 active torsions:
REMARK  status: ('A' for Active; 'I' for Inactive)
REMARK    1  A    between atoms: C_2  and  C_7
REMARK    2  A    between atoms: C_3  and  C_10
REMARK    3  A    between atoms: C_10  and  C_11
REMARK    4  A    between atoms: C_15  and  C_16
REMARK    5  A    between atoms: C_16  and  C_18
REMARK                            x       y       z     vdW  Elec       q    Type
REMARK                         _______ _______ _______ _____ _____    ______ ____
ROOT
ATOM      1  C   UNL A   1     -22.770   1.789  27.602  0.00  0.00    -0.018 A 
ATOM      2  C   UNL A   1     -21.789   1.826  27.251  0.00  0.00    -0.004 A 
ATOM      3  C   UNL A   1     -20.642   1.060  27.690  0.00  0.00    -0.001 A 
ATOM      4  C   UNL A   1     -22.833   0.892  28.901  0.00  0.00    -0.008 A 
ATOM      5  C   UNL A   1     -22.117  -0.030  28.927  0.00  0.00    -0.018 A 
ATOM      6  C   UNL A   1     -20.794   0.008  28.461  0.00  0.00    -0.004 A 
ENDROOT
BRANCH   1   7
ATOM      7  C   UNL A   1     -23.979   2.516  27.351  0.00  0.00    +0.053 C 
BRANCH   7  10
ATOM      8  C   UNL A   1     -25.911   2.545  29.171  0.00  0.00    +0.003 A 
ATOM      9  C   UNL A   1     -26.739   1.990  29.512  0.00  0.00    +0.080 A 
ATOM     10  C   UNL A   1     -25.201   1.977  27.962  0.00  0.00    -0.018 A 
ATOM     11  C   UNL A   1     -25.753   0.862  27.297  0.00  0.00    -0.004 A 
ATOM     12  C   UNL A   1     -27.523   0.845  28.996  0.00  0.00    +0.007 A 
ATOM     13  C   UNL A   1     -26.904   0.300  27.880  0.00  0.00    -0.000 A 
BRANCH   9  14
ATOM     14  C   UNL A   1     -27.521   2.578  30.786  0.00  0.00    +0.388 C 
ATOM     15  O   UNL A   1     -28.715   2.158  31.004  0.00  0.00    -0.241 OA
ATOM     16  O   UNL A   1     -26.888   3.313  31.533  0.00  0.00    -0.241 OA
ENDBRANCH   9  14
ENDBRANCH   7  10
ENDBRANCH   1   7
BRANCH   5  17
ATOM     17  C   UNL A   1     -22.299  -1.057  30.040  0.00  0.00    +0.053 C 
BRANCH  17  18
ATOM     18  C   UNL A   1     -23.618  -1.730  29.827  0.00  0.00    -0.018 A 
ATOM     19  C   UNL A   1     -23.753  -2.802  29.060  0.00  0.00    -0.004 A 
ATOM     20  C   UNL A   1     -24.963  -3.533  28.858  0.00  0.00    -0.000 A 
ATOM     21  C   UNL A   1     -26.067  -3.195  29.656  0.00  0.00    -0.000 A 
ATOM     22  C   UNL A   1     -25.964  -2.089  30.529  0.00  0.00    -0.000 A 
ATOM     23  C   UNL A   1     -24.765  -1.381  30.681  0.00  0.00    -0.004 A 
ATOM     24  C   UNL A   1     -27.151  -1.744  31.367  0.00  0.00    -0.000 A 
ATOM     25  C   UNL A   1     -27.004  -0.820  32.323  0.00  0.00    -0.000 A 
ATOM     26  C   UNL A   1     -28.096  -0.378  33.151  0.00  0.00    -0.000 A 
ATOM     27  C   UNL A   1     -27.936   0.615  34.156  0.00  0.00    +0.000 A 
ATOM     28  C   UNL A   1     -26.637   1.151  34.327  0.00  0.00    -0.000 A 
ATOM     29  C   UNL A   1     -25.562   0.746  33.567  0.00  0.00    -0.000 A 
ATOM     30  C   UNL A   1     -25.752  -0.224  32.645  0.00  0.00    -0.000 A 
ATOM     31  C   UNL A   1     -24.632  -0.458  31.732  0.00  0.00    -0.000 A 
ENDBRANCH  17  18
ENDBRANCH   5  17
TORSDOF 5
ENDMDL
ENDMDL
