REMARK  Name = No_1321-gen_results/8p0m/2024-11-26-14-13-15/
REMARK  1 active torsions:
REMARK  status: ('A' for Active; 'I' for Inactive)
REMARK    1  A    between atoms: C_5  and  C_8
REMARK                            x       y       z     vdW  Elec       q    Type
REMARK                         _______ _______ _______ _____ _____    ______ ____
ROOT
ATOM      1  C   UNL A   1     -28.016  -0.814  28.878  0.00  0.00    +0.030 A 
ATOM      2  C   UNL A   1     -28.469  -0.785  29.829  0.00  0.00    +0.006 A 
ATOM      3  C   UNL A   1     -27.136   0.236  28.535  0.00  0.00    +0.140 A 
ATOM      4  C   UNL A   1     -26.875   1.282  29.398  0.00  0.00    +0.030 A 
ATOM      5  C   UNL A   1     -28.361   0.199  30.924  0.00  0.00    +0.072 A 
ATOM      6  C   UNL A   1     -27.528   1.223  30.636  0.00  0.00    +0.006 A 
ATOM      7  F   UNL A   1     -26.488   0.257  27.353  0.00  0.00    -0.204 F 
ENDROOT
BRANCH   5   8
ATOM      8  C   UNL A   1     -29.065   0.100  32.228  0.00  0.00    +0.419 C 
ATOM      9  F   UNL A   1     -28.476   0.519  33.160  0.00  0.00    -0.166 F 
ATOM     10  F   UNL A   1     -29.328  -1.241  32.519  0.00  0.00    -0.166 F 
ATOM     11  F   UNL A   1     -30.258   0.718  32.076  0.00  0.00    -0.166 F 
ENDBRANCH   5   8
TORSDOF 1
