MODEL 1321
MODEL 1
REMARK VINA RESULT:    -5.065      0.000      0.000
REMARK INTER + INTRA:          -5.538
REMARK INTER:                  -5.361
REMARK INTRA:                  -0.178
REMARK UNBOUND:                -0.178
REMARK  Name = No_1321-gen_results/8p0m/2024-11-26-14-13-15/
REMARK  1 active torsions:
REMARK  status: ('A' for Active; 'I' for Inactive)
REMARK    1  A    between atoms: C_5  and  C_8
REMARK                            x       y       z     vdW  Elec       q    Type
REMARK                         _______ _______ _______ _____ _____    ______ ____
ROOT
ATOM      1  C   UNL A   1     -24.566  -4.224  28.942  0.00  0.00    +0.030 A 
ATOM      2  C   UNL A   1     -23.876  -3.432  28.860  0.00  0.00    +0.006 A 
ATOM      3  C   UNL A   1     -25.813  -3.952  29.547  0.00  0.00    +0.140 A 
ATOM      4  C   UNL A   1     -26.131  -2.700  30.034  0.00  0.00    +0.030 A 
ATOM      5  C   UNL A   1     -23.965  -2.022  29.288  0.00  0.00    +0.072 A 
ATOM      6  C   UNL A   1     -25.144  -1.719  29.874  0.00  0.00    +0.006 A 
ATOM      7  F   UNL A   1     -26.765  -4.900  29.659  0.00  0.00    -0.204 F 
ENDROOT
BRANCH   5   8
ATOM      8  C   UNL A   1     -22.898  -1.007  29.095  0.00  0.00    +0.419 C 
ATOM      9  F   UNL A   1     -21.815  -1.433  28.901  0.00  0.00    -0.166 F 
ATOM     10  F   UNL A   1     -22.792  -0.214  30.241  0.00  0.00    -0.166 F 
ATOM     11  F   UNL A   1     -23.302  -0.201  28.088  0.00  0.00    -0.166 F 
ENDBRANCH   5   8
TORSDOF 1
ENDMDL
ENDMDL
