REMARK  Name = No_1322-gen_results/8p0m/2024-11-26-14-13-15/
REMARK  2 active torsions:
REMARK  status: ('A' for Active; 'I' for Inactive)
REMARK    1  A    between atoms: C_3  and  C_15
REMARK    2  A    between atoms: C_5  and  C_11
REMARK                            x       y       z     vdW  Elec       q    Type
REMARK                         _______ _______ _______ _____ _____    ______ ____
ROOT
ATOM      1  C   UNL A   1     -28.016  -0.814  28.878  0.00  0.00    +0.000 A 
ATOM      2  C   UNL A   1     -27.064  -0.119  28.608  0.00  0.00    +0.006 A 
ATOM      3  C   UNL A   1     -26.972   0.714  27.506  0.00  0.00    +0.080 A 
ATOM      4  C   UNL A   1     -25.820   1.491  27.116  0.00  0.00    +0.010 A 
ATOM      5  C   UNL A   1     -24.858   1.342  27.601  0.00  0.00    +0.072 A 
ATOM      6  C   UNL A   1     -24.622   0.529  28.814  0.00  0.00    +0.004 A 
ATOM      7  C   UNL A   1     -25.734  -0.181  29.191  0.00  0.00    +0.000 A 
ATOM      8  C   UNL A   1     -27.960  -1.441  30.252  0.00  0.00    +0.000 A 
ATOM      9  C   UNL A   1     -26.727  -1.770  30.843  0.00  0.00    -0.000 A 
ATOM     10  C   UNL A   1     -25.629  -1.033  30.420  0.00  0.00    -0.000 A 
ENDROOT
BRANCH   5  11
ATOM     11  C   UNL A   1     -23.544   2.165  27.245  0.00  0.00    +0.419 C 
ATOM     12  F   UNL A   1     -23.595   2.755  26.189  0.00  0.00    -0.166 F 
ATOM     13  F   UNL A   1     -23.209   3.080  28.274  0.00  0.00    -0.166 F 
ATOM     14  F   UNL A   1     -22.363   1.403  27.220  0.00  0.00    -0.166 F 
ENDBRANCH   5  11
BRANCH   3  15
ATOM     15  C   UNL A   1     -28.245   0.900  26.688  0.00  0.00    +0.388 C 
ATOM     16  O   UNL A   1     -28.371   0.375  25.589  0.00  0.00    -0.241 OA
ATOM     17  O   UNL A   1     -29.291   1.378  27.266  0.00  0.00    -0.241 OA
ENDBRANCH   3  15
TORSDOF 2
