MODEL 1322
MODEL 1
REMARK VINA RESULT:    -6.383      0.000      0.000
REMARK INTER + INTRA:          -7.453
REMARK INTER:                  -7.130
REMARK INTRA:                  -0.324
REMARK UNBOUND:                -0.324
REMARK  Name = No_1322-gen_results/8p0m/2024-11-26-14-13-15/
REMARK  2 active torsions:
REMARK  status: ('A' for Active; 'I' for Inactive)
REMARK    1  A    between atoms: C_3  and  C_15
REMARK    2  A    between atoms: C_5  and  C_11
REMARK                            x       y       z     vdW  Elec       q    Type
REMARK                         _______ _______ _______ _____ _____    ______ ____
ROOT
ATOM      1  C   UNL A   1     -26.540  -3.476  29.769  0.00  0.00    +0.000 A 
ATOM      2  C   UNL A   1     -25.646  -2.665  29.701  0.00  0.00    +0.006 A 
ATOM      3  C   UNL A   1     -25.778  -1.310  29.953  0.00  0.00    +0.080 A 
ATOM      4  C   UNL A   1     -24.749  -0.308  29.801  0.00  0.00    +0.010 A 
ATOM      5  C   UNL A   1     -23.810  -0.546  29.308  0.00  0.00    +0.072 A 
ATOM      6  C   UNL A   1     -23.356  -1.901  28.926  0.00  0.00    +0.004 A 
ATOM      7  C   UNL A   1     -24.333  -2.848  29.104  0.00  0.00    +0.000 A 
ATOM      8  C   UNL A   1     -26.085  -4.914  29.680  0.00  0.00    +0.000 A 
ATOM      9  C   UNL A   1     -24.946  -5.263  28.931  0.00  0.00    -0.000 A 
ATOM     10  C   UNL A   1     -23.992  -4.268  28.768  0.00  0.00    -0.000 A 
ENDROOT
BRANCH   5  11
ATOM     11  C   UNL A   1     -22.619   0.491  29.114  0.00  0.00    +0.419 C 
ATOM     12  F   UNL A   1     -22.751   1.524  29.731  0.00  0.00    -0.166 F 
ATOM     13  F   UNL A   1     -21.367  -0.089  29.438  0.00  0.00    -0.166 F 
ATOM     14  F   UNL A   1     -22.367   0.852  27.779  0.00  0.00    -0.166 F 
ENDBRANCH   5  11
BRANCH   3  15
ATOM     15  C   UNL A   1     -27.109  -0.855  30.542  0.00  0.00    +0.388 C 
ATOM     16  O   UNL A   1     -27.247  -0.708  31.749  0.00  0.00    -0.241 OA
ATOM     17  O   UNL A   1     -28.001  -0.364  29.755  0.00  0.00    -0.241 OA
ENDBRANCH   3  15
TORSDOF 2
ENDMDL
ENDMDL
