MODEL 1323
MODEL 1
REMARK VINA RESULT:    -6.432      0.000      0.000
REMARK INTER + INTRA:          -7.154
REMARK INTER:                  -6.808
REMARK INTRA:                  -0.346
REMARK UNBOUND:                -0.346
REMARK  Name = No_1323-gen_results/8p0m/2024-11-26-14-13-15/
REMARK  1 active torsions:
REMARK  status: ('A' for Active; 'I' for Inactive)
REMARK    1  A    between atoms: C_3  and  C_4
REMARK                            x       y       z     vdW  Elec       q    Type
REMARK                         _______ _______ _______ _____ _____    ______ ____
ROOT
ATOM      1  C   UNL A   1     -24.829  -4.961  29.110  0.00  0.00    +0.000 A 
ATOM      2  C   UNL A   1     -24.159  -4.016  28.763  0.00  0.00    +0.000 A 
ATOM      3  C   UNL A   1     -24.573  -2.712  29.013  0.00  0.00    +0.000 A 
ATOM      4  C   UNL A   1     -26.193  -4.819  29.602  0.00  0.00    +0.000 A 
ATOM      5  C   UNL A   1     -26.652  -3.573  29.984  0.00  0.00    +0.000 A 
ATOM      6  C   UNL A   1     -25.865  -2.466  29.634  0.00  0.00    +0.000 A 
ENDROOT
BRANCH   3   7
ATOM      7  C   UNL A   1     -23.846  -1.469  28.628  0.00  0.00    +0.000 A 
ATOM      8  C   UNL A   1     -22.574  -1.274  29.243  0.00  0.00    +0.000 A 
ATOM      9  C   UNL A   1     -21.837  -0.120  28.983  0.00  0.00    +0.000 A 
ATOM     10  C   UNL A   1     -22.468   0.889  28.224  0.00  0.00    +0.000 A 
ATOM     11  C   UNL A   1     -23.692   0.720  27.646  0.00  0.00    +0.000 A 
ATOM     12  C   UNL A   1     -24.448  -0.489  27.886  0.00  0.00    +0.000 A 
ENDBRANCH   3   7
TORSDOF 1
ENDMDL
ENDMDL
