MODEL 1324
MODEL 1
REMARK VINA RESULT:    -6.471      0.000      0.000
REMARK INTER + INTRA:          -7.166
REMARK INTER:                  -6.850
REMARK INTRA:                  -0.317
REMARK UNBOUND:                -0.317
REMARK  Name = No_1324-gen_results/8p0m/2024-11-26-14-13-15/
REMARK  1 active torsions:
REMARK  status: ('A' for Active; 'I' for Inactive)
REMARK    1  A    between atoms: C_3  and  C_7
REMARK                            x       y       z     vdW  Elec       q    Type
REMARK                         _______ _______ _______ _____ _____    ______ ____
ROOT
ATOM      1  C   UNL A   1     -26.516  -3.566  29.965  0.00  0.00    +0.000 A 
ATOM      2  C   UNL A   1     -25.864  -2.581  29.707  0.00  0.00    +0.000 A 
ATOM      3  C   UNL A   1     -24.631  -2.621  29.058  0.00  0.00    +0.000 A 
ATOM      4  C   UNL A   1     -24.054  -3.907  28.716  0.00  0.00    +0.000 A 
ATOM      5  C   UNL A   1     -24.868  -5.011  29.056  0.00  0.00    +0.000 A 
ATOM      6  C   UNL A   1     -26.014  -4.875  29.673  0.00  0.00    +0.000 A 
ENDROOT
BRANCH   3   7
ATOM      7  C   UNL A   1     -23.782  -1.454  28.699  0.00  0.00    +0.000 A 
ATOM      8  C   UNL A   1     -22.636  -1.229  29.289  0.00  0.00    +0.000 A 
ATOM      9  C   UNL A   1     -21.865  -0.060  28.977  0.00  0.00    +0.000 A 
ATOM     10  C   UNL A   1     -22.325   0.940  28.182  0.00  0.00    +0.000 A 
ATOM     11  C   UNL A   1     -24.303  -0.403  27.846  0.00  0.00    +0.000 A 
ATOM     12  C   UNL A   1     -23.553   0.779  27.603  0.00  0.00    +0.000 A 
ENDBRANCH   3   7
TORSDOF 1
ENDMDL
ENDMDL
