REMARK  Name = No_1325-gen_results/8p0m/2024-11-26-14-13-15/
REMARK  1 active torsions:
REMARK  status: ('A' for Active; 'I' for Inactive)
REMARK    1  A    between atoms: C_11  and  C_12
REMARK                            x       y       z     vdW  Elec       q    Type
REMARK                         _______ _______ _______ _____ _____    ______ ____
ROOT
ATOM      1  O   UNL A   1     -28.123  -1.335  28.487  0.00  0.00    -0.268 OA
ATOM      2  C   UNL A   1     -27.064  -0.824  28.869  0.00  0.00    +0.265 C 
ATOM      3  C   UNL A   1     -26.402  -0.062  28.622  0.00  0.00    +0.051 A 
ATOM      4  N   UNL A   1     -26.381  -1.799  29.962  0.00  0.00    -0.201 NA
ATOM      5  C   UNL A   1     -25.033   0.374  29.048  0.00  0.00    -0.010 A 
ATOM      6  C   UNL A   1     -24.552  -0.509  30.093  0.00  0.00    +0.050 C 
ATOM      7  C   UNL A   1     -25.241  -1.577  30.466  0.00  0.00    +0.120 C 
ATOM      8  C   UNL A   1     -26.837   0.991  27.532  0.00  0.00    +0.004 A 
ATOM      9  C   UNL A   1     -26.019   1.607  26.727  0.00  0.00    +0.000 A 
ATOM     10  C   UNL A   1     -24.676   1.987  27.277  0.00  0.00    +0.006 A 
ATOM     11  C   UNL A   1     -24.134   1.214  28.315  0.00  0.00    +0.076 A 
ENDROOT
BRANCH  11  12
ATOM     12  C   UNL A   1     -22.767   1.464  28.722  0.00  0.00    +0.387 C 
ATOM     13  O   UNL A   1     -21.926   1.914  27.802  0.00  0.00    -0.241 OA
ATOM     14  O   UNL A   1     -22.420   1.422  29.961  0.00  0.00    -0.241 OA
ENDBRANCH  11  12
TORSDOF 1
