MODEL 1325
MODEL 1
REMARK VINA RESULT:    -5.498      0.000      0.000
REMARK INTER + INTRA:          -5.930
REMARK INTER:                  -5.819
REMARK INTRA:                  -0.110
REMARK UNBOUND:                -0.110
REMARK  Name = No_1325-gen_results/8p0m/2024-11-26-14-13-15/
REMARK  1 active torsions:
REMARK  status: ('A' for Active; 'I' for Inactive)
REMARK    1  A    between atoms: C_11  and  C_12
REMARK                            x       y       z     vdW  Elec       q    Type
REMARK                         _______ _______ _______ _____ _____    ______ ____
ROOT
ATOM      1  O   UNL A   1     -26.460 -12.956  32.660  0.00  0.00    -0.268 OA
ATOM      2  C   UNL A   1     -27.330 -12.091  32.818  0.00  0.00    +0.265 C 
ATOM      3  C   UNL A   1     -28.101 -11.621  32.304  0.00  0.00    +0.051 A 
ATOM      4  N   UNL A   1     -27.013 -11.277  34.178  0.00  0.00    -0.201 NA
ATOM      5  C   UNL A   1     -28.999 -10.442  32.525  0.00  0.00    -0.010 A 
ATOM      6  C   UNL A   1     -28.695  -9.842  33.810  0.00  0.00    +0.050 C 
ATOM      7  C   UNL A   1     -27.685 -10.272  34.552  0.00  0.00    +0.120 C 
ATOM      8  C   UNL A   1     -28.554 -12.215  30.915  0.00  0.00    +0.004 A 
ATOM      9  C   UNL A   1     -29.039 -11.513  29.931  0.00  0.00    +0.000 A 
ATOM     10  C   UNL A   1     -29.923 -10.355  30.288  0.00  0.00    +0.006 A 
ATOM     11  C   UNL A   1     -29.732  -9.723  31.526  0.00  0.00    +0.076 A 
ENDROOT
BRANCH  11  12
ATOM     12  C   UNL A   1     -30.455  -8.498  31.797  0.00  0.00    +0.387 C 
ATOM     13  O   UNL A   1     -29.818  -7.353  31.597  0.00  0.00    -0.241 OA
ATOM     14  O   UNL A   1     -31.717  -8.509  32.050  0.00  0.00    -0.241 OA
ENDBRANCH  11  12
TORSDOF 1
ENDMDL
ENDMDL
