REMARK  Name = No_1326-gen_results/8p0m/2024-11-26-14-13-15/
REMARK  7 active torsions:
REMARK  status: ('A' for Active; 'I' for Inactive)
REMARK    1  A    between atoms: C_2  and  N_7
REMARK    2  A    between atoms: C_4  and  C_17
REMARK    3  A    between atoms: N_7  and  C_15
REMARK    4  A    between atoms: C_8  and  C_9
REMARK    5  A    between atoms: N_24  and  C_25
REMARK    6  A    between atoms: C_26  and  C_27
REMARK    7  A    between atoms: C_28  and  C_29
REMARK                            x       y       z     vdW  Elec       q    Type
REMARK                         _______ _______ _______ _____ _____    ______ ____
ROOT
ATOM      1  C   UNL A   1     -28.016  -0.814  28.878  0.00  0.00    +0.041 A 
ATOM      2  C   UNL A   1     -27.064  -0.119  28.608  0.00  0.00    +0.140 A 
ATOM      3  N   UNL A   1     -26.951   1.129  28.957  0.00  0.00    -0.214 NA
ATOM      4  C   UNL A   1     -29.109  -0.210  29.632  0.00  0.00    +0.085 A 
ATOM      5  C   UNL A   1     -29.088   1.063  29.942  0.00  0.00    +0.043 A 
ATOM      6  C   UNL A   1     -27.955   1.768  29.591  0.00  0.00    +0.153 A 
ATOM      7  N   UNL A   1     -27.851   3.126  29.945  0.00  0.00    -0.193 NA
ENDROOT
BRANCH   2   8
ATOM      8  N   UNL A   1     -25.910  -0.625  27.977  0.00  0.00    -0.234 N 
ATOM      9  C   UNL A   1     -24.872  -1.270  28.710  0.00  0.00    +0.254 C 
ATOM     10  O   UNL A   1     -24.627  -2.453  28.466  0.00  0.00    -0.270 OA
BRANCH   9  11
ATOM     11  C   UNL A   1     -24.256  -0.554  29.785  0.00  0.00    +0.054 A 
ATOM     12  C   UNL A   1     -23.609   0.389  29.632  0.00  0.00    +0.004 A 
ATOM     13  C   UNL A   1     -23.031   1.149  30.791  0.00  0.00    +0.000 A 
ATOM     14  C   UNL A   1     -24.627  -0.992  31.153  0.00  0.00    +0.004 A 
ATOM     15  C   UNL A   1     -24.302  -0.278  32.238  0.00  0.00    +0.000 A 
ATOM     16  C   UNL A   1     -23.454   0.852  32.039  0.00  0.00    +0.000 A 
ENDBRANCH   9  11
BRANCH   8  17
ATOM     17  C   UNL A   1     -25.696  -0.291  26.633  0.00  0.00    +0.126 C 
ATOM     18  C   UNL A   1     -24.924   0.772  26.182  0.00  0.00    -0.002 C 
ATOM     19  C   UNL A   1     -24.992   1.331  25.008  0.00  0.00    -0.003 C 
ATOM     20  C   UNL A   1     -25.759   0.497  24.124  0.00  0.00    -0.003 C 
ATOM     21  C   UNL A   1     -26.470  -0.577  25.474  0.00  0.00    -0.002 C 
ENDBRANCH   8  17
ENDBRANCH   2   8
BRANCH   4  22
ATOM     22  C   UNL A   1     -30.308  -1.089  29.966  0.00  0.00    +0.388 C 
ATOM     23  O   UNL A   1     -30.168  -2.087  30.610  0.00  0.00    -0.240 OA
ATOM     24  O   UNL A   1     -31.449  -0.748  29.583  0.00  0.00    -0.240 OA
ENDBRANCH   4  22
BRANCH   7  25
ATOM     25  C   UNL A   1     -28.130   4.154  29.884  0.00  0.00    +0.087 C 
ATOM     26  C   UNL A   1     -29.154   4.558  29.143  0.00  0.00    +0.018 C 
BRANCH  26  27
ATOM     27  C   UNL A   1     -29.875   3.717  28.537  0.00  0.00    +0.001 C 
ATOM     28  C   UNL A   1     -30.665   3.983  27.599  0.00  0.00    +0.000 C 
BRANCH  28  29
ATOM     29  C   UNL A   1     -30.950   5.388  27.322  0.00  0.00    +0.000 C 
ATOM     30  C   UNL A   1     -30.206   6.383  27.902  0.00  0.00    +0.000 C 
ENDBRANCH  28  29
ENDBRANCH  26  27
ENDBRANCH   7  25
TORSDOF 7
