MODEL 1326
MODEL 1
REMARK VINA RESULT:    -7.262      0.000      0.000
REMARK INTER + INTRA:         -12.165
REMARK INTER:                 -10.233
REMARK INTRA:                  -1.932
REMARK UNBOUND:                -1.932
REMARK  Name = No_1326-gen_results/8p0m/2024-11-26-14-13-15/
REMARK  7 active torsions:
REMARK  status: ('A' for Active; 'I' for Inactive)
REMARK    1  A    between atoms: C_2  and  N_7
REMARK    2  A    between atoms: C_4  and  C_17
REMARK    3  A    between atoms: N_7  and  C_15
REMARK    4  A    between atoms: C_8  and  C_9
REMARK    5  A    between atoms: N_24  and  C_25
REMARK    6  A    between atoms: C_26  and  C_27
REMARK    7  A    between atoms: C_28  and  C_29
REMARK                            x       y       z     vdW  Elec       q    Type
REMARK                         _______ _______ _______ _____ _____    ______ ____
ROOT
ATOM      1  C   UNL A   1     -11.183   1.580  35.426  0.00  0.00    +0.041 A 
ATOM      2  C   UNL A   1     -11.447   1.903  36.561  0.00  0.00    +0.140 A 
ATOM      3  N   UNL A   1     -12.613   2.338  36.942  0.00  0.00    -0.214 NA
ATOM      4  C   UNL A   1     -12.235   1.696  34.422  0.00  0.00    +0.085 A 
ATOM      5  C   UNL A   1     -13.404   2.202  34.729  0.00  0.00    +0.043 A 
ATOM      6  C   UNL A   1     -13.606   2.538  36.052  0.00  0.00    +0.153 A 
ATOM      7  N   UNL A   1     -14.860   3.035  36.454  0.00  0.00    -0.193 NA
ENDROOT
BRANCH   2   8
ATOM      8  N   UNL A   1     -10.542   1.734  37.627  0.00  0.00    -0.234 N 
ATOM      9  C   UNL A   1      -9.963   0.468  37.929  0.00  0.00    +0.254 C 
ATOM     10  O   UNL A   1      -8.739   0.345  37.843  0.00  0.00    -0.270 OA
BRANCH   9  11
ATOM     11  C   UNL A   1     -10.838  -0.634  38.188  0.00  0.00    +0.054 A 
ATOM     12  C   UNL A   1     -10.924  -1.553  37.496  0.00  0.00    +0.004 A 
ATOM     13  C   UNL A   1     -11.809  -2.719  37.834  0.00  0.00    +0.000 A 
ATOM     14  C   UNL A   1     -11.529  -0.620  39.501  0.00  0.00    +0.004 A 
ATOM     15  C   UNL A   1     -12.198  -1.685  39.961  0.00  0.00    +0.000 A 
ATOM     16  C   UNL A   1     -12.345  -2.790  39.072  0.00  0.00    +0.000 A 
ENDBRANCH   9  11
BRANCH   8  17
ATOM     17  C   UNL A   1     -10.384   2.794  38.530  0.00  0.00    +0.126 C 
ATOM     18  C   UNL A   1      -9.608   3.925  38.313  0.00  0.00    -0.002 C 
ATOM     19  C   UNL A   1      -9.144   4.729  39.226  0.00  0.00    -0.003 C 
ATOM     20  C   UNL A   1      -9.806   4.469  40.475  0.00  0.00    -0.003 C 
ATOM     21  C   UNL A   1     -10.540   2.837  39.943  0.00  0.00    -0.002 C 
ENDBRANCH   8  17
ENDBRANCH   2   8
BRANCH   4  22
ATOM     22  C   UNL A   1     -11.896   1.292  32.992  0.00  0.00    +0.388 C 
ATOM     23  O   UNL A   1     -12.760   1.177  32.173  0.00  0.00    -0.240 OA
ATOM     24  O   UNL A   1     -10.702   1.104  32.671  0.00  0.00    -0.240 OA
ENDBRANCH   4  22
BRANCH   7  25
ATOM     25  C   UNL A   1     -15.636   3.767  36.475  0.00  0.00    +0.087 C 
ATOM     26  C   UNL A   1     -16.454   3.889  37.513  0.00  0.00    +0.018 C 
BRANCH  26  27
ATOM     27  C   UNL A   1     -16.290   3.178  38.543  0.00  0.00    +0.001 C 
ATOM     28  C   UNL A   1     -17.177   2.916  39.390  0.00  0.00    +0.000 C 
BRANCH  28  29
ATOM     29  C   UNL A   1     -18.434   3.656  39.317  0.00  0.00    +0.000 C 
ATOM     30  C   UNL A   1     -18.697   4.681  40.189  0.00  0.00    +0.000 C 
ENDBRANCH  28  29
ENDBRANCH  26  27
ENDBRANCH   7  25
TORSDOF 7
ENDMDL
ENDMDL
