REMARK  Name = No_1327-gen_results/8p0m/2024-11-26-14-13-15/
REMARK  2 active torsions:
REMARK  status: ('A' for Active; 'I' for Inactive)
REMARK    1  A    between atoms: C_2  and  C_7
REMARK    2  A    between atoms: C_4  and  C_11
REMARK                            x       y       z     vdW  Elec       q    Type
REMARK                         _______ _______ _______ _____ _____    ______ ____
ROOT
ATOM      1  C   UNL A   1     -28.016  -0.814  28.878  0.00  0.00    +0.004 A 
ATOM      2  C   UNL A   1     -28.469  -0.785  29.829  0.00  0.00    +0.055 A 
ATOM      3  C   UNL A   1     -26.546  -0.876  28.850  0.00  0.00    +0.004 A 
ATOM      4  C   UNL A   1     -25.804  -1.032  30.057  0.00  0.00    +0.071 A 
ATOM      5  C   UNL A   1     -27.944  -0.987  31.207  0.00  0.00    +0.004 A 
ATOM      6  C   UNL A   1     -26.582  -1.039  31.223  0.00  0.00    +0.004 A 
ENDROOT
BRANCH   2   7
ATOM      7  C   UNL A   1     -30.061  -0.737  29.902  0.00  0.00    +0.265 C 
ATOM      8  O   UNL A   1     -30.552  -0.277  29.011  0.00  0.00    -0.268 OA
ATOM      9  N   UNL A   1     -30.743  -1.289  30.994  0.00  0.00    -0.200 NA
ATOM     10  C   UNL A   1     -32.171  -1.260  30.975  0.00  0.00    +0.139 C 
ENDBRANCH   2   7
BRANCH   4  11
ATOM     11  C   UNL A   1     -24.369  -1.088  30.088  0.00  0.00    +0.419 C 
ATOM     12  F   UNL A   1     -23.834  -1.589  29.146  0.00  0.00    -0.166 F 
ATOM     13  F   UNL A   1     -23.945  -1.789  31.266  0.00  0.00    -0.166 F 
ATOM     14  F   UNL A   1     -23.866   0.192  30.277  0.00  0.00    -0.166 F 
ENDBRANCH   4  11
TORSDOF 2
