REMARK  Name = No_1328-gen_results/8p0m/2024-11-26-14-13-15/
REMARK  4 active torsions:
REMARK  status: ('A' for Active; 'I' for Inactive)
REMARK    1  A    between atoms: C_2  and  N_7
REMARK    2  A    between atoms: C_9  and  C_12
REMARK    3  A    between atoms: C_12  and  N_14
REMARK    4  A    between atoms: C_15  and  C_26
REMARK                            x       y       z     vdW  Elec       q    Type
REMARK                         _______ _______ _______ _____ _____    ______ ____
ROOT
ATOM      1  C   UNL A   1     -28.016  -0.814  28.878  0.00  0.00    +0.034 A 
ATOM      2  C   UNL A   1     -28.469  -0.785  29.829  0.00  0.00    +0.049 A 
ATOM      3  C   UNL A   1     -26.504  -0.778  28.877  0.00  0.00    +0.083 A 
ATOM      4  C   UNL A   1     -25.810  -0.853  30.103  0.00  0.00    +0.018 A 
ATOM      5  C   UNL A   1     -27.991  -0.892  31.226  0.00  0.00    +0.015 A 
ATOM      6  C   UNL A   1     -26.604  -0.868  31.265  0.00  0.00    +0.003 A 
ATOM      7  C   UNL A   1     -24.372  -0.842  30.139  0.00  0.00    +0.003 A 
ATOM      8  C   UNL A   1     -23.619  -0.457  29.078  0.00  0.00    +0.017 A 
ATOM      9  C   UNL A   1     -22.559   0.216  29.064  0.00  0.00    +0.002 A 
ATOM     10  C   UNL A   1     -22.024   0.780  27.875  0.00  0.00    -0.000 A 
ATOM     11  C   UNL A   1     -22.931   1.091  26.827  0.00  0.00    -0.003 A 
ATOM     12  C   UNL A   1     -24.220   0.600  26.882  0.00  0.00    -0.004 A 
ATOM     13  C   UNL A   1     -24.633  -0.119  27.978  0.00  0.00    +0.077 A 
ATOM     14  N   UNL A   1     -25.814  -0.376  27.838  0.00  0.00    -0.246 NA
ATOM     15  C   UNL A   1     -25.024   0.861  25.762  0.00  0.00    +0.033 C 
ENDROOT
BRANCH   2  16
ATOM     16  N   UNL A   1     -29.954  -0.789  29.642  0.00  0.00    -0.307 N 
ATOM     17  C   UNL A   1     -30.516  -0.031  28.818  0.00  0.00    +0.100 C 
ATOM     18  C   UNL A   1     -31.784  -0.458  28.428  0.00  0.00    +0.098 C 
ATOM     19  C   UNL A   1     -30.743  -1.734  30.442  0.00  0.00    +0.091 C 
ATOM     20  C   UNL A   1     -31.985  -2.059  29.980  0.00  0.00    +0.022 C 
ATOM     21  C   UNL A   1     -32.492  -1.415  29.012  0.00  0.00    +0.013 C 
BRANCH  18  22
ATOM     22  C   UNL A   1     -32.384   0.337  27.315  0.00  0.00    +0.247 C 
ATOM     23  O   UNL A   1     -32.600  -0.263  26.241  0.00  0.00    -0.273 OA
BRANCH  22  24
ATOM     24  N   UNL A   1     -32.624   1.529  27.549  0.00  0.00    -0.178 NA
ATOM     25  C   UNL A   1     -33.056   2.392  26.754  0.00  0.00    +0.088 C 
BRANCH  25  26
ATOM     26  C   UNL A   1     -33.171   3.595  27.055  0.00  0.00    +0.013 C 
ATOM     27  C   UNL A   1     -32.851   4.131  28.327  0.00  0.00    -0.024 C 
ATOM     28  C   UNL A   1     -32.326   3.148  29.226  0.00  0.00    +0.031 C 
ENDBRANCH  25  26
ENDBRANCH  22  24
ENDBRANCH  18  22
ENDBRANCH   2  16
TORSDOF 4
