MODEL 1328
MODEL 1
REMARK VINA RESULT:    -8.932      0.000      0.000
REMARK INTER + INTRA:         -11.916
REMARK INTER:                 -11.021
REMARK INTRA:                  -0.895
REMARK UNBOUND:                -0.895
REMARK  Name = No_1328-gen_results/8p0m/2024-11-26-14-13-15/
REMARK  4 active torsions:
REMARK  status: ('A' for Active; 'I' for Inactive)
REMARK    1  A    between atoms: C_2  and  N_7
REMARK    2  A    between atoms: C_9  and  C_12
REMARK    3  A    between atoms: C_12  and  N_14
REMARK    4  A    between atoms: C_15  and  C_26
REMARK                            x       y       z     vdW  Elec       q    Type
REMARK                         _______ _______ _______ _____ _____    ______ ____
ROOT
ATOM      1  C   UNL A   1     -25.617   1.343  25.911  0.00  0.00    +0.034 A 
ATOM      2  C   UNL A   1     -25.416   2.058  26.659  0.00  0.00    +0.049 A 
ATOM      3  C   UNL A   1     -26.841   1.615  25.065  0.00  0.00    +0.083 A 
ATOM      4  C   UNL A   1     -27.532   2.835  25.220  0.00  0.00    +0.018 A 
ATOM      5  C   UNL A   1     -25.942   3.399  27.002  0.00  0.00    +0.015 A 
ATOM      6  C   UNL A   1     -27.065   3.687  26.239  0.00  0.00    +0.003 A 
ATOM      7  C   UNL A   1     -28.687   3.136  24.418  0.00  0.00    +0.003 A 
ATOM      8  C   UNL A   1     -29.354   2.187  23.714  0.00  0.00    +0.017 A 
ATOM      9  C   UNL A   1     -30.590   2.057  23.537  0.00  0.00    +0.002 A 
ATOM     10  C   UNL A   1     -31.169   0.871  23.012  0.00  0.00    -0.000 A 
ATOM     11  C   UNL A   1     -30.474  -0.350  23.221  0.00  0.00    -0.003 A 
ATOM     12  C   UNL A   1     -29.169  -0.316  23.669  0.00  0.00    -0.004 A 
ATOM     13  C   UNL A   1     -28.582   0.888  23.976  0.00  0.00    +0.077 A 
ATOM     14  N   UNL A   1     -27.471   0.664  24.419  0.00  0.00    -0.246 NA
ATOM     15  C   UNL A   1     -28.516  -1.555  23.751  0.00  0.00    +0.033 C 
ENDROOT
BRANCH   2  16
ATOM     16  N   UNL A   1     -24.205   1.615  27.418  0.00  0.00    -0.307 N 
ATOM     17  C   UNL A   1     -24.271   0.736  28.309  0.00  0.00    +0.100 C 
ATOM     18  C   UNL A   1     -23.055   0.115  28.584  0.00  0.00    +0.098 C 
ATOM     19  C   UNL A   1     -22.916   2.227  27.071  0.00  0.00    +0.091 C 
ATOM     20  C   UNL A   1     -21.787   1.543  27.415  0.00  0.00    +0.022 C 
ATOM     21  C   UNL A   1     -21.864   0.528  28.171  0.00  0.00    +0.013 C 
BRANCH  18  22
ATOM     22  C   UNL A   1     -23.157  -1.053  29.509  0.00  0.00    +0.247 C 
ATOM     23  O   UNL A   1     -23.216  -0.806  30.732  0.00  0.00    -0.273 OA
BRANCH  22  24
ATOM     24  N   UNL A   1     -23.180  -2.176  28.987  0.00  0.00    -0.178 NA
ATOM     25  C   UNL A   1     -24.079  -3.041  29.073  0.00  0.00    +0.088 C 
BRANCH  25  26
ATOM     26  C   UNL A   1     -23.969  -4.185  28.595  0.00  0.00    +0.013 C 
ATOM     27  C   UNL A   1     -24.891  -5.236  28.825  0.00  0.00    -0.024 C 
ATOM     28  C   UNL A   1     -26.003  -4.831  29.629  0.00  0.00    +0.031 C 
ENDBRANCH  25  26
ENDBRANCH  22  24
ENDBRANCH  18  22
ENDBRANCH   2  16
TORSDOF 4
ENDMDL
ENDMDL
