MODEL 1329
MODEL 1
REMARK VINA RESULT:    -6.274      0.000      0.000
REMARK INTER + INTRA:          -7.060
REMARK INTER:                  -6.640
REMARK INTRA:                  -0.420
REMARK UNBOUND:                -0.420
REMARK  Name = No_1329-gen_results/8p0m/2024-11-26-14-13-15/
REMARK  1 active torsions:
REMARK  status: ('A' for Active; 'I' for Inactive)
REMARK    1  A    between atoms: C_3  and  C_4
REMARK                            x       y       z     vdW  Elec       q    Type
REMARK                         _______ _______ _______ _____ _____    ______ ____
ROOT
ATOM      1  C   UNL A   1     -25.967  -3.122  29.768  0.00  0.00    +0.000 A 
ATOM      2  C   UNL A   1     -26.193  -4.147  29.679  0.00  0.00    +0.000 A 
ATOM      3  C   UNL A   1     -24.769  -2.678  29.112  0.00  0.00    +0.000 A 
ATOM      4  C   UNL A   1     -25.349  -5.254  29.253  0.00  0.00    +0.000 A 
ATOM      5  C   UNL A   1     -24.190  -4.874  28.678  0.00  0.00    +0.000 A 
ATOM      6  C   UNL A   1     -23.862  -3.527  28.555  0.00  0.00    +0.000 A 
ENDROOT
BRANCH   3   7
ATOM      7  C   UNL A   1     -24.459  -1.239  28.990  0.00  0.00    +0.000 A 
ATOM      8  C   UNL A   1     -23.218  -0.744  29.169  0.00  0.00    +0.000 A 
ATOM      9  C   UNL A   1     -24.973  -0.616  27.663  0.00  0.00    +0.000 A 
ATOM     10  C   UNL A   1     -24.521   0.386  27.061  0.00  0.00    +0.000 A 
ATOM     11  C   UNL A   1     -23.189   0.865  27.406  0.00  0.00    +0.000 A 
ATOM     12  C   UNL A   1     -22.634   0.442  28.574  0.00  0.00    +0.000 A 
ENDBRANCH   3   7
TORSDOF 1
ENDMDL
ENDMDL
