MODEL 132
MODEL 1
REMARK VINA RESULT:    -5.250      0.000      0.000
REMARK INTER + INTRA:          -5.723
REMARK INTER:                  -5.557
REMARK INTRA:                  -0.166
REMARK UNBOUND:                -0.166
REMARK  Name = No_132-gen_results/8p0m/2024-11-26-14-13-15/
REMARK  1 active torsions:
REMARK  status: ('A' for Active; 'I' for Inactive)
REMARK    1  A    between atoms: C_3  and  C_7
REMARK                            x       y       z     vdW  Elec       q    Type
REMARK                         _______ _______ _______ _____ _____    ______ ____
ROOT
ATOM      1  C   UNL A   1     -24.181  -4.421  28.808  0.00  0.00    -0.000 A 
ATOM      2  C   UNL A   1     -25.004  -5.038  29.038  0.00  0.00    -0.000 A 
ATOM      3  C   UNL A   1     -24.283  -3.046  29.114  0.00  0.00    -0.000 A 
ATOM      4  C   UNL A   1     -25.420  -2.507  29.684  0.00  0.00    -0.000 A 
ATOM      5  C   UNL A   1     -26.314  -4.722  29.641  0.00  0.00    -0.000 A 
ATOM      6  C   UNL A   1     -26.454  -3.414  29.949  0.00  0.00    -0.000 A 
ENDROOT
BRANCH   3   7
ATOM      7  C   UNL A   1     -23.168  -2.066  28.884  0.00  0.00    -0.005 C 
ATOM      8  C   UNL A   1     -22.878  -1.057  29.405  0.00  0.00    -0.026 C 
ATOM      9  C   UNL A   1     -21.764  -0.202  29.034  0.00  0.00    +0.031 C 
ENDBRANCH   3   7
TORSDOF 1
ENDMDL
ENDMDL
