REMARK  Name = No_1330-gen_results/8p0m/2024-11-26-14-13-15/
REMARK  6 active torsions:
REMARK  status: ('A' for Active; 'I' for Inactive)
REMARK    1  A    between atoms: C_2  and  C_3
REMARK    2  A    between atoms: N_4  and  C_11
REMARK    3  A    between atoms: C_12  and  C_13
REMARK    4  A    between atoms: C_14  and  C_15
REMARK    5  A    between atoms: C_15  and  C_17
REMARK    6  A    between atoms: C_18  and  C_19
REMARK                            x       y       z     vdW  Elec       q    Type
REMARK                         _______ _______ _______ _____ _____    ______ ____
ROOT
ATOM      1  O   UNL A   1     -28.123  -1.335  28.487  0.00  0.00    -0.270 OA
ATOM      2  C   UNL A   1     -27.481  -0.404  28.709  0.00  0.00    +0.254 C 
ATOM      3  N   UNL A   1     -27.666   0.447  29.899  0.00  0.00    -0.231 N 
ATOM      4  C   UNL A   1     -28.759   0.110  30.785  0.00  0.00    +0.122 C 
ENDROOT
BRANCH   2   5
ATOM      5  C   UNL A   1     -26.380  -0.087  27.939  0.00  0.00    +0.054 A 
ATOM      6  C   UNL A   1     -25.177  -0.439  28.395  0.00  0.00    +0.004 A 
ATOM      7  C   UNL A   1     -26.526   0.604  26.687  0.00  0.00    +0.004 A 
ATOM      8  C   UNL A   1     -23.937   0.037  27.652  0.00  0.00    +0.000 A 
ATOM      9  C   UNL A   1     -25.382   0.970  25.943  0.00  0.00    +0.000 A 
ATOM     10  C   UNL A   1     -24.103   0.725  26.441  0.00  0.00    +0.000 A 
ENDBRANCH   2   5
BRANCH   3  11
ATOM     11  C   UNL A   1     -26.849   1.521  30.193  0.00  0.00    +0.198 C 
ATOM     12  C   UNL A   1     -26.299   1.631  31.074  0.00  0.00    +0.045 C 
ATOM     13  F   UNL A   1     -26.556   2.319  29.002  0.00  0.00    -0.188 F 
BRANCH  12  14
ATOM     14  C   UNL A   1     -25.346   2.782  31.242  0.00  0.00    -0.001 C 
ATOM     15  C   UNL A   1     -25.113   3.607  30.167  0.00  0.00    -0.021 C 
BRANCH  15  16
ATOM     16  C   UNL A   1     -24.716   4.671  30.081  0.00  0.00    +0.052 C 
BRANCH  16  17
ATOM     17  C   UNL A   1     -25.284   5.560  31.015  0.00  0.00    -0.023 C 
ATOM     18  C   UNL A   1     -25.134   5.107  32.397  0.00  0.00    +0.005 C 
BRANCH  18  19
ATOM     19  C   UNL A   1     -25.578   3.646  32.488  0.00  0.00    +0.208 C 
ATOM     20  O   UNL A   1     -25.827   3.145  33.663  0.00  0.00    -0.215 OA
ENDBRANCH  18  19
ENDBRANCH  16  17
ENDBRANCH  15  16
ENDBRANCH  12  14
ENDBRANCH   3  11
TORSDOF 6
