REMARK  Name = No_1331-gen_results/8p0m/2024-11-26-14-13-15/
REMARK  1 active torsions:
REMARK  status: ('A' for Active; 'I' for Inactive)
REMARK    1  A    between atoms: N_4  and  C_6
REMARK                            x       y       z     vdW  Elec       q    Type
REMARK                         _______ _______ _______ _____ _____    ______ ____
ROOT
ATOM      1  O   UNL A   1     -28.123  -1.335  28.487  0.00  0.00    -0.270 OA
ATOM      2  C   UNL A   1     -27.064  -0.824  28.869  0.00  0.00    +0.252 C 
ATOM      3  C   UNL A   1     -26.402  -0.062  28.622  0.00  0.00    +0.050 A 
ATOM      4  N   UNL A   1     -26.265  -1.867  29.761  0.00  0.00    -0.254 N 
ATOM      5  C   UNL A   1     -26.844   1.134  27.880  0.00  0.00    +0.004 A 
ATOM      6  C   UNL A   1     -25.198   0.460  29.450  0.00  0.00    -0.016 A 
ATOM      7  C   UNL A   1     -24.461   1.597  29.180  0.00  0.00    -0.004 A 
ATOM      8  C   UNL A   1     -24.936   2.592  28.348  0.00  0.00    -0.000 A 
ATOM      9  C   UNL A   1     -26.110   2.317  27.599  0.00  0.00    +0.000 A 
ATOM     10  C   UNL A   1     -25.015  -1.568  30.315  0.00  0.00    +0.103 C 
ATOM     11  C   UNL A   1     -24.474  -0.480  30.206  0.00  0.00    +0.048 C 
ENDROOT
BRANCH   4  12
ATOM     12  C   UNL A   1     -26.692  -3.066  30.134  0.00  0.00    +0.065 A 
ATOM     13  C   UNL A   1     -26.279  -4.204  29.377  0.00  0.00    +0.071 A 
ATOM     14  C   UNL A   1     -27.991  -3.160  30.803  0.00  0.00    +0.016 A 
ATOM     15  C   UNL A   1     -28.610  -4.399  31.014  0.00  0.00    +0.001 A 
ATOM     16  C   UNL A   1     -26.842  -5.484  29.795  0.00  0.00    +0.013 A 
ATOM     17  C   UNL A   1     -28.003  -5.469  30.557  0.00  0.00    +0.001 A 
ATOM     18 CL   UNL A   1     -24.794  -4.098  28.675  0.00  0.00    -0.081 Cl
ENDBRANCH   4  12
TORSDOF 1
