MODEL 1332
MODEL 1
REMARK VINA RESULT:    -6.430      0.000      0.000
REMARK INTER + INTRA:          -7.484
REMARK INTER:                  -7.182
REMARK INTRA:                  -0.302
REMARK UNBOUND:                -0.302
REMARK  Name = No_1332-gen_results/8p0m/2024-11-26-14-13-15/
REMARK  2 active torsions:
REMARK  status: ('A' for Active; 'I' for Inactive)
REMARK    1  A    between atoms: C_14  and  C_16
REMARK    2  A    between atoms: C_16  and  C_18
REMARK                            x       y       z     vdW  Elec       q    Type
REMARK                         _______ _______ _______ _____ _____    ______ ____
ROOT
ATOM      1  F   UNL A   1     -23.190  -3.506  28.693  0.00  0.00    -0.201 F 
ATOM      2  C   UNL A   1     -24.393  -3.472  28.980  0.00  0.00    +0.174 A 
ATOM      3  C   UNL A   1     -24.835  -2.551  29.689  0.00  0.00    +0.165 A 
ATOM      4  C   UNL A   1     -26.180  -2.479  30.227  0.00  0.00    +0.035 A 
ATOM      5  C   UNL A   1     -26.820  -3.275  30.309  0.00  0.00    +0.022 A 
ATOM      6  C   UNL A   1     -26.494  -4.587  29.655  0.00  0.00    +0.004 A 
ATOM      7  C   UNL A   1     -25.256  -4.608  29.089  0.00  0.00    +0.033 A 
ATOM      8  C   UNL A   1     -28.279  -3.326  30.844  0.00  0.00    +0.099 A 
ATOM      9  N   UNL A   1     -28.630  -2.291  31.635  0.00  0.00    -0.243 NA
ATOM     10  C   UNL A   1     -27.945  -1.070  31.494  0.00  0.00    +0.095 A 
ATOM     11  C   UNL A   1     -26.601  -1.152  31.042  0.00  0.00    +0.000 A 
ATOM     12  C   UNL A   1     -25.858   0.085  31.065  0.00  0.00    +0.032 C 
ATOM     13  O   UNL A   1     -23.966  -1.488  29.660  0.00  0.00    -0.476 OA
ATOM     14  C   UNL A   1     -24.110  -0.558  28.787  0.00  0.00    +0.174 C 
ATOM     15  C   UNL A   1     -24.948   0.560  29.600  0.00  0.00    +0.049 C 
ENDROOT
BRANCH  14  16
ATOM     16  C   UNL A   1     -22.844   0.116  28.462  0.00  0.00    +0.105 C 
ATOM     17  C   UNL A   1     -22.693   1.080  27.701  0.00  0.00    +0.012 C 
BRANCH  16  18
ATOM     18  C   UNL A   1     -21.710  -0.442  29.179  0.00  0.00    +0.211 C 
ATOM     19  O   UNL A   1     -20.690  -0.857  28.621  0.00  0.00    -0.288 OA
ENDBRANCH  16  18
ENDBRANCH  14  16
TORSDOF 2
ENDMDL
ENDMDL
