REMARK  Name = No_1332-gen_results/8p0m/2024-11-26-14-13-15/
REMARK  2 active torsions:
REMARK  status: ('A' for Active; 'I' for Inactive)
REMARK    1  A    between atoms: C_14  and  C_16
REMARK    2  A    between atoms: C_16  and  C_18
REMARK                            x       y       z     vdW  Elec       q    Type
REMARK                         _______ _______ _______ _____ _____    ______ ____
ROOT
ATOM      1  F   UNL A   1     -28.073  -1.254  28.532  0.00  0.00    -0.201 F 
ATOM      2  C   UNL A   1     -27.061  -0.629  28.872  0.00  0.00    +0.174 A 
ATOM      3  C   UNL A   1     -26.358  -0.071  28.012  0.00  0.00    +0.165 A 
ATOM      4  C   UNL A   1     -25.072   0.553  28.256  0.00  0.00    +0.035 A 
ATOM      5  C   UNL A   1     -24.486   0.382  29.079  0.00  0.00    +0.022 A 
ATOM      6  C   UNL A   1     -25.024  -0.387  30.252  0.00  0.00    +0.004 A 
ATOM      7  C   UNL A   1     -26.265  -0.901  30.030  0.00  0.00    +0.033 A 
ATOM      8  C   UNL A   1     -23.111   0.996  29.466  0.00  0.00    +0.099 A 
ATOM      9  N   UNL A   1     -22.423   1.537  28.439  0.00  0.00    -0.243 NA
ATOM     10  C   UNL A   1     -23.133   1.986  27.311  0.00  0.00    +0.095 A 
ATOM     11  C   UNL A   1     -24.355   1.318  27.030  0.00  0.00    +0.000 A 
ATOM     12  C   UNL A   1     -24.986   1.669  25.781  0.00  0.00    +0.032 C 
ATOM     13  O   UNL A   1     -27.091   0.113  26.865  0.00  0.00    -0.476 OA
ATOM     14  C   UNL A   1     -27.748   1.201  26.684  0.00  0.00    +0.174 C 
ATOM     15  C   UNL A   1     -26.727   2.082  25.793  0.00  0.00    +0.049 C 
ENDROOT
BRANCH  14  16
ATOM     16  C   UNL A   1     -28.915   1.020  25.809  0.00  0.00    +0.105 C 
ATOM     17  C   UNL A   1     -28.905   0.897  24.577  0.00  0.00    +0.012 C 
BRANCH  16  18
ATOM     18  C   UNL A   1     -30.165   0.951  26.546  0.00  0.00    +0.211 C 
ATOM     19  O   UNL A   1     -31.147   0.307  26.163  0.00  0.00    -0.288 OA
ENDBRANCH  16  18
ENDBRANCH  14  16
TORSDOF 2
