REMARK  Name = No_1333-gen_results/8p0m/2024-11-26-14-13-15/
REMARK  1 active torsions:
REMARK  status: ('A' for Active; 'I' for Inactive)
REMARK    1  A    between atoms: C_5  and  C_7
REMARK                            x       y       z     vdW  Elec       q    Type
REMARK                         _______ _______ _______ _____ _____    ______ ____
ROOT
ATOM      1  C   UNL A   1     -28.016  -0.814  28.878  0.00  0.00    +0.000 A 
ATOM      2  C   UNL A   1     -27.064  -0.119  28.608  0.00  0.00    +0.000 A 
ATOM      3  C   UNL A   1     -26.972   0.714  27.506  0.00  0.00    +0.000 A 
ATOM      4  C   UNL A   1     -28.105   0.774  26.642  0.00  0.00    +0.007 A 
ATOM      5  C   UNL A   1     -29.204   0.118  27.048  0.00  0.00    +0.080 A 
ATOM      6  C   UNL A   1     -29.213  -0.609  28.128  0.00  0.00    +0.007 A 
ATOM      7  C   UNL A   1     -25.667   1.405  27.124  0.00  0.00    +0.002 A 
ATOM      8  C   UNL A   1     -24.534   1.035  27.728  0.00  0.00    +0.019 A 
ATOM      9  C   UNL A   1     -24.299   0.122  28.715  0.00  0.00    +0.003 A 
ATOM     10  C   UNL A   1     -25.599  -0.486  29.169  0.00  0.00    +0.000 A 
ATOM     11  C   UNL A   1     -23.227   1.789  27.382  0.00  0.00    +0.099 A 
ATOM     12  N   UNL A   1     -22.045   1.365  27.825  0.00  0.00    -0.242 NA
ATOM     13  C   UNL A   1     -21.986   0.422  28.832  0.00  0.00    +0.099 A 
ATOM     14  C   UNL A   1     -23.117  -0.230  29.270  0.00  0.00    +0.021 A 
ENDROOT
BRANCH   5  15
ATOM     15  C   UNL A   1     -30.371   0.233  26.138  0.00  0.00    +0.388 C 
ATOM     16  O   UNL A   1     -30.309   0.105  24.941  0.00  0.00    -0.241 OA
ATOM     17  O   UNL A   1     -31.579   0.266  26.675  0.00  0.00    -0.241 OA
ENDBRANCH   5  15
TORSDOF 1
