MODEL 1334
MODEL 1
REMARK VINA RESULT:    -5.676      0.000      0.000
REMARK INTER + INTRA:          -5.676
REMARK INTER:                  -5.676
REMARK INTRA:                   0.000
REMARK UNBOUND:                 0.000
REMARK  Name = No_1334-gen_results/8p0m/2024-11-26-14-13-15/
REMARK  0 active torsions:
REMARK  status: ('A' for Active; 'I' for Inactive)
REMARK                            x       y       z     vdW  Elec       q    Type
REMARK                         _______ _______ _______ _____ _____    ______ ____
ROOT
ATOM      1  C   UNL A   1     -24.981  -5.195  28.991  0.00  0.00    +0.000 A 
ATOM      2  C   UNL A   1     -24.123  -4.361  28.817  0.00  0.00    +0.000 A 
ATOM      3  C   UNL A   1     -24.243  -3.033  29.225  0.00  0.00    +0.002 A 
ATOM      4  C   UNL A   1     -25.480  -2.594  29.842  0.00  0.00    +0.000 A 
ATOM      5  C   UNL A   1     -26.439  -3.619  30.003  0.00  0.00    +0.000 A 
ATOM      6  C   UNL A   1     -26.237  -4.842  29.580  0.00  0.00    +0.000 A 
ATOM      7  C   UNL A   1     -23.229  -1.960  29.056  0.00  0.00    +0.030 A 
ATOM      8  C   UNL A   1     -23.341  -0.757  29.569  0.00  0.00    +0.140 A 
ATOM      9  C   UNL A   1     -24.581  -0.485  30.316  0.00  0.00    +0.030 A 
ATOM     10  C   UNL A   1     -25.601  -1.329  30.430  0.00  0.00    +0.002 A 
ATOM     11  F   UNL A   1     -22.466   0.196  29.478  0.00  0.00    -0.204 F 
ENDROOT
TORSDOF 0
ENDMDL
ENDMDL
