MODEL 1335
MODEL 1
REMARK VINA RESULT:    -5.902      0.000      0.000
REMARK INTER + INTRA:          -6.439
REMARK INTER:                  -6.247
REMARK INTRA:                  -0.193
REMARK UNBOUND:                -0.193
REMARK  Name = No_1335-gen_results/8p0m/2024-11-26-14-13-15/
REMARK  1 active torsions:
REMARK  status: ('A' for Active; 'I' for Inactive)
REMARK    1  A    between atoms: C_5  and  C_11
REMARK                            x       y       z     vdW  Elec       q    Type
REMARK                         _______ _______ _______ _____ _____    ______ ____
ROOT
ATOM      1  C   UNL A   1     -26.361  -4.595  29.708  0.00  0.00    +0.016 A 
ATOM      2  C   UNL A   1     -25.642  -3.624  29.650  0.00  0.00    -0.023 A 
ATOM      3  C   UNL A   1     -25.827  -2.457  30.197  0.00  0.00    -0.007 A 
ATOM      4  C   UNL A   1     -24.916  -1.290  30.106  0.00  0.00    +0.036 C 
ATOM      5  C   UNL A   1     -23.703  -1.489  29.387  0.00  0.00    +0.100 C 
ATOM      6  C   UNL A   1     -23.476  -2.735  28.859  0.00  0.00    +0.013 C 
ATOM      7  C   UNL A   1     -24.328  -3.780  28.978  0.00  0.00    +0.026 C 
ATOM      8  C   UNL A   1     -27.717  -4.333  30.040  0.00  0.00    +0.099 A 
ATOM      9  N   UNL A   1     -28.047  -3.242  30.521  0.00  0.00    -0.243 NA
ATOM     10  C   UNL A   1     -27.145  -2.174  30.665  0.00  0.00    +0.094 A 
ENDROOT
BRANCH   5  11
ATOM     11  C   UNL A   1     -22.658  -0.490  29.286  0.00  0.00    +0.398 C 
ATOM     12  F   UNL A   1     -22.519   0.295  30.091  0.00  0.00    -0.170 F 
ATOM     13  F   UNL A   1     -21.438  -1.108  28.987  0.00  0.00    -0.170 F 
ATOM     14  F   UNL A   1     -22.803   0.197  28.015  0.00  0.00    -0.170 F 
ENDBRANCH   5  11
TORSDOF 1
ENDMDL
ENDMDL
