REMARK  Name = No_1335-gen_results/8p0m/2024-11-26-14-13-15/
REMARK  1 active torsions:
REMARK  status: ('A' for Active; 'I' for Inactive)
REMARK    1  A    between atoms: C_5  and  C_11
REMARK                            x       y       z     vdW  Elec       q    Type
REMARK                         _______ _______ _______ _____ _____    ______ ____
ROOT
ATOM      1  C   UNL A   1     -28.016  -0.814  28.878  0.00  0.00    +0.016 A 
ATOM      2  C   UNL A   1     -27.064  -0.119  28.608  0.00  0.00    -0.023 A 
ATOM      3  C   UNL A   1     -26.876   1.133  28.913  0.00  0.00    -0.007 A 
ATOM      4  C   UNL A   1     -25.688   1.952  28.567  0.00  0.00    +0.036 C 
ATOM      5  C   UNL A   1     -24.639   1.283  27.875  0.00  0.00    +0.100 C 
ATOM      6  C   UNL A   1     -24.807  -0.051  27.604  0.00  0.00    +0.013 C 
ATOM      7  C   UNL A   1     -25.902  -0.767  27.951  0.00  0.00    +0.026 C 
ATOM      8  C   UNL A   1     -29.216  -0.118  29.181  0.00  0.00    +0.099 A 
ATOM      9  N   UNL A   1     -29.193   1.092  29.440  0.00  0.00    -0.243 NA
ATOM     10  C   UNL A   1     -28.023   1.864  29.345  0.00  0.00    +0.094 A 
ENDROOT
BRANCH   5  11
ATOM     11  C   UNL A   1     -23.370   1.904  27.551  0.00  0.00    +0.398 C 
ATOM     12  F   UNL A   1     -22.391   1.360  27.721  0.00  0.00    -0.170 F 
ATOM     13  F   UNL A   1     -23.418   2.435  26.256  0.00  0.00    -0.170 F 
ATOM     14  F   UNL A   1     -23.296   3.180  28.242  0.00  0.00    -0.170 F 
ENDBRANCH   5  11
TORSDOF 1
