MODEL 1336
MODEL 1
REMARK VINA RESULT:    -5.030      0.000      0.000
REMARK INTER + INTRA:          -5.402
REMARK INTER:                  -5.324
REMARK INTRA:                  -0.078
REMARK UNBOUND:                -0.078
REMARK  Name = No_1336-gen_results/8p0m/2024-11-26-14-13-15/
REMARK  1 active torsions:
REMARK  status: ('A' for Active; 'I' for Inactive)
REMARK    1  A    between atoms: C_3  and  C_7
REMARK                            x       y       z     vdW  Elec       q    Type
REMARK                         _______ _______ _______ _____ _____    ______ ____
ROOT
ATOM      1  C   UNL A   1     -25.841  -3.088  29.698  0.00  0.00    -0.000 A 
ATOM      2  C   UNL A   1     -26.096  -4.111  29.690  0.00  0.00    -0.000 A 
ATOM      3  C   UNL A   1     -24.568  -2.722  29.207  0.00  0.00    -0.000 A 
ATOM      4  C   UNL A   1     -23.850  -3.463  28.699  0.00  0.00    -0.000 A 
ATOM      5  C   UNL A   1     -25.352  -5.239  29.129  0.00  0.00    -0.000 A 
ATOM      6  C   UNL A   1     -24.155  -4.869  28.615  0.00  0.00    -0.000 A 
ENDROOT
BRANCH   3   7
ATOM      7  C   UNL A   1     -23.996  -1.266  29.159  0.00  0.00    -0.005 C 
ATOM      8  C   UNL A   1     -23.988  -0.552  28.295  0.00  0.00    -0.026 C 
ATOM      9  C   UNL A   1     -25.251  -0.609  27.416  0.00  0.00    +0.031 C 
ENDBRANCH   3   7
TORSDOF 1
ENDMDL
ENDMDL
