MODEL 1337
MODEL 1
REMARK VINA RESULT:    -5.736      0.000      0.000
REMARK INTER + INTRA:          -6.693
REMARK INTER:                  -6.406
REMARK INTRA:                  -0.287
REMARK UNBOUND:                -0.287
REMARK  Name = No_1337-gen_results/8p0m/2024-11-26-14-13-15/
REMARK  2 active torsions:
REMARK  status: ('A' for Active; 'I' for Inactive)
REMARK    1  A    between atoms: C_2  and  C_11
REMARK    2  A    between atoms: C_3  and  C_7
REMARK                            x       y       z     vdW  Elec       q    Type
REMARK                         _______ _______ _______ _____ _____    ______ ____
ROOT
ATOM      1  C   UNL A   1     -28.252 -11.798  31.717  0.00  0.00    +0.010 A 
ATOM      2  C   UNL A   1     -28.260 -11.260  32.623  0.00  0.00    +0.080 A 
ATOM      3  C   UNL A   1     -29.159 -11.256  30.705  0.00  0.00    +0.072 A 
ATOM      4  C   UNL A   1     -29.923 -10.138  30.934  0.00  0.00    +0.004 A 
ATOM      5  C   UNL A   1     -28.942 -10.072  33.135  0.00  0.00    +0.007 A 
ATOM      6  C   UNL A   1     -29.823  -9.539  32.164  0.00  0.00    +0.000 A 
ENDROOT
BRANCH   3   7
ATOM      7  C   UNL A   1     -29.257 -11.856  29.343  0.00  0.00    +0.419 C 
ATOM      8  F   UNL A   1     -28.323 -11.642  28.709  0.00  0.00    -0.166 F 
ATOM      9  F   UNL A   1     -30.345 -11.336  28.637  0.00  0.00    -0.166 F 
ATOM     10  F   UNL A   1     -29.550 -13.218  29.444  0.00  0.00    -0.166 F 
ENDBRANCH   3   7
BRANCH   2  11
ATOM     11  C   UNL A   1     -27.214 -11.718  33.788  0.00  0.00    +0.388 C 
ATOM     12  O   UNL A   1     -26.825 -10.810  34.581  0.00  0.00    -0.241 OA
ATOM     13  O   UNL A   1     -26.726 -12.799  33.758  0.00  0.00    -0.241 OA
ENDBRANCH   2  11
TORSDOF 2
ENDMDL
ENDMDL
