MODEL 1338
MODEL 1
REMARK VINA RESULT:    -5.349      0.000      0.000
REMARK INTER + INTRA:          -5.800
REMARK INTER:                  -5.662
REMARK INTRA:                  -0.139
REMARK UNBOUND:                -0.139
REMARK  Name = No_1338-gen_results/8p0m/2024-11-26-14-13-15/
REMARK  1 active torsions:
REMARK  status: ('A' for Active; 'I' for Inactive)
REMARK    1  A    between atoms: C_4  and  C_7
REMARK                            x       y       z     vdW  Elec       q    Type
REMARK                         _______ _______ _______ _____ _____    ______ ____
ROOT
ATOM      1  C   UNL A   1     -24.655  -5.242  28.917  0.00  0.00    -0.000 A 
ATOM      2  C   UNL A   1     -25.626  -5.152  29.316  0.00  0.00    -0.000 A 
ATOM      3  C   UNL A   1     -23.937  -3.988  28.639  0.00  0.00    -0.000 A 
ATOM      4  C   UNL A   1     -24.489  -2.734  29.031  0.00  0.00    -0.000 A 
ATOM      5  C   UNL A   1     -25.739  -2.778  29.598  0.00  0.00    -0.000 A 
ATOM      6  C   UNL A   1     -26.364  -3.957  29.806  0.00  0.00    -0.000 A 
ENDROOT
BRANCH   4   7
ATOM      7  C   UNL A   1     -23.778  -1.495  28.776  0.00  0.00    -0.005 C 
ATOM      8  C   UNL A   1     -22.678  -1.148  29.231  0.00  0.00    -0.026 C 
ATOM      9  C   UNL A   1     -21.913   0.022  28.790  0.00  0.00    +0.031 C 
ENDBRANCH   4   7
TORSDOF 1
ENDMDL
ENDMDL
