REMARK  Name = No_1339-gen_results/8p0m/2024-11-26-14-13-15/
REMARK  2 active torsions:
REMARK  status: ('A' for Active; 'I' for Inactive)
REMARK    1  A    between atoms: C_3  and  C_6
REMARK    2  A    between atoms: C_6  and  N_9
REMARK                            x       y       z     vdW  Elec       q    Type
REMARK                         _______ _______ _______ _____ _____    ______ ____
ROOT
ATOM      1  F   UNL A   1     -28.073  -1.254  28.532  0.00  0.00    -0.204 F 
ATOM      2  C   UNL A   1     -27.061  -0.629  28.872  0.00  0.00    +0.138 A 
ATOM      3  C   UNL A   1     -27.176   0.615  29.369  0.00  0.00    +0.029 A 
ATOM      4  C   UNL A   1     -25.730  -1.269  28.724  0.00  0.00    +0.029 A 
ATOM      5  C   UNL A   1     -24.553  -0.508  29.013  0.00  0.00    +0.002 A 
ATOM      6  C   UNL A   1     -24.666   0.810  29.495  0.00  0.00    -0.000 A 
ATOM      7  C   UNL A   1     -25.913   1.324  29.672  0.00  0.00    -0.000 A 
ENDROOT
BRANCH   3   8
ATOM      8  C   UNL A   1     -28.413   1.238  29.520  0.00  0.00    +0.154 C 
BRANCH   8   9
ATOM      9  N   UNL A   1     -28.521   2.480  29.805  0.00  0.00    -0.269 NA
ATOM     10  C   UNL A   1     -29.610   3.087  29.940  0.00  0.00    +0.068 C 
ATOM     11  C   UNL A   1     -29.670   4.523  30.285  0.00  0.00    +0.053 C 
ENDBRANCH   8   9
ENDBRANCH   3   8
TORSDOF 2
