MODEL 1339
MODEL 1
REMARK VINA RESULT:    -5.209      0.000      0.000
REMARK INTER + INTRA:          -5.985
REMARK INTER:                  -5.818
REMARK INTRA:                  -0.167
REMARK UNBOUND:                -0.167
REMARK  Name = No_1339-gen_results/8p0m/2024-11-26-14-13-15/
REMARK  2 active torsions:
REMARK  status: ('A' for Active; 'I' for Inactive)
REMARK    1  A    between atoms: C_3  and  C_6
REMARK    2  A    between atoms: C_6  and  N_9
REMARK                            x       y       z     vdW  Elec       q    Type
REMARK                         _______ _______ _______ _____ _____    ______ ____
ROOT
ATOM      1  F   UNL A   1     -25.312  -0.631  27.412  0.00  0.00    -0.204 F 
ATOM      2  C   UNL A   1     -24.257   0.014  27.452  0.00  0.00    +0.138 A 
ATOM      3  C   UNL A   1     -23.303  -0.316  28.340  0.00  0.00    +0.029 A 
ATOM      4  C   UNL A   1     -24.064   1.147  26.513  0.00  0.00    +0.029 A 
ATOM      5  C   UNL A   1     -22.894   1.962  26.633  0.00  0.00    +0.002 A 
ATOM      6  C   UNL A   1     -21.909   1.646  27.588  0.00  0.00    -0.000 A 
ATOM      7  C   UNL A   1     -22.109   0.558  28.380  0.00  0.00    -0.000 A 
ENDROOT
BRANCH   3   8
ATOM      8  C   UNL A   1     -23.457  -1.376  29.231  0.00  0.00    +0.154 C 
BRANCH   8   9
ATOM      9  N   UNL A   1     -23.368  -2.597  28.860  0.00  0.00    -0.269 NA
ATOM     10  C   UNL A   1     -24.269  -3.455  29.017  0.00  0.00    +0.068 C 
ATOM     11  C   UNL A   1     -24.112  -4.850  28.553  0.00  0.00    +0.053 C 
ENDBRANCH   8   9
ENDBRANCH   3   8
TORSDOF 2
ENDMDL
ENDMDL
