MODEL 133
MODEL 1
REMARK VINA RESULT:    -4.909      0.000      0.000
REMARK INTER + INTRA:          -5.221
REMARK INTER:                  -5.196
REMARK INTRA:                  -0.025
REMARK UNBOUND:                -0.025
REMARK  Name = No_133-gen_results/8p0m/2024-11-26-14-13-15/
REMARK  1 active torsions:
REMARK  status: ('A' for Active; 'I' for Inactive)
REMARK    1  A    between atoms: C_5  and  N_8
REMARK                            x       y       z     vdW  Elec       q    Type
REMARK                         _______ _______ _______ _____ _____    ______ ____
ROOT
ATOM      1  F   UNL A   1     -11.116 -10.504  17.414  0.00  0.00    -0.204 F 
ATOM      2  C   UNL A   1     -10.188 -10.133  17.973  0.00  0.00    +0.140 A 
ATOM      3  C   UNL A   1      -9.080 -10.858  17.843  0.00  0.00    +0.031 A 
ATOM      4  C   UNL A   1      -7.994 -10.832  18.773  0.00  0.00    +0.021 A 
ATOM      5  C   UNL A   1      -8.067  -9.837  19.839  0.00  0.00    +0.082 A 
ATOM      6  C   UNL A   1      -9.258  -9.131  19.964  0.00  0.00    +0.021 A 
ATOM      7  C   UNL A   1     -10.268  -9.329  19.188  0.00  0.00    +0.031 A 
ENDROOT
BRANCH   5   8
ATOM      8  N   UNL A   1      -6.998  -9.698  20.651  0.00  0.00    -0.242 NA
ATOM      9  C   UNL A   1      -6.774 -10.325  21.632  0.00  0.00    +0.119 C 
ENDBRANCH   5   8
TORSDOF 1
ENDMDL
ENDMDL
