REMARK  Name = No_134-gen_results/8p0m/2024-11-26-14-13-15/
REMARK  4 active torsions:
REMARK  status: ('A' for Active; 'I' for Inactive)
REMARK    1  A    between atoms: C_3  and  C_7
REMARK    2  A    between atoms: C_7  and  C_8
REMARK    3  A    between atoms: C_7  and  C_16
REMARK    4  A    between atoms: C_11  and  O_14
REMARK                            x       y       z     vdW  Elec       q    Type
REMARK                         _______ _______ _______ _____ _____    ______ ____
ROOT
ATOM      1  C   UNL A   1     -27.445   0.487  26.773  0.00  0.00    +0.088 C 
ENDROOT
BRANCH   1   4
ATOM      2  C   UNL A   1     -28.016  -0.814  28.878  0.00  0.00    -0.004 A 
ATOM      3  C   UNL A   1     -28.469  -0.785  29.829  0.00  0.00    -0.000 A 
ATOM      4  C   UNL A   1     -28.182   0.428  28.113  0.00  0.00    -0.013 A 
ATOM      5  C   UNL A   1     -28.984   1.415  28.515  0.00  0.00    -0.004 A 
ATOM      6  C   UNL A   1     -29.380   0.138  30.461  0.00  0.00    -0.000 A 
ATOM      7  C   UNL A   1     -29.541   1.274  29.724  0.00  0.00    -0.000 A 
ENDBRANCH   1   4
BRANCH   1   8
ATOM      8  C   UNL A   1     -26.001   0.397  26.791  0.00  0.00    -0.013 A 
ATOM      9  C   UNL A   1     -25.246   1.086  25.914  0.00  0.00    -0.001 A 
ATOM     10  C   UNL A   1     -23.850   1.147  26.009  0.00  0.00    +0.037 A 
ATOM     11  C   UNL A   1     -23.205   0.765  27.223  0.00  0.00    +0.139 A 
ATOM     12  C   UNL A   1     -24.038   0.140  28.213  0.00  0.00    +0.037 A 
ATOM     13  C   UNL A   1     -25.361   0.027  28.042  0.00  0.00    -0.001 A 
BRANCH  11  14
ATOM     14  O   UNL A   1     -21.925   1.038  27.480  0.00  0.00    -0.471 OA
ATOM     15  C   UNL A   1     -21.541   1.445  28.806  0.00  0.00    +0.253 C 
ENDBRANCH  11  14
ENDBRANCH   1   8
BRANCH   1  16
ATOM     16  C   UNL A   1     -28.179   0.434  25.596  0.00  0.00    +0.104 C 
ATOM     17  N   UNL A   1     -28.483   1.472  25.090  0.00  0.00    -0.151 NA
ENDBRANCH   1  16
TORSDOF 4
