MODEL 1340
MODEL 1
REMARK VINA RESULT:    -6.201      0.000      0.000
REMARK INTER + INTRA:          -8.829
REMARK INTER:                  -8.014
REMARK INTRA:                  -0.815
REMARK UNBOUND:                -0.815
REMARK  Name = No_1340-gen_results/8p0m/2024-11-26-14-13-15/
REMARK  5 active torsions:
REMARK  status: ('A' for Active; 'I' for Inactive)
REMARK    1  A    between atoms: C_3  and  C_8
REMARK    2  A    between atoms: C_6  and  O_7
REMARK    3  A    between atoms: O_7  and  C_14
REMARK    4  A    between atoms: C_14  and  C_15
REMARK    5  A    between atoms: C_14  and  C_19
REMARK                            x       y       z     vdW  Elec       q    Type
REMARK                         _______ _______ _______ _____ _____    ______ ____
ROOT
ATOM      1  C   UNL A   1     -30.168  -9.944  30.794  0.00  0.00    +0.037 A 
ATOM      2  C   UNL A   1     -30.582 -10.134  29.675  0.00  0.00    +0.003 A 
ATOM      3  C   UNL A   1     -30.066 -11.153  28.882  0.00  0.00    +0.000 A 
ATOM      4  C   UNL A   1     -28.989 -11.985  29.352  0.00  0.00    +0.003 A 
ATOM      5  C   UNL A   1     -28.554 -11.680  30.649  0.00  0.00    +0.037 A 
ATOM      6  C   UNL A   1     -29.064 -10.695  31.351  0.00  0.00    +0.140 A 
ENDROOT
BRANCH   3   7
ATOM      7  C   UNL A   1     -30.506 -11.496  27.479  0.00  0.00    +0.000 A 
ATOM      8  C   UNL A   1     -31.790 -11.538  27.173  0.00  0.00    +0.000 A 
ATOM      9  C   UNL A   1     -32.226 -12.016  25.930  0.00  0.00    +0.000 A 
ATOM     10  C   UNL A   1     -31.286 -12.474  24.941  0.00  0.00    +0.000 A 
ATOM     11  C   UNL A   1     -29.570 -12.034  26.536  0.00  0.00    +0.000 A 
ATOM     12  C   UNL A   1     -29.999 -12.456  25.239  0.00  0.00    +0.000 A 
ENDBRANCH   3   7
BRANCH   6  13
ATOM     13  O   UNL A   1     -28.558 -10.441  32.589  0.00  0.00    -0.460 OA
BRANCH  13  14
ATOM     14  C   UNL A   1     -28.676 -11.329  33.588  0.00  0.00    +0.345 C 
BRANCH  14  15
ATOM     15  C   UNL A   1     -29.399 -10.775  34.623  0.00  0.00    +0.293 C 
ATOM     16  O   UNL A   1     -29.833 -11.472  35.394  0.00  0.00    -0.269 OA
ATOM     17  N   UNL A   1     -29.928  -9.519  34.501  0.00  0.00    -0.200 NA
ATOM     18  C   UNL A   1     -30.720  -8.871  35.574  0.00  0.00    +0.139 C 
ENDBRANCH  14  15
BRANCH  14  19
ATOM     19  C   UNL A   1     -27.281 -11.654  34.002  0.00  0.00    +0.413 C 
ATOM     20  O   UNL A   1     -26.772 -12.652  33.822  0.00  0.00    -0.241 OA
ATOM     21  O   UNL A   1     -26.642 -10.731  34.710  0.00  0.00    -0.241 OA
ENDBRANCH  14  19
ENDBRANCH  13  14
ENDBRANCH   6  13
TORSDOF 5
ENDMDL
ENDMDL
