REMARK  Name = No_1340-gen_results/8p0m/2024-11-26-14-13-15/
REMARK  5 active torsions:
REMARK  status: ('A' for Active; 'I' for Inactive)
REMARK    1  A    between atoms: C_3  and  C_8
REMARK    2  A    between atoms: C_6  and  O_7
REMARK    3  A    between atoms: O_7  and  C_14
REMARK    4  A    between atoms: C_14  and  C_15
REMARK    5  A    between atoms: C_14  and  C_19
REMARK                            x       y       z     vdW  Elec       q    Type
REMARK                         _______ _______ _______ _____ _____    ______ ____
ROOT
ATOM      1  C   UNL A   1     -28.016  -0.814  28.878  0.00  0.00    +0.037 A 
ATOM      2  C   UNL A   1     -27.064  -0.119  28.608  0.00  0.00    +0.003 A 
ATOM      3  C   UNL A   1     -25.792  -0.430  29.076  0.00  0.00    +0.000 A 
ATOM      4  C   UNL A   1     -25.576  -1.565  29.936  0.00  0.00    +0.003 A 
ATOM      5  C   UNL A   1     -26.735  -2.300  30.217  0.00  0.00    +0.037 A 
ATOM      6  C   UNL A   1     -27.918  -1.954  29.763  0.00  0.00    +0.140 A 
ENDROOT
BRANCH   3   7
ATOM      7  C   UNL A   1     -24.529   0.349  28.800  0.00  0.00    +0.000 A 
ATOM      8  C   UNL A   1     -24.481   1.211  27.800  0.00  0.00    +0.000 A 
ATOM      9  C   UNL A   1     -23.276   1.818  27.421  0.00  0.00    +0.000 A 
ATOM     10  C   UNL A   1     -22.049   1.525  28.113  0.00  0.00    +0.000 A 
ATOM     11  C   UNL A   1     -23.297  -0.016  29.436  0.00  0.00    +0.000 A 
ATOM     12  C   UNL A   1     -22.077   0.651  29.104  0.00  0.00    +0.000 A 
ENDBRANCH   3   7
BRANCH   6  13
ATOM     13  O   UNL A   1     -29.000  -2.701  30.115  0.00  0.00    -0.460 OA
BRANCH  13  14
ATOM     14  C   UNL A   1     -30.121  -2.130  30.581  0.00  0.00    +0.345 C 
BRANCH  14  15
ATOM     15  C   UNL A   1     -30.582  -2.829  31.676  0.00  0.00    +0.293 C 
ATOM     16  O   UNL A   1     -31.568  -2.518  32.122  0.00  0.00    -0.269 OA
ATOM     17  N   UNL A   1     -29.716  -3.562  32.442  0.00  0.00    -0.200 NA
ATOM     18  C   UNL A   1     -30.148  -4.329  33.635  0.00  0.00    +0.139 C 
ENDBRANCH  14  15
BRANCH  14  19
ATOM     19  C   UNL A   1     -31.093  -2.174  29.450  0.00  0.00    +0.413 C 
ATOM     20  O   UNL A   1     -31.410  -3.121  28.911  0.00  0.00    -0.241 OA
ATOM     21  O   UNL A   1     -31.533  -1.006  29.000  0.00  0.00    -0.241 OA
ENDBRANCH  14  19
ENDBRANCH  13  14
ENDBRANCH   6  13
TORSDOF 5
