MODEL 1341
MODEL 1
REMARK VINA RESULT:    -5.674      0.000      0.000
REMARK INTER + INTRA:          -7.795
REMARK INTER:                  -7.332
REMARK INTRA:                  -0.464
REMARK UNBOUND:                -0.464
REMARK  Name = No_1341-gen_results/8p0m/2024-11-26-14-13-15/
REMARK  5 active torsions:
REMARK  status: ('A' for Active; 'I' for Inactive)
REMARK    1  A    between atoms: C_1  and  C_2
REMARK    2  A    between atoms: C_5  and  C_11
REMARK    3  A    between atoms: N_8  and  C_10
REMARK    4  A    between atoms: C_10  and  C_16
REMARK    5  A    between atoms: C_16  and  P_17
REMARK                            x       y       z     vdW  Elec       q    Type
REMARK                         _______ _______ _______ _____ _____    ______ ____
ROOT
ATOM      1  C   UNL A   1      -7.102  -0.188  10.299  0.00  0.00    +0.249 C 
ATOM      2  N   UNL A   1      -5.678  -0.066  10.560  0.00  0.00    -0.274 N 
ATOM      3  O   UNL A   1      -7.414  -1.427  10.177  0.00  0.00    -0.270 OA
ATOM      4  C   UNL A   1      -5.126   1.268  10.921  0.00  0.00    +0.115 C 
ENDROOT
BRANCH   1   5
ATOM      5  C   UNL A   1      -7.867   0.606  10.795  0.00  0.00    +0.054 A 
ATOM      6  C   UNL A   1      -8.499   1.586  10.100  0.00  0.00    +0.004 A 
ATOM      7  C   UNL A   1      -9.439   2.564  10.691  0.00  0.00    +0.004 A 
ATOM      8  C   UNL A   1      -9.708   2.440  12.094  0.00  0.00    +0.071 A 
ATOM      9  C   UNL A   1      -9.088   1.363  12.766  0.00  0.00    +0.004 A 
ATOM     10  C   UNL A   1      -8.225   0.493  12.151  0.00  0.00    +0.004 A 
BRANCH   8  11
ATOM     11  C   UNL A   1     -10.613   3.304  12.776  0.00  0.00    +0.419 C 
ATOM     12  F   UNL A   1     -11.423   2.963  13.337  0.00  0.00    -0.166 F 
ATOM     13  F   UNL A   1     -11.077   4.254  11.832  0.00  0.00    -0.166 F 
ATOM     14  F   UNL A   1      -9.809   4.170  13.548  0.00  0.00    -0.166 F 
ENDBRANCH   8  11
ENDBRANCH   1   5
BRANCH   2  15
ATOM     15  C   UNL A   1      -4.628  -0.925  10.109  0.00  0.00    +0.102 C 
BRANCH  15  16
ATOM     16  C   UNL A   1      -3.945  -0.552   8.958  0.00  0.00    +0.080 C 
BRANCH  16  17
ATOM     17  P   UNL A   1      -4.159  -1.450   7.544  0.00  0.00    +0.119 P 
ATOM     18  O   UNL A   1      -5.604  -1.546   7.396  0.00  0.00    -0.357 OA
ATOM     19  O   UNL A   1      -3.596  -2.802   7.828  0.00  0.00    -0.357 OA
ATOM     20  O   UNL A   1      -3.578  -0.519   6.582  0.00  0.00    -0.460 OA
ENDBRANCH  16  17
ENDBRANCH  15  16
ENDBRANCH   2  15
TORSDOF 5
ENDMDL
ENDMDL
