REMARK  Name = No_1341-gen_results/8p0m/2024-11-26-14-13-15/
REMARK  5 active torsions:
REMARK  status: ('A' for Active; 'I' for Inactive)
REMARK    1  A    between atoms: C_1  and  C_2
REMARK    2  A    between atoms: C_5  and  C_11
REMARK    3  A    between atoms: N_8  and  C_10
REMARK    4  A    between atoms: C_10  and  C_16
REMARK    5  A    between atoms: C_16  and  P_17
REMARK                            x       y       z     vdW  Elec       q    Type
REMARK                         _______ _______ _______ _____ _____    ______ ____
ROOT
ATOM      1  C   UNL A   1     -28.016  -0.814  28.878  0.00  0.00    +0.249 C 
ATOM      2  N   UNL A   1     -27.982  -1.637  30.075  0.00  0.00    -0.274 N 
ATOM      3  O   UNL A   1     -29.216  -0.413  28.663  0.00  0.00    -0.270 OA
ATOM      4  C   UNL A   1     -26.663  -2.058  30.620  0.00  0.00    +0.115 C 
ENDROOT
BRANCH   1   5
ATOM      5  C   UNL A   1     -27.064  -0.119  28.608  0.00  0.00    +0.054 A 
ATOM      6  C   UNL A   1     -26.929   1.171  29.008  0.00  0.00    +0.004 A 
ATOM      7  C   UNL A   1     -25.770   2.034  28.688  0.00  0.00    +0.004 A 
ATOM      8  C   UNL A   1     -24.714   1.443  27.919  0.00  0.00    +0.071 A 
ATOM      9  C   UNL A   1     -24.859   0.078  27.584  0.00  0.00    +0.004 A 
ATOM     10  C   UNL A   1     -25.965  -0.661  27.916  0.00  0.00    +0.004 A 
BRANCH   8  11
ATOM     11  C   UNL A   1     -23.534   2.161  27.567  0.00  0.00    +0.419 C 
ATOM     12  F   UNL A   1     -22.662   1.704  27.224  0.00  0.00    -0.166 F 
ATOM     13  F   UNL A   1     -23.212   3.000  28.663  0.00  0.00    -0.166 F 
ATOM     14  F   UNL A   1     -23.950   3.165  26.666  0.00  0.00    -0.166 F 
ENDBRANCH   8  11
ENDBRANCH   1   5
BRANCH   2  15
ATOM     15  C   UNL A   1     -29.016  -2.482  30.586  0.00  0.00    +0.102 C 
BRANCH  15  16
ATOM     16  C   UNL A   1     -28.944  -3.836  30.283  0.00  0.00    +0.080 C 
BRANCH  16  17
ATOM     17  P   UNL A   1     -30.248  -4.838  30.668  0.00  0.00    +0.119 P 
ATOM     18  O   UNL A   1     -31.316  -3.915  31.023  0.00  0.00    -0.357 OA
ATOM     19  O   UNL A   1     -29.832  -5.607  31.877  0.00  0.00    -0.357 OA
ATOM     20  O   UNL A   1     -30.472  -5.447  29.361  0.00  0.00    -0.460 OA
ENDBRANCH  16  17
ENDBRANCH  15  16
ENDBRANCH   2  15
TORSDOF 5
