MODEL 1342
MODEL 1
REMARK VINA RESULT:    -5.272      0.000      0.000
REMARK INTER + INTRA:          -5.722
REMARK INTER:                  -5.580
REMARK INTRA:                  -0.142
REMARK UNBOUND:                -0.142
REMARK  Name = No_1342-gen_results/8p0m/2024-11-26-14-13-15/
REMARK  1 active torsions:
REMARK  status: ('A' for Active; 'I' for Inactive)
REMARK    1  A    between atoms: C_4  and  C_7
REMARK                            x       y       z     vdW  Elec       q    Type
REMARK                         _______ _______ _______ _____ _____    ______ ____
ROOT
ATOM      1  C   UNL A   1     -24.680  -5.191  28.936  0.00  0.00    -0.000 A 
ATOM      2  C   UNL A   1     -25.666  -5.079  29.290  0.00  0.00    -0.000 A 
ATOM      3  C   UNL A   1     -23.892  -3.958  28.778  0.00  0.00    +0.004 A 
ATOM      4  C   UNL A   1     -24.408  -2.706  29.223  0.00  0.00    +0.071 A 
ATOM      5  C   UNL A   1     -26.410  -3.925  29.865  0.00  0.00    -0.000 A 
ATOM      6  C   UNL A   1     -25.714  -2.761  29.728  0.00  0.00    +0.004 A 
ENDROOT
BRANCH   4   7
ATOM      7  C   UNL A   1     -23.683  -1.485  29.104  0.00  0.00    +0.419 C 
ATOM      8  F   UNL A   1     -22.480  -1.645  28.998  0.00  0.00    -0.166 F 
ATOM      9  F   UNL A   1     -24.050  -0.818  27.941  0.00  0.00    -0.166 F 
ATOM     10  F   UNL A   1     -24.008  -0.593  30.089  0.00  0.00    -0.166 F 
ENDBRANCH   4   7
TORSDOF 1
ENDMDL
ENDMDL
