REMARK  Name = No_1343-gen_results/8p0m/2024-11-26-14-13-15/
REMARK  10 active torsions:
REMARK  status: ('A' for Active; 'I' for Inactive)
REMARK    1  A    between atoms: C_2  and  C_12
REMARK    2  A    between atoms: C_5  and  C_7
REMARK    3  A    between atoms: C_14  and  C_18
REMARK    4  A    between atoms: N_20  and  C_21
REMARK    5  A    between atoms: C_25  and  C_27
REMARK    6  A    between atoms: C_27  and  O_29
REMARK    7  A    between atoms: O_29  and  C_30
REMARK    8  A    between atoms: C_30  and  C_31
REMARK    9  A    between atoms: C_31  and  C_32
REMARK   10  A    between atoms: C_33  and  C_34
REMARK                            x       y       z     vdW  Elec       q    Type
REMARK                         _______ _______ _______ _____ _____    ______ ____
ROOT
ATOM      1  C   UNL A   1     -22.070   0.251  28.979  0.00  0.00    +0.415 C 
ATOM      2  N   UNL A   1     -20.974  -0.371  29.092  0.00  0.00    +0.216 NA
ATOM      3  N   UNL A   1     -22.122   1.228  27.949  0.00  0.00    -0.033 NA
ENDROOT
BRANCH   1   6
ATOM      4  C   UNL A   1     -25.710  -0.203  29.444  0.00  0.00    +0.001 A 
ATOM      5  C   UNL A   1     -24.579  -0.022  28.873  0.00  0.00    +0.008 A 
ATOM      6  C   UNL A   1     -23.327  -0.062  29.633  0.00  0.00    +0.091 A 
ATOM      7  C   UNL A   1     -23.431  -0.602  30.907  0.00  0.00    +0.008 A 
ATOM      8  C   UNL A   1     -24.639  -0.840  31.511  0.00  0.00    +0.000 A 
ATOM      9  C   UNL A   1     -25.783  -0.648  30.787  0.00  0.00    +0.000 A 
BRANCH   4  11
ATOM     10  C   UNL A   1     -28.016  -0.814  28.878  0.00  0.00    +0.035 A 
ATOM     11  C   UNL A   1     -27.064  -0.119  28.608  0.00  0.00    +0.006 A 
ATOM     12  C   UNL A   1     -26.972   0.714  27.506  0.00  0.00    +0.001 A 
ATOM     13  C   UNL A   1     -28.105   0.774  26.642  0.00  0.00    +0.005 A 
ATOM     14  C   UNL A   1     -29.201   0.104  27.053  0.00  0.00    +0.056 A 
ATOM     15  C   UNL A   1     -29.210  -0.603  28.185  0.00  0.00    +0.011 A 
ATOM     16 BR   UNL A   1     -28.042  -1.888  30.470  0.00  0.00    -0.049 Br
BRANCH  14  17
ATOM     17  C   UNL A   1     -30.370   0.226  26.160  0.00  0.00    +0.265 C 
ATOM     18  O   UNL A   1     -30.339   0.216  24.966  0.00  0.00    -0.268 OA
ATOM     19  N   UNL A   1     -31.635   0.120  26.780  0.00  0.00    -0.200 NA
ATOM     20  C   UNL A   1     -32.798   0.096  25.981  0.00  0.00    +0.139 C 
ENDBRANCH  14  17
ENDBRANCH   4  11
ENDBRANCH   1   6
BRANCH   3  21
ATOM     21  C   UNL A   1     -23.173   2.017  27.649  0.00  0.00    +0.194 A 
ATOM     22  C   UNL A   1     -23.333   2.322  26.237  0.00  0.00    +0.047 A 
ATOM     23  C   UNL A   1     -24.444   3.044  25.804  0.00  0.00    +0.004 A 
ATOM     24  C   UNL A   1     -25.165   3.814  26.809  0.00  0.00    +0.007 A 
ATOM     25  C   UNL A   1     -24.895   3.651  28.165  0.00  0.00    +0.079 A 
ATOM     26  C   UNL A   1     -23.915   2.792  28.596  0.00  0.00    +0.053 A 
BRANCH  25  27
ATOM     27  C   UNL A   1     -25.760   4.382  29.145  0.00  0.00    +0.341 C 
ATOM     28  O   UNL A   1     -25.390   5.193  29.715  0.00  0.00    -0.245 OA
BRANCH  27  29
ATOM     29  O   UNL A   1     -27.026   3.895  29.156  0.00  0.00    -0.445 OA
BRANCH  29  30
ATOM     30  C   UNL A   1     -27.662   3.712  30.369  0.00  0.00    +0.213 C 
BRANCH  30  31
ATOM     31  C   UNL A   1     -28.890   2.983  30.235  0.00  0.00    +0.073 C 
BRANCH  31  32
ATOM     32  C   UNL A   1     -29.873   3.405  29.429  0.00  0.00    -0.022 C 
ATOM     33  C   UNL A   1     -29.832   4.465  28.830  0.00  0.00    -0.004 C 
BRANCH  33  34
ATOM     34  C   UNL A   1     -30.598   5.031  28.053  0.00  0.00    -0.000 C 
ATOM     35  C   UNL A   1     -31.866   4.338  27.843  0.00  0.00    -0.000 C 
ENDBRANCH  33  34
ENDBRANCH  31  32
ENDBRANCH  30  31
ENDBRANCH  29  30
ENDBRANCH  27  29
ENDBRANCH  25  27
ENDBRANCH   3  21
TORSDOF 10
