MODEL 1344
MODEL 1
REMARK VINA RESULT:    -4.350      0.000      0.000
REMARK INTER + INTRA:          -4.350
REMARK INTER:                  -4.350
REMARK INTRA:                   0.000
REMARK UNBOUND:                 0.000
REMARK  Name = No_1344-gen_results/8p0m/2024-11-26-14-13-15/
REMARK  0 active torsions:
REMARK  status: ('A' for Active; 'I' for Inactive)
REMARK                            x       y       z     vdW  Elec       q    Type
REMARK                         _______ _______ _______ _____ _____    ______ ____
ROOT
ATOM      1  C   UNL A   1     -24.156  -4.872  28.574  0.00  0.00    +0.000 A 
ATOM      2  C   UNL A   1     -24.998  -5.300  29.041  0.00  0.00    +0.000 A 
ATOM      3  C   UNL A   1     -24.072  -3.416  28.738  0.00  0.00    +0.000 A 
ATOM      4  C   UNL A   1     -25.064  -2.697  29.266  0.00  0.00    +0.000 A 
ATOM      5  C   UNL A   1     -26.185  -4.741  29.640  0.00  0.00    +0.000 A 
ATOM      6  C   UNL A   1     -26.100  -3.385  29.761  0.00  0.00    +0.000 A 
ENDROOT
TORSDOF 0
ENDMDL
ENDMDL
