REMARK  Name = No_1345-gen_results/8p0m/2024-11-26-14-13-15/
REMARK  1 active torsions:
REMARK  status: ('A' for Active; 'I' for Inactive)
REMARK    1  A    between atoms: C_2  and  C_3
REMARK                            x       y       z     vdW  Elec       q    Type
REMARK                         _______ _______ _______ _____ _____    ______ ____
ROOT
ATOM      1  C   UNL A   1     -26.332  -0.644  29.452  0.00  0.00    +0.110 A 
ATOM      2  C   UNL A   1     -25.203   0.218  29.555  0.00  0.00    +0.007 A 
ATOM      3  C   UNL A   1     -23.981  -0.004  30.254  0.00  0.00    +0.000 A 
ATOM      4  C   UNL A   1     -23.801  -1.231  30.776  0.00  0.00    +0.003 A 
ATOM      5  C   UNL A   1     -25.776  -1.928  29.944  0.00  0.00    +0.200 A 
ATOM      6  C   UNL A   1     -24.673  -2.200  30.643  0.00  0.00    +0.042 A 
ATOM      7  O   UNL A   1     -26.701  -2.998  29.853  0.00  0.00    -0.287 OA
ENDROOT
BRANCH   1   9
ATOM      8  F   UNL A   1     -28.073  -1.254  28.532  0.00  0.00    -0.166 F 
ATOM      9  C   UNL A   1     -27.359  -0.379  28.722  0.00  0.00    +0.421 C 
ATOM     10  F   UNL A   1     -28.007   0.698  29.334  0.00  0.00    -0.166 F 
ATOM     11  F   UNL A   1     -27.064   0.123  27.471  0.00  0.00    -0.166 F 
ENDBRANCH   1   9
TORSDOF 1
