MODEL 1345
MODEL 1
REMARK VINA RESULT:    -5.290      0.000      0.000
REMARK INTER + INTRA:          -5.711
REMARK INTER:                  -5.599
REMARK INTRA:                  -0.112
REMARK UNBOUND:                -0.112
REMARK  Name = No_1345-gen_results/8p0m/2024-11-26-14-13-15/
REMARK  1 active torsions:
REMARK  status: ('A' for Active; 'I' for Inactive)
REMARK    1  A    between atoms: C_2  and  C_3
REMARK                            x       y       z     vdW  Elec       q    Type
REMARK                         _______ _______ _______ _____ _____    ______ ____
ROOT
ATOM      1  C   UNL A   1     -24.251  -2.572  29.388  0.00  0.00    +0.110 A 
ATOM      2  C   UNL A   1     -23.936  -3.865  28.882  0.00  0.00    +0.007 A 
ATOM      3  C   UNL A   1     -24.689  -5.069  28.999  0.00  0.00    +0.000 A 
ATOM      4  C   UNL A   1     -25.918  -4.960  29.536  0.00  0.00    +0.003 A 
ATOM      5  C   UNL A   1     -25.683  -2.728  29.741  0.00  0.00    +0.200 A 
ATOM      6  C   UNL A   1     -26.434  -3.817  29.917  0.00  0.00    +0.042 A 
ATOM      7  O   UNL A   1     -26.272  -1.521  30.195  0.00  0.00    -0.287 OA
ENDROOT
BRANCH   1   9
ATOM      8  F   UNL A   1     -22.432  -1.723  28.919  0.00  0.00    -0.166 F 
ATOM      9  C   UNL A   1     -23.536  -1.527  29.153  0.00  0.00    +0.421 C 
ATOM     10  F   UNL A   1     -24.174  -0.841  28.116  0.00  0.00    -0.166 F 
ATOM     11  F   UNL A   1     -23.528  -0.592  30.168  0.00  0.00    -0.166 F 
ENDBRANCH   1   9
TORSDOF 1
ENDMDL
ENDMDL
