MODEL 1346
MODEL 1
REMARK VINA RESULT:    -5.658      0.000      0.000
REMARK INTER + INTRA:          -5.658
REMARK INTER:                  -5.658
REMARK INTRA:                   0.000
REMARK UNBOUND:                 0.000
REMARK  Name = No_1346-gen_results/8p0m/2024-11-26-14-13-15/
REMARK  0 active torsions:
REMARK  status: ('A' for Active; 'I' for Inactive)
REMARK                            x       y       z     vdW  Elec       q    Type
REMARK                         _______ _______ _______ _____ _____    ______ ____
ROOT
ATOM      1  C   UNL A   1     -24.061  -4.357  28.774  0.00  0.00    +0.000 A 
ATOM      2  C   UNL A   1     -24.861  -5.015  28.971  0.00  0.00    +0.000 A 
ATOM      3  C   UNL A   1     -24.201  -3.011  29.178  0.00  0.00    +0.000 A 
ATOM      4  C   UNL A   1     -25.345  -2.549  29.799  0.00  0.00    +0.000 A 
ATOM      5  C   UNL A   1     -26.344  -3.482  30.025  0.00  0.00    +0.000 A 
ATOM      6  C   UNL A   1     -26.148  -4.794  29.647  0.00  0.00    +0.000 A 
ATOM      7  C   UNL A   1     -23.284  -1.821  28.995  0.00  0.00    +0.000 A 
ATOM      8  C   UNL A   1     -22.837  -1.177  29.950  0.00  0.00    +0.000 A 
ATOM      9  C   UNL A   1     -23.725  -0.825  31.038  0.00  0.00    +0.000 A 
ATOM     10  C   UNL A   1     -24.998  -1.651  31.008  0.00  0.00    +0.000 A 
ENDROOT
TORSDOF 0
ENDMDL
ENDMDL
