MODEL 1347
MODEL 1
REMARK VINA RESULT:    -5.204      0.000      0.000
REMARK INTER + INTRA:          -6.003
REMARK INTER:                  -5.812
REMARK INTRA:                  -0.191
REMARK UNBOUND:                -0.191
REMARK  Name = No_1347-gen_results/8p0m/2024-11-26-14-13-15/
REMARK  2 active torsions:
REMARK  status: ('A' for Active; 'I' for Inactive)
REMARK    1  A    between atoms: C_2  and  O_7
REMARK    2  A    between atoms: C_4  and  C_9
REMARK                            x       y       z     vdW  Elec       q    Type
REMARK                         _______ _______ _______ _____ _____    ______ ____
ROOT
ATOM      1  C   UNL A   1     -24.102   0.418  27.531  0.00  0.00    +0.037 A 
ATOM      2  C   UNL A   1     -23.390   0.771  28.223  0.00  0.00    +0.139 A 
ATOM      3  C   UNL A   1     -24.901  -0.786  27.977  0.00  0.00    +0.003 A 
ATOM      4  C   UNL A   1     -24.334  -1.767  28.294  0.00  0.00    -0.000 A 
ATOM      5  C   UNL A   1     -22.493  -0.142  29.038  0.00  0.00    +0.037 A 
ATOM      6  C   UNL A   1     -23.081  -1.449  29.206  0.00  0.00    +0.003 A 
ENDROOT
BRANCH   4   7
ATOM      7  C   UNL A   1     -24.916  -3.067  28.661  0.00  0.00    -0.005 C 
ATOM      8  C   UNL A   1     -24.360  -4.251  28.638  0.00  0.00    -0.026 C 
ATOM      9  C   UNL A   1     -24.927  -5.432  29.222  0.00  0.00    +0.031 C 
ENDBRANCH   4   7
BRANCH   2  10
ATOM     10  O   UNL A   1     -22.695   1.992  28.078  0.00  0.00    -0.471 OA
ATOM     11  C   UNL A   1     -21.528   1.876  27.403  0.00  0.00    +0.253 C 
ENDBRANCH   2  10
TORSDOF 2
ENDMDL
ENDMDL
