REMARK  Name = No_1347-gen_results/8p0m/2024-11-26-14-13-15/
REMARK  2 active torsions:
REMARK  status: ('A' for Active; 'I' for Inactive)
REMARK    1  A    between atoms: C_2  and  O_7
REMARK    2  A    between atoms: C_4  and  C_9
REMARK                            x       y       z     vdW  Elec       q    Type
REMARK                         _______ _______ _______ _____ _____    ______ ____
ROOT
ATOM      1  C   UNL A   1     -28.016  -0.814  28.878  0.00  0.00    +0.037 A 
ATOM      2  C   UNL A   1     -28.469  -0.785  29.829  0.00  0.00    +0.139 A 
ATOM      3  C   UNL A   1     -26.504  -0.778  28.877  0.00  0.00    +0.003 A 
ATOM      4  C   UNL A   1     -25.950   0.116  29.405  0.00  0.00    -0.000 A 
ATOM      5  C   UNL A   1     -27.996   0.119  30.953  0.00  0.00    +0.037 A 
ATOM      6  C   UNL A   1     -26.604   0.465  30.803  0.00  0.00    +0.003 A 
ENDROOT
BRANCH   4   7
ATOM      7  C   UNL A   1     -24.505   0.391  29.434  0.00  0.00    -0.005 C 
ATOM      8  C   UNL A   1     -23.525  -0.405  29.779  0.00  0.00    -0.026 C 
ATOM      9  C   UNL A   1     -22.134  -0.128  29.566  0.00  0.00    +0.031 C 
ENDBRANCH   4   7
BRANCH   2  10
ATOM     10  O   UNL A   1     -29.846  -1.011  30.048  0.00  0.00    -0.471 OA
ATOM     11  C   UNL A   1     -30.120  -2.228  30.572  0.00  0.00    +0.253 C 
ENDBRANCH   2  10
TORSDOF 2
