MODEL 1348
MODEL 1
REMARK VINA RESULT:    -6.751      0.000      0.000
REMARK INTER + INTRA:          -9.120
REMARK INTER:                  -8.724
REMARK INTRA:                  -0.395
REMARK UNBOUND:                -0.395
REMARK  Name = No_1348-gen_results/8p0m/2024-11-26-14-13-15/
REMARK  5 active torsions:
REMARK  status: ('A' for Active; 'I' for Inactive)
REMARK    1  A    between atoms: C_5  and  C_11
REMARK    2  A    between atoms: C_9  and  C_14
REMARK    3  A    between atoms: C_14  and  N_15
REMARK    4  A    between atoms: C_16  and  C_18
REMARK    5  A    between atoms: C_19  and  C_20
REMARK                            x       y       z     vdW  Elec       q    Type
REMARK                         _______ _______ _______ _____ _____    ______ ____
ROOT
ATOM      1  C   UNL A   1     -31.024 -10.192  29.683  0.00  0.00    +0.000 A 
ATOM      2  C   UNL A   1     -30.175 -10.479  30.494  0.00  0.00    +0.000 A 
ATOM      3  C   UNL A   1     -30.008  -9.730  31.654  0.00  0.00    +0.000 A 
ATOM      4  C   UNL A   1     -28.995  -9.973  32.721  0.00  0.00    +0.008 A 
ATOM      5  C   UNL A   1     -28.240 -11.177  32.602  0.00  0.00    +0.098 A 
ATOM      6  C   UNL A   1     -28.468 -11.954  31.448  0.00  0.00    +0.008 A 
ATOM      7  C   UNL A   1     -29.360 -11.653  30.493  0.00  0.00    +0.000 A 
ATOM      8  C   UNL A   1     -30.569 -10.249  28.270  0.00  0.00    +0.005 A 
ATOM      9  C   UNL A   1     -29.870 -11.463  28.009  0.00  0.00    +0.055 A 
ATOM     10  C   UNL A   1     -29.058 -12.030  29.061  0.00  0.00    +0.005 A 
ENDROOT
BRANCH   5  11
ATOM     11  C   UNL A   1     -27.369 -11.521  33.710  0.00  0.00    +0.477 C 
ATOM     12  N   UNL A   1     -26.793 -12.674  33.716  0.00  0.00    +0.205 NA
ATOM     13  N   UNL A   1     -27.077 -10.721  34.729  0.00  0.00    +0.205 NA
ENDBRANCH   5  11
BRANCH   9  14
ATOM     14  C   UNL A   1     -29.674 -11.974  26.636  0.00  0.00    +0.269 C 
ATOM     15  O   UNL A   1     -28.425 -12.376  26.478  0.00  0.00    -0.268 OA
BRANCH  14  16
ATOM     16  N   UNL A   1     -30.422 -12.002  25.848  0.00  0.00    -0.174 NA
ATOM     17  C   UNL A   1     -30.520 -12.829  24.789  0.00  0.00    +0.089 C 
BRANCH  17  18
ATOM     18  C   UNL A   1     -31.569 -12.840  24.027  0.00  0.00    +0.018 C 
ATOM     19  C   UNL A   1     -31.559 -12.859  22.642  0.00  0.00    +0.001 C 
BRANCH  19  20
ATOM     20  C   UNL A   1     -30.249 -12.892  21.991  0.00  0.00    +0.000 C 
ATOM     21  C   UNL A   1     -30.004 -12.027  20.977  0.00  0.00    +0.000 C 
ENDBRANCH  19  20
ENDBRANCH  17  18
ENDBRANCH  14  16
ENDBRANCH   9  14
TORSDOF 5
ENDMDL
ENDMDL
