REMARK  Name = No_1348-gen_results/8p0m/2024-11-26-14-13-15/
REMARK  5 active torsions:
REMARK  status: ('A' for Active; 'I' for Inactive)
REMARK    1  A    between atoms: C_5  and  C_11
REMARK    2  A    between atoms: C_9  and  C_14
REMARK    3  A    between atoms: C_14  and  N_15
REMARK    4  A    between atoms: C_16  and  C_18
REMARK    5  A    between atoms: C_19  and  C_20
REMARK                            x       y       z     vdW  Elec       q    Type
REMARK                         _______ _______ _______ _____ _____    ______ ____
ROOT
ATOM      1  C   UNL A   1     -28.016  -0.814  28.878  0.00  0.00    +0.000 A 
ATOM      2  C   UNL A   1     -27.064  -0.119  28.608  0.00  0.00    +0.000 A 
ATOM      3  C   UNL A   1     -25.792  -0.430  29.076  0.00  0.00    +0.000 A 
ATOM      4  C   UNL A   1     -24.546   0.349  28.823  0.00  0.00    +0.008 A 
ATOM      5  C   UNL A   1     -24.659   1.420  27.888  0.00  0.00    +0.098 A 
ATOM      6  C   UNL A   1     -25.947   1.681  27.379  0.00  0.00    +0.008 A 
ATOM      7  C   UNL A   1     -27.044   0.974  27.687  0.00  0.00    +0.000 A 
ATOM      8  C   UNL A   1     -29.236  -0.061  29.267  0.00  0.00    +0.005 A 
ATOM      9  C   UNL A   1     -29.500   0.992  28.343  0.00  0.00    +0.055 A 
ATOM     10  C   UNL A   1     -28.380   1.678  27.743  0.00  0.00    +0.005 A 
ENDROOT
BRANCH   5  11
ATOM     11  C   UNL A   1     -23.430   2.086  27.498  0.00  0.00    +0.477 C 
ATOM     12  N   UNL A   1     -23.487   3.048  26.642  0.00  0.00    +0.205 NA
ATOM     13  N   UNL A   1     -22.225   1.810  27.982  0.00  0.00    +0.205 NA
ENDBRANCH   5  11
BRANCH   9  14
ATOM     14  C   UNL A   1     -30.833   1.621  28.234  0.00  0.00    +0.269 C 
ATOM     15  O   UNL A   1     -31.011   2.475  29.227  0.00  0.00    -0.268 OA
BRANCH  14  16
ATOM     16  N   UNL A   1     -31.583   1.411  27.476  0.00  0.00    -0.174 NA
ATOM     17  C   UNL A   1     -32.806   1.951  27.309  0.00  0.00    +0.089 C 
BRANCH  17  18
ATOM     18  C   UNL A   1     -33.518   1.712  26.252  0.00  0.00    +0.018 C 
ATOM     19  C   UNL A   1     -34.766   2.250  25.982  0.00  0.00    +0.001 C 
BRANCH  19  20
ATOM     20  C   UNL A   1     -35.310   3.184  26.968  0.00  0.00    +0.000 C 
ATOM     21  C   UNL A   1     -34.581   3.456  28.078  0.00  0.00    +0.000 C 
ENDBRANCH  19  20
ENDBRANCH  17  18
ENDBRANCH  14  16
ENDBRANCH   9  14
TORSDOF 5
