MODEL 1349
MODEL 1
REMARK VINA RESULT:    -6.424      0.000      0.000
REMARK INTER + INTRA:          -7.026
REMARK INTER:                  -6.800
REMARK INTRA:                  -0.227
REMARK UNBOUND:                -0.227
REMARK  Name = No_1349-gen_results/8p0m/2024-11-26-14-13-15/
REMARK  1 active torsions:
REMARK  status: ('A' for Active; 'I' for Inactive)
REMARK    1  A    between atoms: C_5  and  C_8
REMARK                            x       y       z     vdW  Elec       q    Type
REMARK                         _______ _______ _______ _____ _____    ______ ____
ROOT
ATOM      1  O   UNL A   1     -20.723   0.120  28.615  0.00  0.00    -0.273 OA
ATOM      2  C   UNL A   1     -21.873   0.037  28.593  0.00  0.00    +0.242 C 
ATOM      3  C   UNL A   1     -22.518  -1.139  28.918  0.00  0.00    +0.091 C 
ATOM      4  N   UNL A   1     -22.681   0.916  27.741  0.00  0.00    -0.205 NA
ATOM      5  C   UNL A   1     -23.772  -1.441  28.619  0.00  0.00    +0.033 C 
ATOM      6  C   UNL A   1     -24.554  -0.387  27.951  0.00  0.00    +0.028 C 
ATOM      7  C   UNL A   1     -23.956   0.712  27.490  0.00  0.00    +0.116 C 
ENDROOT
BRANCH   5   8
ATOM      8  C   UNL A   1     -24.544  -2.608  29.077  0.00  0.00    -0.022 A 
ATOM      9  C   UNL A   1     -25.814  -2.582  29.472  0.00  0.00    -0.004 A 
ATOM     10  C   UNL A   1     -26.470  -3.773  29.929  0.00  0.00    -0.000 A 
ATOM     11  C   UNL A   1     -24.048  -3.936  28.743  0.00  0.00    -0.004 A 
ATOM     12  C   UNL A   1     -24.735  -5.086  28.999  0.00  0.00    -0.000 A 
ATOM     13  C   UNL A   1     -25.999  -4.972  29.540  0.00  0.00    -0.000 A 
ENDBRANCH   5   8
TORSDOF 1
ENDMDL
ENDMDL
