MODEL 134
MODEL 1
REMARK VINA RESULT:    -6.689      0.000      0.000
REMARK INTER + INTRA:          -9.000
REMARK INTER:                  -8.253
REMARK INTRA:                  -0.747
REMARK UNBOUND:                -0.747
REMARK  Name = No_134-gen_results/8p0m/2024-11-26-14-13-15/
REMARK  4 active torsions:
REMARK  status: ('A' for Active; 'I' for Inactive)
REMARK    1  A    between atoms: C_3  and  C_7
REMARK    2  A    between atoms: C_7  and  C_8
REMARK    3  A    between atoms: C_7  and  C_16
REMARK    4  A    between atoms: C_11  and  O_14
REMARK                            x       y       z     vdW  Elec       q    Type
REMARK                         _______ _______ _______ _____ _____    ______ ____
ROOT
ATOM      1  C   UNL A   1     -23.882  -1.118  29.721  0.00  0.00    +0.088 C 
ENDROOT
BRANCH   1   4
ATOM      2  C   UNL A   1     -23.774  -3.490  28.820  0.00  0.00    -0.004 A 
ATOM      3  C   UNL A   1     -24.229  -4.440  28.799  0.00  0.00    -0.000 A 
ATOM      4  C   UNL A   1     -24.550  -2.485  29.557  0.00  0.00    -0.013 A 
ATOM      5  C   UNL A   1     -25.791  -2.714  29.989  0.00  0.00    -0.004 A 
ATOM      6  C   UNL A   1     -25.540  -4.914  29.170  0.00  0.00    -0.000 A 
ATOM      7  C   UNL A   1     -26.255  -3.960  29.830  0.00  0.00    -0.000 A 
ENDBRANCH   1   4
BRANCH   1   8
ATOM      8  C   UNL A   1     -23.626  -0.342  28.527  0.00  0.00    -0.013 A 
ATOM      9  C   UNL A   1     -24.607  -0.070  27.646  0.00  0.00    -0.001 A 
ATOM     10  C   UNL A   1     -24.429   0.810  26.570  0.00  0.00    +0.037 A 
ATOM     11  C   UNL A   1     -23.317   1.704  26.563  0.00  0.00    +0.139 A 
ATOM     12  C   UNL A   1     -22.327   1.492  27.583  0.00  0.00    +0.037 A 
ATOM     13  C   UNL A   1     -22.501   0.578  28.546  0.00  0.00    -0.001 A 
BRANCH  11  14
ATOM     14  O   UNL A   1     -23.222   2.734  25.722  0.00  0.00    -0.471 OA
ATOM     15  C   UNL A   1     -24.291   3.696  25.658  0.00  0.00    +0.253 C 
ENDBRANCH  11  14
ENDBRANCH   1   8
BRANCH   1  16
ATOM     16  C   UNL A   1     -23.720  -0.595  30.997  0.00  0.00    +0.104 C 
ATOM     17  N   UNL A   1     -22.905  -1.108  31.703  0.00  0.00    -0.151 NA
ENDBRANCH   1  16
TORSDOF 4
ENDMDL
ENDMDL
