REMARK  Name = No_135-gen_results/8p0m/2024-11-26-14-13-15/
REMARK  2 active torsions:
REMARK  status: ('A' for Active; 'I' for Inactive)
REMARK    1  A    between atoms: C_2  and  C_7
REMARK    2  A    between atoms: N_8  and  C_10
REMARK                            x       y       z     vdW  Elec       q    Type
REMARK                         _______ _______ _______ _____ _____    ______ ____
ROOT
ATOM      1  C   UNL A   1     -30.042  -0.769  29.653  0.00  0.00    +0.269 C 
ATOM      2  N   UNL A   1     -30.524  -0.150  28.769  0.00  0.00    -0.175 NA
ATOM      3  O   UNL A   1     -30.711  -1.725  30.318  0.00  0.00    -0.268 OA
ENDROOT
BRANCH   1   5
ATOM      4  C   UNL A   1     -28.016  -0.814  28.878  0.00  0.00    +0.005 A 
ATOM      5  C   UNL A   1     -28.469  -0.785  29.829  0.00  0.00    +0.055 A 
ATOM      6  C   UNL A   1     -26.504  -0.778  28.877  0.00  0.00    +0.000 A 
ATOM      7  C   UNL A   1     -25.810  -0.853  30.103  0.00  0.00    +0.000 A 
ATOM      8  C   UNL A   1     -27.991  -0.892  31.226  0.00  0.00    +0.005 A 
ATOM      9  C   UNL A   1     -26.604  -0.868  31.265  0.00  0.00    +0.000 A 
ENDBRANCH   1   5
BRANCH   2  10
ATOM     10  C   UNL A   1     -31.939  -0.221  28.404  0.00  0.00    +0.074 A 
ATOM     11  C   UNL A   1     -32.381   0.871  27.968  0.00  0.00    +0.017 A 
ATOM     12  C   UNL A   1     -33.589   1.217  28.054  0.00  0.00    +0.001 A 
ATOM     13  C   UNL A   1     -34.554   0.159  28.422  0.00  0.00    +0.000 A 
ATOM     14  C   UNL A   1     -34.062  -1.042  28.814  0.00  0.00    +0.001 A 
ATOM     15  C   UNL A   1     -32.694  -1.216  28.929  0.00  0.00    +0.017 A 
ENDBRANCH   2  10
TORSDOF 2
