REMARK  Name = No_1351-gen_results/8p0m/2024-11-26-14-13-15/
REMARK  2 active torsions:
REMARK  status: ('A' for Active; 'I' for Inactive)
REMARK    1  A    between atoms: C_3  and  C_4
REMARK    2  A    between atoms: C_4  and  C_5
REMARK                            x       y       z     vdW  Elec       q    Type
REMARK                         _______ _______ _______ _____ _____    ______ ____
ROOT
ATOM      1 BR   UNL A   1     -28.115  -0.626  29.081  0.00  0.00    -0.049 Br
ATOM      2  C   UNL A   1     -26.927   0.455  28.685  0.00  0.00    +0.031 A 
ATOM      3  C   UNL A   1     -26.316   0.393  27.421  0.00  0.00    -0.012 A 
ATOM      4  C   UNL A   1     -26.525   1.538  29.668  0.00  0.00    +0.006 A 
ATOM      5  C   UNL A   1     -25.314   2.083  29.538  0.00  0.00    +0.001 A 
ATOM      6  C   UNL A   1     -24.553   1.998  28.283  0.00  0.00    -0.000 A 
ATOM      7  C   UNL A   1     -25.080   1.194  27.261  0.00  0.00    -0.003 A 
ENDROOT
BRANCH   3   8
ATOM      8  C   UNL A   1     -26.878   0.021  26.463  0.00  0.00    +0.053 C 
BRANCH   8   9
ATOM      9  C   UNL A   1     -27.259   0.741  25.441  0.00  0.00    -0.018 A 
ATOM     10  C   UNL A   1     -28.156   0.247  24.496  0.00  0.00    -0.004 A 
ATOM     11  C   UNL A   1     -29.248   0.753  24.044  0.00  0.00    -0.000 A 
ATOM     12  C   UNL A   1     -29.293   2.257  24.315  0.00  0.00    -0.000 A 
ATOM     13  C   UNL A   1     -28.345   2.908  25.091  0.00  0.00    -0.000 A 
ATOM     14  C   UNL A   1     -27.455   2.167  25.671  0.00  0.00    -0.004 A 
ENDBRANCH   8   9
ENDBRANCH   3   8
TORSDOF 2
