MODEL 1352
MODEL 1
REMARK VINA RESULT:    -8.714      0.000      0.000
REMARK INTER + INTRA:         -10.650
REMARK INTER:                 -10.243
REMARK INTRA:                  -0.407
REMARK UNBOUND:                -0.407
REMARK  Name = No_1352-gen_results/8p0m/2024-11-26-14-13-15/
REMARK  3 active torsions:
REMARK  status: ('A' for Active; 'I' for Inactive)
REMARK    1  A    between atoms: N_4  and  C_5
REMARK    2  A    between atoms: C_13  and  C_15
REMARK    3  A    between atoms: C_13  and  C_18
REMARK                            x       y       z     vdW  Elec       q    Type
REMARK                         _______ _______ _______ _____ _____    ______ ____
ROOT
ATOM      1  O   UNL A   1     -23.175   1.862  26.599  0.00  0.00    -0.225 OA
ATOM      2  C   UNL A   1     -23.471   0.923  27.189  0.00  0.00    +0.415 C 
ATOM      3  O   UNL A   1     -22.837   0.389  28.006  0.00  0.00    -0.377 OA
ATOM      4  N   UNL A   1     -24.810   0.383  26.840  0.00  0.00    -0.224 N 
ATOM      5  C   UNL A   1     -25.259  -0.879  27.555  0.00  0.00    +0.120 C 
ATOM      6  C   UNL A   1     -24.645  -1.189  28.683  0.00  0.00    +0.146 C 
ATOM      7  C   UNL A   1     -23.179  -0.957  28.692  0.00  0.00    +0.333 C 
ATOM      8  O   UNL A   1     -22.211  -1.610  29.056  0.00  0.00    -0.249 OA
ENDROOT
BRANCH   4   9
ATOM      9  C   UNL A   1     -25.693   0.898  25.912  0.00  0.00    +0.057 A 
ATOM     10  C   UNL A   1     -26.399   2.064  26.284  0.00  0.00    +0.016 A 
ATOM     11  C   UNL A   1     -27.496   2.487  25.525  0.00  0.00    +0.013 A 
ATOM     12  C   UNL A   1     -27.819   1.769  24.316  0.00  0.00    +0.058 A 
ATOM     13  C   UNL A   1     -27.102   0.636  24.016  0.00  0.00    +0.013 A 
ATOM     14  C   UNL A   1     -26.098   0.153  24.839  0.00  0.00    +0.016 A 
ATOM     15 CL   UNL A   1     -29.089   2.406  23.374  0.00  0.00    -0.082 Cl
ENDBRANCH   4   9
BRANCH   6  16
ATOM     16  C   UNL A   1     -25.165  -0.390  29.904  0.00  0.00    -0.004 A 
ATOM     17  C   UNL A   1     -26.305   0.215  29.551  0.00  0.00    +0.017 A 
ATOM     18  C   UNL A   1     -26.861   1.240  30.482  0.00  0.00    +0.099 A 
ATOM     19  N   UNL A   1     -26.371   1.603  31.347  0.00  0.00    -0.242 NA
ATOM     20  C   UNL A   1     -25.169   1.069  31.855  0.00  0.00    +0.099 A 
ATOM     21  C   UNL A   1     -24.552   0.097  31.020  0.00  0.00    +0.017 A 
ENDBRANCH   6  16
BRANCH   6  22
ATOM     22  C   UNL A   1     -24.781  -2.696  28.908  0.00  0.00    -0.007 A 
ATOM     23  C   UNL A   1     -23.980  -3.531  28.436  0.00  0.00    -0.003 A 
ATOM     24  C   UNL A   1     -25.992  -3.181  29.618  0.00  0.00    -0.003 A 
ATOM     25  C   UNL A   1     -24.007  -4.658  28.530  0.00  0.00    -0.000 A 
ATOM     26  C   UNL A   1     -26.079  -4.570  29.728  0.00  0.00    -0.000 A 
ATOM     27  C   UNL A   1     -25.105  -5.364  29.202  0.00  0.00    -0.000 A 
ENDBRANCH   6  22
TORSDOF 3
ENDMDL
ENDMDL
