MODEL 1353
MODEL 1
REMARK VINA RESULT:    -5.865      0.000      0.000
REMARK INTER + INTRA:          -6.393
REMARK INTER:                  -6.208
REMARK INTRA:                  -0.185
REMARK UNBOUND:                -0.185
REMARK  Name = No_1353-gen_results/8p0m/2024-11-26-14-13-15/
REMARK  1 active torsions:
REMARK  status: ('A' for Active; 'I' for Inactive)
REMARK    1  A    between atoms: C_1  and  N_10
REMARK                            x       y       z     vdW  Elec       q    Type
REMARK                         _______ _______ _______ _____ _____    ______ ____
ROOT
ATOM      1  C   UNL A   1     -25.078  -2.567  30.151  0.00  0.00    +0.095 C 
ATOM      2  C   UNL A   1     -24.572  -1.737  29.432  0.00  0.00    -0.024 C 
ATOM      3  C   UNL A   1     -23.249  -1.331  29.491  0.00  0.00    +0.028 C 
ATOM      4  C   UNL A   1     -22.640  -0.287  28.702  0.00  0.00    +0.026 C 
ATOM      5  C   UNL A   1     -23.440   0.405  27.763  0.00  0.00    -0.048 C 
ATOM      6  C   UNL A   1     -22.959   1.465  26.959  0.00  0.00    -0.034 C 
ATOM      7  C   UNL A   1     -21.635   1.888  27.372  0.00  0.00    +0.030 C 
ATOM      8  C   UNL A   1     -25.422  -0.943  28.426  0.00  0.00    +0.028 C 
ATOM      9  C   UNL A   1     -24.895   0.056  27.622  0.00  0.00    +0.026 C 
ENDROOT
BRANCH   1  10
ATOM     10  N   UNL A   1     -25.573  -3.721  29.469  0.00  0.00    -0.192 NA
ATOM     11  C   UNL A   1     -24.793  -4.672  28.916  0.00  0.00    +0.366 C 
ATOM     12  F   UNL A   1     -23.570  -4.502  28.836  0.00  0.00    -0.150 F 
ATOM     13  F   UNL A   1     -24.999  -5.897  29.499  0.00  0.00    -0.150 F 
ENDBRANCH   1  10
TORSDOF 1
ENDMDL
ENDMDL
