REMARK  Name = No_1353-gen_results/8p0m/2024-11-26-14-13-15/
REMARK  1 active torsions:
REMARK  status: ('A' for Active; 'I' for Inactive)
REMARK    1  A    between atoms: C_1  and  N_10
REMARK                            x       y       z     vdW  Elec       q    Type
REMARK                         _______ _______ _______ _____ _____    ______ ____
ROOT
ATOM      1  C   UNL A   1     -28.016  -0.814  28.878  0.00  0.00    +0.095 C 
ATOM      2  C   UNL A   1     -27.064  -0.119  28.608  0.00  0.00    -0.024 C 
ATOM      3  C   UNL A   1     -26.972   0.714  27.506  0.00  0.00    +0.028 C 
ATOM      4  C   UNL A   1     -25.820   1.491  27.116  0.00  0.00    +0.026 C 
ATOM      5  C   UNL A   1     -24.656   1.424  27.918  0.00  0.00    -0.048 C 
ATOM      6  C   UNL A   1     -23.460   2.116  27.616  0.00  0.00    -0.034 C 
ATOM      7  C   UNL A   1     -23.507   2.708  26.294  0.00  0.00    +0.030 C 
ATOM      8  C   UNL A   1     -25.773  -0.195  29.440  0.00  0.00    +0.028 C 
ATOM      9  C   UNL A   1     -24.639   0.541  29.134  0.00  0.00    +0.026 C 
ENDROOT
BRANCH   1  10
ATOM     10  N   UNL A   1     -28.650  -0.498  30.119  0.00  0.00    -0.192 NA
ATOM     11  C   UNL A   1     -29.622  -1.239  30.688  0.00  0.00    +0.366 C 
ATOM     12  F   UNL A   1     -30.135  -2.175  30.062  0.00  0.00    -0.150 F 
ATOM     13  F   UNL A   1     -29.236  -1.726  31.911  0.00  0.00    -0.150 F 
ENDBRANCH   1  10
TORSDOF 1
