REMARK  Name = No_1354-gen_results/8p0m/2024-11-26-14-13-15/
REMARK  2 active torsions:
REMARK  status: ('A' for Active; 'I' for Inactive)
REMARK    1  A    between atoms: C_1  and  C_2
REMARK    2  A    between atoms: C_1  and  N_8
REMARK                            x       y       z     vdW  Elec       q    Type
REMARK                         _______ _______ _______ _____ _____    ______ ____
ROOT
ATOM      1  C   UNL A   1     -27.064  -0.119  28.608  0.00  0.00    -0.001 A 
ATOM      2  C   UNL A   1     -27.001   0.691  27.491  0.00  0.00    -0.003 A 
ATOM      3  C   UNL A   1     -25.855   1.482  27.083  0.00  0.00    -0.000 A 
ATOM      4  C   UNL A   1     -24.690   1.453  27.881  0.00  0.00    -0.000 A 
ATOM      5  C   UNL A   1     -24.738   0.601  29.042  0.00  0.00    -0.000 A 
ATOM      6  C   UNL A   1     -25.823  -0.169  29.389  0.00  0.00    -0.003 A 
ENDROOT
BRANCH   1   7
ATOM      7  C   UNL A   1     -28.016  -0.814  28.878  0.00  0.00    +0.143 C 
BRANCH   7   8
ATOM      8  N   UNL A   1     -29.215  -0.173  29.013  0.00  0.00    -0.187 NA
ATOM      9  C   UNL A   1     -29.720   0.547  28.324  0.00  0.00    +0.326 C 
ATOM     10 CL   UNL A   1     -31.277   1.150  28.588  0.00  0.00    -0.021 Cl
ATOM     11  O   UNL A   1     -29.163   1.158  27.301  0.00  0.00    -0.255 OA
ENDBRANCH   7   8
ENDBRANCH   1   7
TORSDOF 2
