MODEL 1354
MODEL 1
REMARK VINA RESULT:    -5.366      0.000      0.000
REMARK INTER + INTRA:          -6.133
REMARK INTER:                  -5.993
REMARK INTRA:                  -0.139
REMARK UNBOUND:                -0.139
REMARK  Name = No_1354-gen_results/8p0m/2024-11-26-14-13-15/
REMARK  2 active torsions:
REMARK  status: ('A' for Active; 'I' for Inactive)
REMARK    1  A    between atoms: C_1  and  C_2
REMARK    2  A    between atoms: C_1  and  N_8
REMARK                            x       y       z     vdW  Elec       q    Type
REMARK                         _______ _______ _______ _____ _____    ______ ____
ROOT
ATOM      1  C   UNL A   1     -24.739  -2.482  29.131  0.00  0.00    -0.001 A 
ATOM      2  C   UNL A   1     -23.896  -3.453  28.626  0.00  0.00    -0.003 A 
ATOM      3  C   UNL A   1     -24.149  -4.882  28.636  0.00  0.00    -0.000 A 
ATOM      4  C   UNL A   1     -25.347  -5.356  29.216  0.00  0.00    -0.000 A 
ATOM      5  C   UNL A   1     -26.241  -4.352  29.735  0.00  0.00    -0.000 A 
ATOM      6  C   UNL A   1     -25.997  -3.000  29.680  0.00  0.00    -0.003 A 
ENDROOT
BRANCH   1   7
ATOM      7  C   UNL A   1     -24.521  -1.296  29.044  0.00  0.00    +0.143 C 
BRANCH   7   8
ATOM      8  N   UNL A   1     -23.259  -0.938  28.663  0.00  0.00    -0.187 NA
ATOM      9  C   UNL A   1     -22.546  -0.222  29.140  0.00  0.00    +0.326 C 
ATOM     10 CL   UNL A   1     -20.959   0.006  28.604  0.00  0.00    -0.021 Cl
ATOM     11  O   UNL A   1     -22.842   0.657  30.073  0.00  0.00    -0.255 OA
ENDBRANCH   7   8
ENDBRANCH   1   7
TORSDOF 2
ENDMDL
ENDMDL
