MODEL 1355
MODEL 1
REMARK VINA RESULT:    -6.477      0.000      0.000
REMARK INTER + INTRA:          -7.739
REMARK INTER:                  -7.234
REMARK INTRA:                  -0.505
REMARK UNBOUND:                -0.505
REMARK  Name = No_1355-gen_results/8p0m/2024-11-26-14-13-15/
REMARK  2 active torsions:
REMARK  status: ('A' for Active; 'I' for Inactive)
REMARK    1  A    between atoms: C_4  and  C_7
REMARK    2  A    between atoms: C_7  and  C_8
REMARK                            x       y       z     vdW  Elec       q    Type
REMARK                         _______ _______ _______ _____ _____    ______ ____
ROOT
ATOM      1  C   UNL A   1     -26.317  -4.376  29.672  0.00  0.00    +0.065 C 
ATOM      2  C   UNL A   1     -25.576  -5.012  29.278  0.00  0.00    +0.008 C 
ATOM      3  C   UNL A   1     -25.936  -2.969  29.877  0.00  0.00    +0.151 C 
ATOM      4  C   UNL A   1     -24.674  -2.486  29.426  0.00  0.00    +0.062 C 
ATOM      5  C   UNL A   1     -23.834  -3.422  28.875  0.00  0.00    +0.008 C 
ATOM      6  C   UNL A   1     -24.226  -4.706  28.734  0.00  0.00    +0.001 C 
ATOM      7  O   UNL A   1     -26.739  -2.033  30.461  0.00  0.00    -0.296 OA
ENDROOT
BRANCH   4   8
ATOM      8  C   UNL A   1     -24.299  -1.096  29.608  0.00  0.00    +0.034 C 
BRANCH   8   9
ATOM      9  C   UNL A   1     -24.082  -0.344  28.434  0.00  0.00    -0.022 A 
ATOM     10  C   UNL A   1     -24.962  -0.394  27.344  0.00  0.00    -0.004 A 
ATOM     11  C   UNL A   1     -24.850   0.456  26.281  0.00  0.00    -0.000 A 
ATOM     12  C   UNL A   1     -22.912   0.457  28.245  0.00  0.00    -0.004 A 
ATOM     13  C   UNL A   1     -22.809   1.433  27.262  0.00  0.00    -0.000 A 
ATOM     14  C   UNL A   1     -23.790   1.414  26.201  0.00  0.00    -0.000 A 
ENDBRANCH   8   9
ENDBRANCH   4   8
TORSDOF 2
ENDMDL
ENDMDL
