MODEL 1356
MODEL 1
REMARK VINA RESULT:    -5.292      0.000      0.000
REMARK INTER + INTRA:          -5.751
REMARK INTER:                  -5.602
REMARK INTRA:                  -0.149
REMARK UNBOUND:                -0.149
REMARK  Name = No_1356-gen_results/8p0m/2024-11-26-14-13-15/
REMARK  1 active torsions:
REMARK  status: ('A' for Active; 'I' for Inactive)
REMARK    1  A    between atoms: C_4  and  C_7
REMARK                            x       y       z     vdW  Elec       q    Type
REMARK                         _______ _______ _______ _____ _____    ______ ____
ROOT
ATOM      1  C   UNL A   1     -26.629  -3.979  29.858  0.00  0.00    -0.000 A 
ATOM      2  C   UNL A   1     -26.120  -4.877  29.642  0.00  0.00    -0.000 A 
ATOM      3  C   UNL A   1     -25.851  -2.710  29.589  0.00  0.00    -0.000 A 
ATOM      4  C   UNL A   1     -24.596  -2.791  28.951  0.00  0.00    -0.000 A 
ATOM      5  C   UNL A   1     -24.856  -5.231  28.958  0.00  0.00    -0.000 A 
ATOM      6  C   UNL A   1     -24.116  -4.088  28.688  0.00  0.00    -0.000 A 
ENDROOT
BRANCH   4   7
ATOM      7  C   UNL A   1     -23.812  -1.632  28.689  0.00  0.00    -0.005 C 
ATOM      8  C   UNL A   1     -22.780  -1.312  29.350  0.00  0.00    -0.026 C 
ATOM      9  C   UNL A   1     -21.902  -0.187  28.982  0.00  0.00    +0.031 C 
ENDBRANCH   4   7
TORSDOF 1
ENDMDL
ENDMDL
