MODEL 1357
MODEL 1
REMARK VINA RESULT:    -6.725      0.000      0.000
REMARK INTER + INTRA:          -7.959
REMARK INTER:                  -7.511
REMARK INTRA:                  -0.447
REMARK UNBOUND:                -0.447
REMARK  Name = No_1357-gen_results/8p0m/2024-11-26-14-13-15/
REMARK  2 active torsions:
REMARK  status: ('A' for Active; 'I' for Inactive)
REMARK    1  A    between atoms: C_5  and  N_14
REMARK    2  A    between atoms: C_7  and  C_8
REMARK                            x       y       z     vdW  Elec       q    Type
REMARK                         _______ _______ _______ _____ _____    ______ ____
ROOT
ATOM      1  F   UNL A   1     -23.464  -4.464  28.485  0.00  0.00    -0.204 F 
ATOM      2  C   UNL A   1     -24.453  -4.043  28.882  0.00  0.00    +0.140 A 
ATOM      3  C   UNL A   1     -25.342  -4.916  29.205  0.00  0.00    +0.031 A 
ATOM      4  C   UNL A   1     -26.668  -4.600  29.786  0.00  0.00    +0.025 A 
ATOM      5  C   UNL A   1     -26.913  -3.196  29.991  0.00  0.00    +0.124 A 
ATOM      6  C   UNL A   1     -25.902  -2.325  29.657  0.00  0.00    +0.025 A 
ATOM      7  C   UNL A   1     -24.699  -2.719  29.151  0.00  0.00    +0.029 A 
ENDROOT
BRANCH   7   8
ATOM      8  C   UNL A   1     -23.715  -1.692  28.881  0.00  0.00    +0.002 A 
ATOM      9  C   UNL A   1     -22.787  -1.462  29.213  0.00  0.00    +0.000 A 
ATOM     10  C   UNL A   1     -21.900  -0.300  28.961  0.00  0.00    +0.000 A 
ATOM     11  C   UNL A   1     -22.495   0.634  28.093  0.00  0.00    +0.000 A 
ATOM     12  C   UNL A   1     -23.775   0.500  27.592  0.00  0.00    +0.000 A 
ATOM     13  C   UNL A   1     -24.480  -0.642  27.906  0.00  0.00    +0.000 A 
ENDBRANCH   7   8
BRANCH   5  14
ATOM     14  N   UNL A   1     -28.131  -2.838  30.470  0.00  0.00    -0.029 NA
ATOM     15  O   UNL A   1     -29.151  -2.566  30.241  0.00  0.00    -0.143 OA
ENDBRANCH   5  14
TORSDOF 2
ENDMDL
ENDMDL
