REMARK  Name = No_1358-gen_results/8p0m/2024-11-26-14-13-15/
REMARK  2 active torsions:
REMARK  status: ('A' for Active; 'I' for Inactive)
REMARK    1  A    between atoms: C_5  and  C_6
REMARK    2  A    between atoms: C_10  and  C_11
REMARK                            x       y       z     vdW  Elec       q    Type
REMARK                         _______ _______ _______ _____ _____    ______ ____
ROOT
ATOM      1  O   UNL A   1     -28.123  -1.335  28.487  0.00  0.00    -0.272 OA
ATOM      2  C   UNL A   1     -27.481  -0.404  28.709  0.00  0.00    +0.259 C 
ATOM      3  C   UNL A   1     -27.190   0.246  29.527  0.00  0.00    +0.169 C 
ATOM      4  N   UNL A   1     -26.602  -0.158  27.552  0.00  0.00    -0.202 NA
ATOM      5  C   UNL A   1     -25.642   0.903  27.582  0.00  0.00    +0.117 C 
ATOM      6  C   UNL A   1     -25.474   1.619  28.825  0.00  0.00    +0.028 C 
ATOM      7  N   UNL A   1     -27.994  -0.022  30.836  0.00  0.00    -0.123 NA
ATOM      8  C   UNL A   1     -26.277   1.331  29.888  0.00  0.00    +0.030 C 
ENDROOT
BRANCH   5   9
ATOM      9  C   UNL A   1     -24.641   1.099  26.616  0.00  0.00    -0.009 C 
ATOM     10  C   UNL A   1     -23.738   1.558  26.612  0.00  0.00    -0.029 C 
BRANCH  10  11
ATOM     11  C   UNL A   1     -23.329   2.381  27.886  0.00  0.00    +0.026 C 
ATOM     12  C   UNL A   1     -24.238   2.387  28.897  0.00  0.00    +0.005 C 
ENDBRANCH  10  11
ENDBRANCH   5   9
TORSDOF 2
