REMARK  Name = No_1359-gen_results/8p0m/2024-11-26-14-13-15/
REMARK  7 active torsions:
REMARK  status: ('A' for Active; 'I' for Inactive)
REMARK    1  A    between atoms: C_1  and  C_2
REMARK    2  A    between atoms: C_1  and  N_8
REMARK    3  A    between atoms: C_5  and  C_12
REMARK    4  A    between atoms: C_9  and  C_10
REMARK    5  A    between atoms: C_17  and  C_20
REMARK    6  A    between atoms: C_23  and  C_26
REMARK    7  A    between atoms: C_29  and  C_32
REMARK                            x       y       z     vdW  Elec       q    Type
REMARK                         _______ _______ _______ _____ _____    ______ ____
ROOT
ATOM      1  C   UNL A   1     -30.377  -1.047  31.741  0.00  0.00    +0.055 A 
ATOM      2  C   UNL A   1     -31.343  -1.596  32.140  0.00  0.00    +0.005 A 
ATOM      3  C   UNL A   1     -32.121  -1.476  33.283  0.00  0.00    +0.000 A 
ATOM      4  C   UNL A   1     -31.566  -0.400  34.138  0.00  0.00    +0.000 A 
ATOM      5  C   UNL A   1     -30.436   0.284  33.785  0.00  0.00    +0.000 A 
ATOM      6  C   UNL A   1     -29.821   0.009  32.640  0.00  0.00    +0.005 A 
ENDROOT
BRANCH   4   7
ATOM      7  C   UNL A   1     -32.273  -0.098  35.438  0.00  0.00    +0.000 A 
ATOM      8  C   UNL A   1     -32.353   0.878  35.863  0.00  0.00    -0.000 A 
ATOM      9  C   UNL A   1     -33.096   1.235  37.093  0.00  0.00    -0.000 A 
ATOM     10  C   UNL A   1     -33.782   0.143  37.676  0.00  0.00    -0.000 A 
ATOM     11  C   UNL A   1     -33.671  -1.078  37.118  0.00  0.00    -0.000 A 
ATOM     12  C   UNL A   1     -32.922  -1.319  35.939  0.00  0.00    -0.000 A 
BRANCH  10  13
ATOM     13  C   UNL A   1     -34.558   0.371  38.906  0.00  0.00    -0.004 A 
ATOM     14  C   UNL A   1     -35.544   0.268  39.283  0.00  0.00    -0.022 A 
ATOM     15  C   UNL A   1     -36.119   0.543  40.577  0.00  0.00    +0.002 A 
ATOM     16  C   UNL A   1     -35.276   1.076  41.534  0.00  0.00    +0.080 A 
ATOM     17  C   UNL A   1     -33.967   1.284  41.203  0.00  0.00    +0.007 A 
ATOM     18  C   UNL A   1     -33.483   1.017  39.939  0.00  0.00    -0.000 A 
ATOM     19  C   UNL A   1     -36.703  -0.278  38.410  0.00  0.00    +0.031 C 
BRANCH  16  20
ATOM     20  C   UNL A   1     -35.790   1.381  42.876  0.00  0.00    +0.388 C 
ATOM     21  O   UNL A   1     -36.658   1.198  43.375  0.00  0.00    -0.241 OA
ATOM     22  O   UNL A   1     -34.902   2.310  43.428  0.00  0.00    -0.241 OA
ENDBRANCH  16  20
ENDBRANCH  10  13
ENDBRANCH   4   7
BRANCH   1  24
ATOM     23  N   UNL A   1     -28.700  -0.644  30.077  0.00  0.00    -0.197 NA
ATOM     24  C   UNL A   1     -29.803  -1.365  30.506  0.00  0.00    +0.265 C 
ATOM     25  O   UNL A   1     -30.296  -2.297  29.914  0.00  0.00    -0.268 OA
BRANCH  23  26
ATOM     26  C   UNL A   1     -28.016  -0.814  28.878  0.00  0.00    +0.142 C 
BRANCH  26  27
ATOM     27  C   UNL A   1     -27.064  -0.119  28.608  0.00  0.00    -0.001 A 
ATOM     28  C   UNL A   1     -26.929   1.171  29.008  0.00  0.00    -0.002 A 
ATOM     29  C   UNL A   1     -25.770   2.034  28.688  0.00  0.00    +0.005 A 
ATOM     30  C   UNL A   1     -24.714   1.443  27.919  0.00  0.00    +0.059 A 
ATOM     31  C   UNL A   1     -24.859   0.078  27.584  0.00  0.00    +0.005 A 
ATOM     32  C   UNL A   1     -25.965  -0.661  27.916  0.00  0.00    -0.002 A 
BRANCH  30  33
ATOM     33  C   UNL A   1     -23.541   2.180  27.565  0.00  0.00    +0.297 C 
ATOM     34  N   UNL A   1     -22.445   1.689  27.149  0.00  0.00    -0.102 NA
ATOM     35  O   UNL A   1     -23.497   3.428  27.887  0.00  0.00    -0.264 OA
ENDBRANCH  30  33
ENDBRANCH  26  27
ENDBRANCH  23  26
ENDBRANCH   1  24
TORSDOF 7
