MODEL 1359
MODEL 1
REMARK VINA RESULT:    -9.104      0.000      0.000
REMARK INTER + INTRA:         -14.132
REMARK INTER:                 -12.829
REMARK INTRA:                  -1.303
REMARK UNBOUND:                -1.303
REMARK  Name = No_1359-gen_results/8p0m/2024-11-26-14-13-15/
REMARK  7 active torsions:
REMARK  status: ('A' for Active; 'I' for Inactive)
REMARK    1  A    between atoms: C_1  and  C_2
REMARK    2  A    between atoms: C_1  and  N_8
REMARK    3  A    between atoms: C_5  and  C_12
REMARK    4  A    between atoms: C_9  and  C_10
REMARK    5  A    between atoms: C_17  and  C_20
REMARK    6  A    between atoms: C_23  and  C_26
REMARK    7  A    between atoms: C_29  and  C_32
REMARK                            x       y       z     vdW  Elec       q    Type
REMARK                         _______ _______ _______ _____ _____    ______ ____
ROOT
ATOM      1  C   UNL A   1      -4.732  -1.043  34.927  0.00  0.00    +0.055 A 
ATOM      2  C   UNL A   1      -5.034   0.028  35.322  0.00  0.00    +0.005 A 
ATOM      3  C   UNL A   1      -6.243   0.674  35.539  0.00  0.00    +0.000 A 
ATOM      4  C   UNL A   1      -7.354  -0.243  35.186  0.00  0.00    +0.000 A 
ATOM      5  C   UNL A   1      -7.118  -1.497  34.695  0.00  0.00    +0.000 A 
ATOM      6  C   UNL A   1      -5.872  -1.932  34.547  0.00  0.00    +0.005 A 
ENDROOT
BRANCH   4   7
ATOM      7  C   UNL A   1      -8.766   0.264  35.356  0.00  0.00    +0.000 A 
ATOM      8  C   UNL A   1      -9.430  -0.063  36.125  0.00  0.00    -0.000 A 
ATOM      9  C   UNL A   1     -10.794   0.455  36.378  0.00  0.00    -0.000 A 
ATOM     10  C   UNL A   1     -11.164   1.516  35.517  0.00  0.00    -0.000 A 
ATOM     11  C   UNL A   1     -10.306   1.916  34.558  0.00  0.00    -0.000 A 
ATOM     12  C   UNL A   1      -9.020   1.344  34.391  0.00  0.00    -0.000 A 
BRANCH  10  13
ATOM     13  C   UNL A   1     -12.499   2.117  35.669  0.00  0.00    -0.004 A 
ATOM     14  C   UNL A   1     -13.346   2.388  35.090  0.00  0.00    -0.022 A 
ATOM     15  C   UNL A   1     -14.615   2.972  35.447  0.00  0.00    +0.002 A 
ATOM     16  C   UNL A   1     -14.803   3.291  36.779  0.00  0.00    +0.080 A 
ATOM     17  C   UNL A   1     -13.797   3.015  37.661  0.00  0.00    +0.007 A 
ATOM     18  C   UNL A   1     -12.597   2.472  37.251  0.00  0.00    -0.000 A 
ATOM     19  C   UNL A   1     -13.394   2.171  33.556  0.00  0.00    +0.031 C 
BRANCH  16  20
ATOM     20  C   UNL A   1     -16.072   3.888  37.218  0.00  0.00    +0.388 C 
ATOM     21  O   UNL A   1     -16.534   4.022  38.115  0.00  0.00    -0.241 OA
ATOM     22  O   UNL A   1     -16.825   4.093  36.058  0.00  0.00    -0.241 OA
ENDBRANCH  16  20
ENDBRANCH  10  13
ENDBRANCH   4   7
BRANCH   1  24
ATOM     23  N   UNL A   1      -2.559  -0.778  33.953  0.00  0.00    -0.197 NA
ATOM     24  C   UNL A   1      -3.397  -1.447  34.831  0.00  0.00    +0.265 C 
ATOM     25  O   UNL A   1      -3.056  -2.339  35.573  0.00  0.00    -0.268 OA
BRANCH  23  26
ATOM     26  C   UNL A   1      -1.215  -1.053  33.721  0.00  0.00    +0.142 C 
BRANCH  26  27
ATOM     27  C   UNL A   1      -0.865  -1.594  32.698  0.00  0.00    -0.001 A 
ATOM     28  C   UNL A   1      -0.095  -2.711  32.655  0.00  0.00    -0.002 A 
ATOM     29  C   UNL A   1       0.340  -3.386  31.412  0.00  0.00    +0.005 A 
ATOM     30  C   UNL A   1      -0.111  -2.820  30.175  0.00  0.00    +0.059 A 
ATOM     31  C   UNL A   1      -0.970  -1.702  30.263  0.00  0.00    +0.005 A 
ATOM     32  C   UNL A   1      -1.332  -1.128  31.455  0.00  0.00    -0.002 A 
BRANCH  30  33
ATOM     33  C   UNL A   1       0.236  -3.399  28.914  0.00  0.00    +0.297 C 
ATOM     34  N   UNL A   1       1.337  -3.246  28.298  0.00  0.00    -0.102 NA
ATOM     35  O   UNL A   1      -0.705  -3.952  28.228  0.00  0.00    -0.264 OA
ENDBRANCH  30  33
ENDBRANCH  26  27
ENDBRANCH  23  26
ENDBRANCH   1  24
TORSDOF 7
ENDMDL
ENDMDL
