MODEL 135
MODEL 1
REMARK VINA RESULT:    -6.662      0.000      0.000
REMARK INTER + INTRA:          -7.776
REMARK INTER:                  -7.441
REMARK INTRA:                  -0.335
REMARK UNBOUND:                -0.335
REMARK  Name = No_135-gen_results/8p0m/2024-11-26-14-13-15/
REMARK  2 active torsions:
REMARK  status: ('A' for Active; 'I' for Inactive)
REMARK    1  A    between atoms: C_2  and  C_7
REMARK    2  A    between atoms: N_8  and  C_10
REMARK                            x       y       z     vdW  Elec       q    Type
REMARK                         _______ _______ _______ _____ _____    ______ ____
ROOT
ATOM      1  C   UNL A   1     -24.051  -0.726  28.630  0.00  0.00    +0.269 C 
ATOM      2  N   UNL A   1     -24.539  -1.694  28.161  0.00  0.00    -0.175 NA
ATOM      3  O   UNL A   1     -23.610  -0.678  29.898  0.00  0.00    -0.268 OA
ENDROOT
BRANCH   1   5
ATOM      4  C   UNL A   1     -24.226   0.580  26.907  0.00  0.00    +0.005 A 
ATOM      5  C   UNL A   1     -23.525   0.424  27.678  0.00  0.00    +0.055 A 
ATOM      6  C   UNL A   1     -23.891   1.693  25.940  0.00  0.00    +0.000 A 
ATOM      7  C   UNL A   1     -22.639   2.337  26.033  0.00  0.00    +0.000 A 
ATOM      8  C   UNL A   1     -22.162   0.918  27.977  0.00  0.00    +0.005 A 
ATOM      9  C   UNL A   1     -21.816   1.939  27.104  0.00  0.00    +0.000 A 
ENDBRANCH   1   5
BRANCH   2  10
ATOM     10  C   UNL A   1     -24.880  -2.889  28.934  0.00  0.00    +0.074 A 
ATOM     11  C   UNL A   1     -24.119  -3.857  28.688  0.00  0.00    +0.017 A 
ATOM     12  C   UNL A   1     -24.463  -5.062  28.812  0.00  0.00    +0.001 A 
ATOM     13  C   UNL A   1     -25.715  -5.318  29.556  0.00  0.00    +0.000 A 
ATOM     14  C   UNL A   1     -26.487  -4.253  29.885  0.00  0.00    +0.001 A 
ATOM     15  C   UNL A   1     -26.126  -2.988  29.458  0.00  0.00    +0.017 A 
ENDBRANCH   2  10
TORSDOF 2
ENDMDL
ENDMDL
