MODEL 1360
MODEL 1
REMARK VINA RESULT:    -5.577      0.000      0.000
REMARK INTER + INTRA:          -6.322
REMARK INTER:                  -6.229
REMARK INTRA:                  -0.093
REMARK UNBOUND:                -0.093
REMARK  Name = No_1360-gen_results/8p0m/2024-11-26-14-13-15/
REMARK  2 active torsions:
REMARK  status: ('A' for Active; 'I' for Inactive)
REMARK    1  A    between atoms: C_1  and  C_7
REMARK    2  A    between atoms: C_5  and  C_10
REMARK                            x       y       z     vdW  Elec       q    Type
REMARK                         _______ _______ _______ _____ _____    ______ ____
ROOT
ATOM      1  C   UNL A   1     -26.423  -3.973  29.735  0.00  0.00    +0.080 A 
ATOM      2  C   UNL A   1     -25.961  -5.057  29.464  0.00  0.00    +0.007 A 
ATOM      3  C   UNL A   1     -24.712  -5.238  28.902  0.00  0.00    +0.000 A 
ATOM      4  C   UNL A   1     -23.913  -4.083  28.668  0.00  0.00    +0.007 A 
ATOM      5  C   UNL A   1     -24.402  -2.914  29.143  0.00  0.00    +0.080 A 
ATOM      6  C   UNL A   1     -25.593  -2.842  29.706  0.00  0.00    +0.013 A 
ENDROOT
BRANCH   1   7
ATOM      7  C   UNL A   1     -27.793  -3.871  30.358  0.00  0.00    +0.388 C 
ATOM      8  O   UNL A   1     -28.282  -4.882  30.846  0.00  0.00    -0.241 OA
ATOM      9  O   UNL A   1     -28.503  -2.799  30.259  0.00  0.00    -0.241 OA
ENDBRANCH   1   7
BRANCH   5  10
ATOM     10  C   UNL A   1     -23.543  -1.727  28.924  0.00  0.00    +0.388 C 
ATOM     11  O   UNL A   1     -22.354  -1.628  28.992  0.00  0.00    -0.241 OA
ATOM     12  O   UNL A   1     -24.171  -0.667  28.406  0.00  0.00    -0.241 OA
ENDBRANCH   5  10
TORSDOF 2
ENDMDL
ENDMDL
