MODEL 1361
MODEL 1
REMARK VINA RESULT:    -6.059      0.000      0.000
REMARK INTER + INTRA:          -7.464
REMARK INTER:                  -7.122
REMARK INTRA:                  -0.342
REMARK UNBOUND:                -0.342
REMARK  Name = No_1361-gen_results/8p0m/2024-11-26-14-13-15/
REMARK  3 active torsions:
REMARK  status: ('A' for Active; 'I' for Inactive)
REMARK    1  A    between atoms: C_4  and  C_8
REMARK    2  A    between atoms: C_9  and  C_10
REMARK    3  A    between atoms: C_10  and  C_11
REMARK                            x       y       z     vdW  Elec       q    Type
REMARK                         _______ _______ _______ _____ _____    ______ ____
ROOT
ATOM      1  C   UNL A   1     -26.093  -2.752  30.276  0.00  0.00    +0.005 C 
ATOM      2  C   UNL A   1     -26.559  -3.564  29.792  0.00  0.00    +0.026 C 
ATOM      3  C   UNL A   1     -25.296  -1.912  29.373  0.00  0.00    +0.005 C 
ATOM      4  C   UNL A   1     -24.006  -2.309  29.086  0.00  0.00    +0.026 C 
ATOM      5  C   UNL A   1     -24.032  -3.694  28.619  0.00  0.00    +0.030 C 
ATOM      6  C   UNL A   1     -25.930  -4.942  29.439  0.00  0.00    -0.031 C 
ATOM      7  C   UNL A   1     -24.523  -4.799  29.193  0.00  0.00    -0.030 C 
ENDROOT
BRANCH   4   8
ATOM      8  C   UNL A   1     -22.959  -1.482  29.191  0.00  0.00    -0.030 C 
ATOM      9  C   UNL A   1     -22.651  -0.521  28.787  0.00  0.00    -0.026 C 
BRANCH   9  10
ATOM     10  C   UNL A   1     -22.429   0.466  28.787  0.00  0.00    +0.051 C 
BRANCH  10  11
ATOM     11  C   UNL A   1     -21.775   1.139  27.700  0.00  0.00    -0.026 C 
ATOM     12  C   UNL A   1     -22.470   2.014  26.877  0.00  0.00    -0.030 C 
ATOM     13  C   UNL A   1     -23.845   2.101  27.171  0.00  0.00    +0.030 C 
ENDBRANCH  10  11
ENDBRANCH   9  10
ENDBRANCH   4   8
TORSDOF 3
ENDMDL
ENDMDL
