REMARK  Name = No_1362-gen_results/8p0m/2024-11-26-14-13-15/
REMARK  7 active torsions:
REMARK  status: ('A' for Active; 'I' for Inactive)
REMARK    1  A    between atoms: C_1  and  C_2
REMARK    2  A    between atoms: C_1  and  C_6
REMARK    3  A    between atoms: C_2  and  C_4
REMARK    4  A    between atoms: C_4  and  C_5
REMARK    5  A    between atoms: C_15  and  C_17
REMARK    6  A    between atoms: N_19  and  C_20
REMARK    7  A    between atoms: C_20  and  C_21
REMARK                            x       y       z     vdW  Elec       q    Type
REMARK                         _______ _______ _______ _____ _____    ______ ____
ROOT
ATOM      1  C   UNL A   1     -28.753  -1.074  30.038  0.00  0.00    -0.019 A 
ATOM      2  C   UNL A   1     -28.355  -0.846  30.928  0.00  0.00    -0.004 A 
ATOM      3  C   UNL A   1     -29.121  -1.070  32.320  0.00  0.00    -0.000 A 
ATOM      4  C   UNL A   1     -30.307  -1.705  32.180  0.00  0.00    +0.004 A 
ATOM      5  C   UNL A   1     -30.769  -2.058  30.933  0.00  0.00    +0.055 A 
ATOM      6  C   UNL A   1     -30.004  -1.799  29.869  0.00  0.00    +0.000 A 
ENDROOT
BRANCH   5   7
ATOM      7  C   UNL A   1     -32.055  -2.763  30.816  0.00  0.00    +0.265 C 
ATOM      8  O   UNL A   1     -32.361  -3.482  30.136  0.00  0.00    -0.268 OA
ATOM      9  N   UNL A   1     -33.163  -2.054  31.493  0.00  0.00    -0.197 NA
BRANCH   9  10
ATOM     10  C   UNL A   1     -34.459  -2.529  31.384  0.00  0.00    +0.141 C 
BRANCH  10  11
ATOM     11  C   UNL A   1     -35.221  -1.740  30.544  0.00  0.00    -0.003 C 
ATOM     12  C   UNL A   1     -36.278  -2.116  30.050  0.00  0.00    -0.003 C 
ENDBRANCH  10  11
ENDBRANCH   9  10
ENDBRANCH   5   7
BRANCH   1  13
ATOM     13  C   UNL A   1     -28.016  -0.814  28.878  0.00  0.00    +0.062 C 
BRANCH  13  14
ATOM     14  C   UNL A   1     -27.064  -0.119  28.608  0.00  0.00    +0.170 C 
ATOM     15  F   UNL A   1     -27.079   0.985  29.174  0.00  0.00    -0.237 F 
BRANCH  14  16
ATOM     16  C   UNL A   1     -25.996  -0.389  27.694  0.00  0.00    +0.062 C 
BRANCH  16  17
ATOM     17  C   UNL A   1     -24.695   0.206  28.010  0.00  0.00    -0.019 A 
ATOM     18  C   UNL A   1     -23.812  -0.491  28.801  0.00  0.00    -0.004 A 
ATOM     19  C   UNL A   1     -22.544   0.130  29.151  0.00  0.00    -0.000 A 
ATOM     20  C   UNL A   1     -22.226   1.332  28.512  0.00  0.00    -0.000 A 
ATOM     21  C   UNL A   1     -24.134   1.397  27.439  0.00  0.00    -0.004 A 
ATOM     22  C   UNL A   1     -22.967   1.960  27.654  0.00  0.00    -0.000 A 
ENDBRANCH  16  17
ENDBRANCH  14  16
ENDBRANCH  13  14
ENDBRANCH   1  13
TORSDOF 7
