MODEL 1362
MODEL 1
REMARK VINA RESULT:    -7.114      0.000      0.000
REMARK INTER + INTRA:         -11.359
REMARK INTER:                 -10.026
REMARK INTRA:                  -1.333
REMARK UNBOUND:                -1.333
REMARK  Name = No_1362-gen_results/8p0m/2024-11-26-14-13-15/
REMARK  7 active torsions:
REMARK  status: ('A' for Active; 'I' for Inactive)
REMARK    1  A    between atoms: C_1  and  C_2
REMARK    2  A    between atoms: C_1  and  C_6
REMARK    3  A    between atoms: C_2  and  C_4
REMARK    4  A    between atoms: C_4  and  C_5
REMARK    5  A    between atoms: C_15  and  C_17
REMARK    6  A    between atoms: N_19  and  C_20
REMARK    7  A    between atoms: C_20  and  C_21
REMARK                            x       y       z     vdW  Elec       q    Type
REMARK                         _______ _______ _______ _____ _____    ______ ____
ROOT
ATOM      1  C   UNL A   1     -22.444   1.665  27.651  0.00  0.00    -0.019 A 
ATOM      2  C   UNL A   1     -21.460   1.558  27.503  0.00  0.00    -0.004 A 
ATOM      3  C   UNL A   1     -20.588   0.395  28.183  0.00  0.00    -0.000 A 
ATOM      4  C   UNL A   1     -21.334  -0.494  28.878  0.00  0.00    +0.004 A 
ATOM      5  C   UNL A   1     -22.696  -0.332  28.985  0.00  0.00    +0.055 A 
ATOM      6  C   UNL A   1     -23.271   0.695  28.354  0.00  0.00    +0.000 A 
ENDROOT
BRANCH   5   7
ATOM      7  C   UNL A   1     -23.481  -1.326  29.734  0.00  0.00    +0.265 C 
ATOM      8  O   UNL A   1     -23.479  -1.553  30.744  0.00  0.00    -0.268 OA
ATOM      9  N   UNL A   1     -24.026  -2.397  28.871  0.00  0.00    -0.197 NA
BRANCH   9  10
ATOM     10  C   UNL A   1     -24.696  -3.469  29.435  0.00  0.00    +0.141 C 
BRANCH  10  11
ATOM     11  C   UNL A   1     -24.223  -4.675  28.955  0.00  0.00    -0.003 C 
ATOM     12  C   UNL A   1     -24.925  -5.674  28.850  0.00  0.00    -0.003 C 
ENDBRANCH  10  11
ENDBRANCH   9  10
ENDBRANCH   5   7
BRANCH   1  13
ATOM     13  C   UNL A   1     -23.111   2.730  27.036  0.00  0.00    +0.062 C 
BRANCH  13  14
ATOM     14  C   UNL A   1     -23.817   2.848  26.061  0.00  0.00    +0.170 C 
ATOM     15  F   UNL A   1     -23.188   2.869  24.992  0.00  0.00    -0.237 F 
BRANCH  14  16
ATOM     16  C   UNL A   1     -25.236   3.026  26.008  0.00  0.00    +0.062 C 
BRANCH  16  17
ATOM     17  C   UNL A   1     -26.016   1.914  25.458  0.00  0.00    -0.019 A 
ATOM     18  C   UNL A   1     -27.233   2.173  24.872  0.00  0.00    -0.004 A 
ATOM     19  C   UNL A   1     -28.023   1.057  24.375  0.00  0.00    -0.000 A 
ATOM     20  C   UNL A   1     -27.413  -0.200  24.365  0.00  0.00    -0.000 A 
ATOM     21  C   UNL A   1     -25.580   0.557  25.294  0.00  0.00    -0.004 A 
ATOM     22  C   UNL A   1     -26.216  -0.471  24.781  0.00  0.00    -0.000 A 
ENDBRANCH  16  17
ENDBRANCH  14  16
ENDBRANCH  13  14
ENDBRANCH   1  13
TORSDOF 7
ENDMDL
ENDMDL
