REMARK  Name = No_1363-gen_results/8p0m/2024-11-26-14-13-15/
REMARK  6 active torsions:
REMARK  status: ('A' for Active; 'I' for Inactive)
REMARK    1  A    between atoms: C_3  and  C_7
REMARK    2  A    between atoms: C_6  and  C_13
REMARK    3  A    between atoms: C_16  and  C_17
REMARK    4  A    between atoms: C_20  and  N_24
REMARK    5  A    between atoms: C_29  and  C_30
REMARK    6  A    between atoms: N_32  and  C_33
REMARK                            x       y       z     vdW  Elec       q    Type
REMARK                         _______ _______ _______ _____ _____    ______ ____
ROOT
ATOM      1  C   UNL A   1     -32.497  -2.158  29.984  0.00  0.00    +0.056 A 
ATOM      2  C   UNL A   1     -32.375  -1.080  29.408  0.00  0.00    +0.006 A 
ATOM      3  C   UNL A   1     -33.486  -0.571  28.512  0.00  0.00    +0.015 A 
ATOM      4  C   UNL A   1     -34.587  -1.384  28.379  0.00  0.00    +0.048 A 
ATOM      5  C   UNL A   1     -34.669  -2.578  28.993  0.00  0.00    +0.015 A 
ATOM      6  C   UNL A   1     -33.641  -2.954  29.804  0.00  0.00    +0.006 A 
ENDROOT
BRANCH   4   7
ATOM      7  N   UNL A   1     -35.652  -0.922  27.570  0.00  0.00    -0.307 N 
ATOM      8  C   UNL A   1     -36.496  -1.503  27.031  0.00  0.00    +0.091 C 
ATOM      9  C   UNL A   1     -37.528  -0.896  26.243  0.00  0.00    +0.031 C 
ATOM     10  C   UNL A   1     -36.023   0.475  27.565  0.00  0.00    +0.091 C 
ATOM     11  C   UNL A   1     -36.876   1.099  26.907  0.00  0.00    +0.031 C 
ATOM     12  C   UNL A   1     -37.732   0.374  26.206  0.00  0.00    +0.082 C 
BRANCH  12  13
ATOM     13  C   UNL A   1     -38.832   0.936  25.413  0.00  0.00    +0.245 C 
ATOM     14  O   UNL A   1     -39.624   0.429  24.700  0.00  0.00    -0.273 OA
ATOM     15  N   UNL A   1     -38.942   2.386  25.528  0.00  0.00    -0.178 NA
BRANCH  15  16
ATOM     16  C   UNL A   1     -39.757   3.084  24.963  0.00  0.00    +0.084 C 
ATOM     17  C   UNL A   1     -40.696   3.122  24.449  0.00  0.00    -0.008 C 
ATOM     18  C   UNL A   1     -41.505   4.135  23.853  0.00  0.00    +0.032 C 
ENDBRANCH  15  16
ENDBRANCH  12  13
ENDBRANCH   4   7
BRANCH   1  22
ATOM     19  C   UNL A   1     -29.116  -2.608  30.176  0.00  0.00    +0.272 C 
ATOM     20  O   UNL A   1     -29.124  -3.791  30.395  0.00  0.00    -0.268 OA
ATOM     21  N   UNL A   1     -30.244  -1.942  30.312  0.00  0.00    -0.137 NA
ATOM     22  C   UNL A   1     -31.478  -2.571  30.696  0.00  0.00    +0.272 C 
ATOM     23  O   UNL A   1     -31.435  -3.309  31.658  0.00  0.00    -0.268 OA
BRANCH  19  29
ATOM     24  C   UNL A   1     -28.016  -0.814  28.878  0.00  0.00    +0.005 A 
ATOM     25  C   UNL A   1     -27.064  -0.119  28.608  0.00  0.00    +0.000 A 
ATOM     26  C   UNL A   1     -25.765  -0.390  29.036  0.00  0.00    +0.000 A 
ATOM     27  C   UNL A   1     -25.530  -1.530  29.901  0.00  0.00    +0.000 A 
ATOM     28  C   UNL A   1     -26.658  -2.292  30.203  0.00  0.00    +0.005 A 
ATOM     29  C   UNL A   1     -27.855  -1.956  29.763  0.00  0.00    +0.056 A 
BRANCH  26  30
ATOM     30  C   UNL A   1     -24.427   0.219  28.775  0.00  0.00    +0.000 A 
ATOM     31  C   UNL A   1     -24.311   1.173  27.800  0.00  0.00    +0.000 A 
ATOM     32  C   UNL A   1     -23.031   1.752  27.528  0.00  0.00    +0.000 A 
ATOM     33  C   UNL A   1     -21.878   1.353  28.186  0.00  0.00    +0.000 A 
ATOM     34  C   UNL A   1     -23.069  -0.182  29.210  0.00  0.00    +0.000 A 
ATOM     35  C   UNL A   1     -21.902   0.337  28.961  0.00  0.00    +0.000 A 
ENDBRANCH  26  30
ENDBRANCH  19  29
ENDBRANCH   1  22
TORSDOF 6
