MODEL 1363
MODEL 1
REMARK VINA RESULT:    -8.155      0.000      0.000
REMARK INTER + INTRA:         -12.237
REMARK INTER:                 -11.015
REMARK INTRA:                  -1.222
REMARK UNBOUND:                -1.222
REMARK  Name = No_1363-gen_results/8p0m/2024-11-26-14-13-15/
REMARK  6 active torsions:
REMARK  status: ('A' for Active; 'I' for Inactive)
REMARK    1  A    between atoms: C_3  and  C_7
REMARK    2  A    between atoms: C_6  and  C_13
REMARK    3  A    between atoms: C_16  and  C_17
REMARK    4  A    between atoms: C_20  and  N_24
REMARK    5  A    between atoms: C_29  and  C_30
REMARK    6  A    between atoms: N_32  and  C_33
REMARK                            x       y       z     vdW  Elec       q    Type
REMARK                         _______ _______ _______ _____ _____    ______ ____
ROOT
ATOM      1  C   UNL A   1     -24.418   0.611  28.239  0.00  0.00    +0.056 A 
ATOM      2  C   UNL A   1     -24.799  -0.522  28.522  0.00  0.00    +0.006 A 
ATOM      3  C   UNL A   1     -24.854  -0.963  29.971  0.00  0.00    +0.015 A 
ATOM      4  C   UNL A   1     -24.441  -0.044  30.907  0.00  0.00    +0.048 A 
ATOM      5  C   UNL A   1     -23.990   1.174  30.558  0.00  0.00    +0.015 A 
ATOM      6  C   UNL A   1     -23.996   1.506  29.237  0.00  0.00    +0.006 A 
ENDROOT
BRANCH   4   7
ATOM      7  N   UNL A   1     -24.507  -0.419  32.270  0.00  0.00    -0.307 N 
ATOM      8  C   UNL A   1     -23.789  -1.062  32.910  0.00  0.00    +0.091 C 
ATOM      9  C   UNL A   1     -23.979  -1.355  34.301  0.00  0.00    +0.031 C 
ATOM     10  C   UNL A   1     -25.398   0.265  33.180  0.00  0.00    +0.091 C 
ATOM     11  C   UNL A   1     -25.652   0.073  34.384  0.00  0.00    +0.031 C 
ATOM     12  C   UNL A   1     -24.870  -0.778  35.027  0.00  0.00    +0.082 C 
BRANCH  12  13
ATOM     13  C   UNL A   1     -24.990  -1.088  36.457  0.00  0.00    +0.245 C 
ATOM     14  O   UNL A   1     -24.367  -0.729  37.393  0.00  0.00    -0.273 OA
ATOM     15  N   UNL A   1     -26.072  -2.020  36.755  0.00  0.00    -0.178 NA
BRANCH  15  16
ATOM     16  C   UNL A   1     -26.365  -2.441  37.854  0.00  0.00    +0.084 C 
ATOM     17  C   UNL A   1     -26.610  -3.300  38.444  0.00  0.00    -0.008 C 
ATOM     18  C   UNL A   1     -26.919  -3.557  39.814  0.00  0.00    +0.032 C 
ENDBRANCH  15  16
ENDBRANCH  12  13
ENDBRANCH   4   7
BRANCH   1  22
ATOM     19  C   UNL A   1     -25.953   0.649  25.188  0.00  0.00    +0.272 C 
ATOM     20  O   UNL A   1     -25.134   0.004  24.588  0.00  0.00    -0.268 OA
ATOM     21  N   UNL A   1     -25.622   1.134  26.367  0.00  0.00    -0.137 NA
ATOM     22  C   UNL A   1     -24.335   0.911  26.967  0.00  0.00    +0.272 C 
ATOM     23  O   UNL A   1     -23.367   1.114  26.266  0.00  0.00    -0.268 OA
BRANCH  19  29
ATOM     24  C   UNL A   1     -27.668   2.262  24.432  0.00  0.00    +0.005 A 
ATOM     25  C   UNL A   1     -28.665   2.551  23.812  0.00  0.00    +0.000 A 
ATOM     26  C   UNL A   1     -29.545   1.608  23.284  0.00  0.00    +0.000 A 
ATOM     27  C   UNL A   1     -29.236   0.198  23.424  0.00  0.00    +0.000 A 
ATOM     28  C   UNL A   1     -28.068  -0.090  24.128  0.00  0.00    +0.005 A 
ATOM     29  C   UNL A   1     -27.285   0.868  24.586  0.00  0.00    +0.056 A 
BRANCH  26  30
ATOM     30  C   UNL A   1     -30.864   1.679  22.587  0.00  0.00    +0.000 A 
ATOM     31  C   UNL A   1     -31.748   0.645  22.733  0.00  0.00    +0.000 A 
ATOM     32  C   UNL A   1     -33.008   0.693  22.057  0.00  0.00    +0.000 A 
ATOM     33  C   UNL A   1     -33.361   1.734  21.212  0.00  0.00    +0.000 A 
ATOM     34  C   UNL A   1     -31.355   2.576  21.515  0.00  0.00    +0.000 A 
ATOM     35  C   UNL A   1     -32.497   2.620  20.892  0.00  0.00    +0.000 A 
ENDBRANCH  26  30
ENDBRANCH  19  29
ENDBRANCH   1  22
TORSDOF 6
ENDMDL
ENDMDL
