MODEL 1364
MODEL 1
REMARK VINA RESULT:    -4.363      0.000      0.000
REMARK INTER + INTRA:          -4.363
REMARK INTER:                  -4.363
REMARK INTRA:                   0.000
REMARK UNBOUND:                 0.000
REMARK  Name = No_1364-gen_results/8p0m/2024-11-26-14-13-15/
REMARK  0 active torsions:
REMARK  status: ('A' for Active; 'I' for Inactive)
REMARK                            x       y       z     vdW  Elec       q    Type
REMARK                         _______ _______ _______ _____ _____    ______ ____
ROOT
ATOM      1  C   UNL A   1     -24.929  -5.425  29.014  0.00  0.00    +0.000 A 
ATOM      2  C   UNL A   1     -24.194  -4.759  28.658  0.00  0.00    +0.000 A 
ATOM      3  C   UNL A   1     -26.106  -4.752  29.576  0.00  0.00    +0.000 A 
ATOM      4  C   UNL A   1     -26.149  -3.434  29.779  0.00  0.00    +0.000 A 
ATOM      5  C   UNL A   1     -24.012  -3.333  28.780  0.00  0.00    +0.000 A 
ATOM      6  C   UNL A   1     -25.105  -2.728  29.327  0.00  0.00    +0.000 A 
ENDROOT
TORSDOF 0
ENDMDL
ENDMDL
