MODEL 1365
MODEL 1
REMARK VINA RESULT:    -6.820      0.000      0.000
REMARK INTER + INTRA:          -7.521
REMARK INTER:                  -7.219
REMARK INTRA:                  -0.302
REMARK UNBOUND:                -0.302
REMARK  Name = No_1365-gen_results/8p0m/2024-11-26-14-13-15/
REMARK  1 active torsions:
REMARK  status: ('A' for Active; 'I' for Inactive)
REMARK    1  A    between atoms: C_3  and  C_7
REMARK                            x       y       z     vdW  Elec       q    Type
REMARK                         _______ _______ _______ _____ _____    ______ ____
ROOT
ATOM      1  C   UNL A   1     -24.862  -4.907  28.923  0.00  0.00    +0.001 A 
ATOM      2  C   UNL A   1     -24.095  -3.979  28.812  0.00  0.00    +0.000 A 
ATOM      3  C   UNL A   1     -24.386  -2.662  29.127  0.00  0.00    +0.001 A 
ATOM      4  C   UNL A   1     -25.685  -2.393  29.651  0.00  0.00    +0.011 A 
ATOM      5  C   UNL A   1     -26.459  -3.458  29.912  0.00  0.00    +0.058 A 
ATOM      6  C   UNL A   1     -26.083  -4.671  29.622  0.00  0.00    +0.011 A 
ATOM      7 CL   UNL A   1     -27.986  -3.134  30.641  0.00  0.00    -0.082 Cl
ENDROOT
BRANCH   3   8
ATOM      8  C   UNL A   1     -23.444  -1.522  28.840  0.00  0.00    +0.001 A 
ATOM      9  C   UNL A   1     -22.401  -1.205  29.292  0.00  0.00    +0.000 A 
ATOM     10  C   UNL A   1     -21.601  -0.030  28.885  0.00  0.00    +0.001 A 
ATOM     11  C   UNL A   1     -22.199   0.890  28.002  0.00  0.00    +0.011 A 
ATOM     12  C   UNL A   1     -23.529   0.659  27.602  0.00  0.00    +0.058 A 
ATOM     13  C   UNL A   1     -24.233  -0.606  27.922  0.00  0.00    +0.011 A 
ATOM     14 CL   UNL A   1     -24.210   1.832  26.544  0.00  0.00    -0.082 Cl
ENDBRANCH   3   8
TORSDOF 1
ENDMDL
ENDMDL
