MODEL 1366
MODEL 1
REMARK VINA RESULT:    -4.817      0.000      0.000
REMARK INTER + INTRA:          -5.180
REMARK INTER:                  -5.098
REMARK INTRA:                  -0.082
REMARK UNBOUND:                -0.082
REMARK  Name = No_1366-gen_results/8p0m/2024-11-26-14-13-15/
REMARK  1 active torsions:
REMARK  status: ('A' for Active; 'I' for Inactive)
REMARK    1  A    between atoms: C_4  and  C_5
REMARK                            x       y       z     vdW  Elec       q    Type
REMARK                         _______ _______ _______ _____ _____    ______ ____
ROOT
ATOM      1  C   UNL A   1     -25.334  -5.261  29.253  0.00  0.00    -0.000 A 
ATOM      2  C   UNL A   1     -24.297  -4.971  28.703  0.00  0.00    -0.000 A 
ATOM      3  C   UNL A   1     -23.876  -3.648  28.614  0.00  0.00    -0.004 A 
ATOM      4  C   UNL A   1     -24.454  -2.795  28.946  0.00  0.00    -0.022 A 
ATOM      5  C   UNL A   1     -26.226  -4.192  29.677  0.00  0.00    -0.000 A 
ATOM      6  C   UNL A   1     -25.741  -2.907  29.600  0.00  0.00    -0.004 A 
ENDROOT
BRANCH   4   7
ATOM      7  C   UNL A   1     -24.128  -1.308  28.881  0.00  0.00    +0.026 C 
ATOM      8  C   UNL A   1     -22.748  -0.972  29.213  0.00  0.00    +0.005 C 
ENDBRANCH   4   7
TORSDOF 1
ENDMDL
ENDMDL
