REMARK  Name = No_1366-gen_results/8p0m/2024-11-26-14-13-15/
REMARK  1 active torsions:
REMARK  status: ('A' for Active; 'I' for Inactive)
REMARK    1  A    between atoms: C_4  and  C_5
REMARK                            x       y       z     vdW  Elec       q    Type
REMARK                         _______ _______ _______ _____ _____    ______ ____
ROOT
ATOM      1  C   UNL A   1     -28.016  -0.814  28.878  0.00  0.00    -0.000 A 
ATOM      2  C   UNL A   1     -27.064  -0.119  28.608  0.00  0.00    -0.000 A 
ATOM      3  C   UNL A   1     -25.792  -0.430  29.076  0.00  0.00    -0.004 A 
ATOM      4  C   UNL A   1     -25.568  -1.241  29.757  0.00  0.00    -0.022 A 
ATOM      5  C   UNL A   1     -27.848  -1.892  29.841  0.00  0.00    -0.000 A 
ATOM      6  C   UNL A   1     -26.562  -2.177  30.239  0.00  0.00    -0.004 A 
ENDROOT
BRANCH   4   7
ATOM      7  C   UNL A   1     -24.238  -1.669  30.365  0.00  0.00    +0.026 C 
ATOM      8  C   UNL A   1     -23.620  -0.676  31.237  0.00  0.00    +0.005 C 
ENDBRANCH   4   7
TORSDOF 1
