MODEL 1367
MODEL 1
REMARK VINA RESULT:    -6.134      0.000      0.000
REMARK INTER + INTRA:          -7.006
REMARK INTER:                  -6.851
REMARK INTRA:                  -0.155
REMARK UNBOUND:                -0.155
REMARK  Name = No_1367-gen_results/8p0m/2024-11-26-14-13-15/
REMARK  2 active torsions:
REMARK  status: ('A' for Active; 'I' for Inactive)
REMARK    1  A    between atoms: C_2  and  O_7
REMARK    2  A    between atoms: O_7  and  C_8
REMARK                            x       y       z     vdW  Elec       q    Type
REMARK                         _______ _______ _______ _____ _____    ______ ____
ROOT
ATOM      1  O   UNL A   1     -24.682  -1.288  29.446  0.00  0.00    -0.454 OA
ENDROOT
BRANCH   1   3
ATOM      2  C   UNL A   1     -23.902  -3.173  28.742  0.00  0.00    +0.037 A 
ATOM      3  C   UNL A   1     -24.702  -2.738  29.271  0.00  0.00    +0.145 A 
ATOM      4  C   UNL A   1     -23.941  -4.635  28.573  0.00  0.00    +0.003 A 
ATOM      5  C   UNL A   1     -25.082  -5.382  28.988  0.00  0.00    +0.000 A 
ATOM      6  C   UNL A   1     -26.010  -3.268  29.746  0.00  0.00    +0.037 A 
ATOM      7  C   UNL A   1     -26.080  -4.623  29.616  0.00  0.00    +0.003 A 
ENDBRANCH   1   3
BRANCH   1   8
ATOM      8  C   UNL A   1     -24.401  -0.504  28.391  0.00  0.00    +0.145 A 
ATOM      9  C   UNL A   1     -23.504   0.161  28.467  0.00  0.00    +0.037 A 
ATOM     10  C   UNL A   1     -23.173   1.117  27.354  0.00  0.00    +0.003 A 
ATOM     11  C   UNL A   1     -24.022   1.110  26.238  0.00  0.00    +0.000 A 
ATOM     12  C   UNL A   1     -25.106   0.253  26.251  0.00  0.00    +0.003 A 
ATOM     13  C   UNL A   1     -25.370  -0.566  27.282  0.00  0.00    +0.037 A 
ENDBRANCH   1   8
TORSDOF 2
ENDMDL
ENDMDL
