REMARK  Name = No_1368-gen_results/8p0m/2024-11-26-14-13-15/
REMARK  8 active torsions:
REMARK  status: ('A' for Active; 'I' for Inactive)
REMARK    1  A    between atoms: C_2  and  N_7
REMARK    2  A    between atoms: C_3  and  C_24
REMARK    3  A    between atoms: N_7  and  C_8
REMARK    4  A    between atoms: N_7  and  C_14
REMARK    5  A    between atoms: C_11  and  C_31
REMARK    6  A    between atoms: C_24  and  C_25
REMARK    7  A    between atoms: C_31  and  N_32
REMARK    8  A    between atoms: N_32  and  C_33
REMARK                            x       y       z     vdW  Elec       q    Type
REMARK                         _______ _______ _______ _____ _____    ______ ____
ROOT
ATOM      1  N   UNL A   1     -29.981  -0.849  30.037  0.00  0.00    -0.266 N 
ENDROOT
BRANCH   1   2
ATOM      2  C   UNL A   1     -30.520  -1.911  30.873  0.00  0.00    +0.056 A 
ATOM      3  C   UNL A   1     -30.880  -1.411  32.078  0.00  0.00    +0.014 A 
ATOM      4  C   UNL A   1     -30.580  -3.158  30.385  0.00  0.00    +0.015 A 
ATOM      5  C   UNL A   1     -31.516  -2.357  32.952  0.00  0.00    +0.001 A 
ATOM      6  C   UNL A   1     -31.076  -4.114  31.262  0.00  0.00    +0.001 A 
ATOM      7  C   UNL A   1     -31.531  -3.717  32.551  0.00  0.00    +0.000 A 
ATOM      8  C   UNL A   1     -31.164  -0.087  32.560  0.00  0.00    +0.001 A 
ATOM      9  C   UNL A   1     -31.147   0.348  33.599  0.00  0.00    +0.000 A 
ATOM     10  C   UNL A   1     -31.635  -0.728  34.592  0.00  0.00    +0.000 A 
ATOM     11  C   UNL A   1     -31.760  -2.045  34.296  0.00  0.00    +0.000 A 
ENDBRANCH   1   2
BRANCH   1  13
ATOM     12  C   UNL A   1     -28.016  -0.814  28.878  0.00  0.00    +0.011 A 
ATOM     13  C   UNL A   1     -28.469  -0.785  29.829  0.00  0.00    +0.055 A 
ATOM     14  C   UNL A   1     -26.504  -0.778  28.877  0.00  0.00    -0.017 A 
ATOM     15  C   UNL A   1     -25.810  -0.853  30.103  0.00  0.00    -0.004 A 
ATOM     16  C   UNL A   1     -27.991  -0.892  31.226  0.00  0.00    +0.015 A 
ATOM     17  C   UNL A   1     -26.604  -0.868  31.265  0.00  0.00    +0.001 A 
BRANCH  14  18
ATOM     18  C   UNL A   1     -25.787  -0.512  27.658  0.00  0.00    +0.053 C 
BRANCH  18  19
ATOM     19  C   UNL A   1     -26.040   0.469  26.722  0.00  0.00    -0.018 A 
ATOM     20  C   UNL A   1     -25.200   0.606  25.621  0.00  0.00    -0.004 A 
ATOM     21  C   UNL A   1     -24.154   1.251  25.287  0.00  0.00    -0.000 A 
ATOM     22  C   UNL A   1     -23.831   2.393  26.194  0.00  0.00    -0.000 A 
ATOM     23  C   UNL A   1     -24.830   2.780  27.164  0.00  0.00    -0.000 A 
ATOM     24  C   UNL A   1     -26.262   1.806  27.148  0.00  0.00    -0.004 A 
ENDBRANCH  18  19
ENDBRANCH  14  18
ENDBRANCH   1  13
BRANCH   1  25
ATOM     25  C   UNL A   1     -30.703  -0.024  29.309  0.00  0.00    +0.056 A 
ATOM     26  C   UNL A   1     -30.333   0.935  28.770  0.00  0.00    +0.015 A 
ATOM     27  C   UNL A   1     -31.223   1.777  27.857  0.00  0.00    -0.001 A 
ATOM     28  C   UNL A   1     -32.516   1.319  27.746  0.00  0.00    -0.001 A 
ATOM     29  C   UNL A   1     -32.079  -0.471  29.114  0.00  0.00    +0.015 A 
ATOM     30  C   UNL A   1     -32.922   0.206  28.375  0.00  0.00    -0.001 A 
BRANCH  28  31
ATOM     31  C   UNL A   1     -33.449   2.159  26.905  0.00  0.00    +0.139 C 
BRANCH  31  32
ATOM     32  N   UNL A   1     -34.194   2.927  27.467  0.00  0.00    -0.232 NA
BRANCH  32  33
ATOM     33  C   UNL A   1     -34.159   3.311  28.617  0.00  0.00    +0.076 C 
ATOM     34  C   UNL A   1     -33.280   3.270  29.466  0.00  0.00    -0.008 C 
ATOM     35  C   UNL A   1     -33.382   3.821  30.893  0.00  0.00    +0.032 C 
ENDBRANCH  32  33
ENDBRANCH  31  32
ENDBRANCH  28  31
ENDBRANCH   1  25
TORSDOF 8
