REMARK  Name = No_1369-gen_results/8p0m/2024-11-26-14-13-15/
REMARK  4 active torsions:
REMARK  status: ('A' for Active; 'I' for Inactive)
REMARK    1  A    between atoms: C_3  and  C_7
REMARK    2  A    between atoms: C_7  and  C_8
REMARK    3  A    between atoms: C_7  and  C_16
REMARK    4  A    between atoms: C_9  and  C_10
REMARK                            x       y       z     vdW  Elec       q    Type
REMARK                         _______ _______ _______ _____ _____    ______ ____
ROOT
ATOM      1  C   UNL A   1     -27.459   0.379  26.705  0.00  0.00    +0.066 C 
ENDROOT
BRANCH   1   4
ATOM      2  C   UNL A   1     -28.016  -0.814  28.878  0.00  0.00    -0.004 A 
ATOM      3  C   UNL A   1     -28.469  -0.785  29.829  0.00  0.00    -0.000 A 
ATOM      4  C   UNL A   1     -28.196   0.348  28.055  0.00  0.00    -0.014 A 
ATOM      5  C   UNL A   1     -29.019   1.350  28.378  0.00  0.00    -0.004 A 
ATOM      6  C   UNL A   1     -29.625   1.268  29.601  0.00  0.00    -0.000 A 
ATOM      7  C   UNL A   1     -29.382   0.182  30.400  0.00  0.00    -0.000 A 
ENDBRANCH   1   4
BRANCH   1   8
ATOM      8  C   UNL A   1     -28.243   0.350  25.580  0.00  0.00    -0.022 C 
ATOM      9  C   UNL A   1     -27.806   0.631  24.436  0.00  0.00    -0.030 C 
ATOM     10  C   UNL A   1     -28.661   0.775  23.385  0.00  0.00    +0.030 C 
ENDBRANCH   1   8
BRANCH   1  11
ATOM     11  C   UNL A   1     -26.135   0.356  26.818  0.00  0.00    -0.018 C 
ATOM     12  C   UNL A   1     -25.387   0.025  27.921  0.00  0.00    -0.004 C 
BRANCH  12  13
ATOM     13  C   UNL A   1     -23.978   0.023  27.913  0.00  0.00    -0.000 A 
ATOM     14  C   UNL A   1     -23.308   0.840  27.001  0.00  0.00    -0.000 A 
ATOM     15  C   UNL A   1     -21.905   1.148  27.170  0.00  0.00    -0.000 A 
ATOM     16  C   UNL A   1     -21.239   0.606  28.324  0.00  0.00    -0.000 A 
ATOM     17  C   UNL A   1     -21.933  -0.328  29.150  0.00  0.00    -0.000 A 
ATOM     18  C   UNL A   1     -23.301  -0.549  29.006  0.00  0.00    -0.000 A 
ENDBRANCH  12  13
ENDBRANCH   1  11
TORSDOF 4
