MODEL 1369
MODEL 1
REMARK VINA RESULT:    -7.255      0.000      0.000
REMARK INTER + INTRA:         -10.103
REMARK INTER:                  -8.952
REMARK INTRA:                  -1.151
REMARK UNBOUND:                -1.151
REMARK  Name = No_1369-gen_results/8p0m/2024-11-26-14-13-15/
REMARK  4 active torsions:
REMARK  status: ('A' for Active; 'I' for Inactive)
REMARK    1  A    between atoms: C_3  and  C_7
REMARK    2  A    between atoms: C_7  and  C_8
REMARK    3  A    between atoms: C_7  and  C_16
REMARK    4  A    between atoms: C_9  and  C_10
REMARK                            x       y       z     vdW  Elec       q    Type
REMARK                         _______ _______ _______ _____ _____    ______ ____
ROOT
ATOM      1  C   UNL A   1     -24.717  -1.317  30.221  0.00  0.00    +0.066 C 
ENDROOT
BRANCH   1   4
ATOM      2  C   UNL A   1     -23.948  -3.410  29.003  0.00  0.00    -0.004 A 
ATOM      3  C   UNL A   1     -24.105  -4.427  28.777  0.00  0.00    -0.000 A 
ATOM      4  C   UNL A   1     -24.967  -2.771  29.786  0.00  0.00    -0.014 A 
ATOM      5  C   UNL A   1     -26.132  -3.355  30.083  0.00  0.00    -0.004 A 
ATOM      6  C   UNL A   1     -26.280  -4.654  29.683  0.00  0.00    -0.000 A 
ATOM      7  C   UNL A   1     -25.263  -5.266  28.998  0.00  0.00    -0.000 A 
ENDBRANCH   1   4
BRANCH   1   8
ATOM      8  C   UNL A   1     -24.810  -1.057  31.565  0.00  0.00    -0.022 C 
ATOM      9  C   UNL A   1     -23.844  -1.201  32.356  0.00  0.00    -0.030 C 
ATOM     10  C   UNL A   1     -24.036  -1.116  33.703  0.00  0.00    +0.030 C 
ENDBRANCH   1   8
BRANCH   1  11
ATOM     11  C   UNL A   1     -24.512  -0.483  29.207  0.00  0.00    -0.018 C 
ATOM     12  C   UNL A   1     -23.340   0.136  28.846  0.00  0.00    -0.004 C 
BRANCH  12  13
ATOM     13  C   UNL A   1     -23.244   0.993  27.732  0.00  0.00    -0.000 A 
ATOM     14  C   UNL A   1     -22.016   1.593  27.447  0.00  0.00    -0.000 A 
ATOM     15  C   UNL A   1     -21.761   2.186  26.153  0.00  0.00    -0.000 A 
ATOM     16  C   UNL A   1     -22.806   2.109  25.168  0.00  0.00    -0.000 A 
ATOM     17  C   UNL A   1     -24.085   1.605  25.552  0.00  0.00    -0.000 A 
ATOM     18  C   UNL A   1     -24.279   0.976  26.779  0.00  0.00    -0.000 A 
ENDBRANCH  12  13
ENDBRANCH   1  11
TORSDOF 4
ENDMDL
ENDMDL
