MODEL 136
MODEL 1
REMARK VINA RESULT:    -7.920      0.000      0.000
REMARK INTER + INTRA:          -8.993
REMARK INTER:                  -8.846
REMARK INTRA:                  -0.147
REMARK UNBOUND:                -0.147
REMARK  Name = No_136-gen_results/8p0m/2024-11-26-14-13-15/
REMARK  2 active torsions:
REMARK  status: ('A' for Active; 'I' for Inactive)
REMARK    1  A    between atoms: N_14  and  C_15
REMARK    2  A    between atoms: C_17  and  C_19
REMARK                            x       y       z     vdW  Elec       q    Type
REMARK                         _______ _______ _______ _____ _____    ______ ____
ROOT
ATOM      1  C   UNL A   1     -28.399  -0.836  31.462  0.00  0.00    +0.005 A 
ATOM      2  C   UNL A   1     -28.189   0.183  31.629  0.00  0.00    +0.000 A 
ATOM      3  C   UNL A   1     -27.340  -1.542  30.742  0.00  0.00    +0.055 A 
ATOM      4  C   UNL A   1     -26.182  -0.917  30.350  0.00  0.00    +0.063 A 
ATOM      5  C   UNL A   1     -27.078   1.089  31.341  0.00  0.00    +0.002 A 
ATOM      6  C   UNL A   1     -26.047   0.415  30.644  0.00  0.00    +0.017 A 
ATOM      7  C   UNL A   1     -27.435  -3.002  30.447  0.00  0.00    +0.198 A 
ATOM      8  C   UNL A   1     -26.332  -3.562  29.782  0.00  0.00    +0.055 A 
ATOM      9  C   UNL A   1     -26.206  -4.920  29.685  0.00  0.00    +0.005 A 
ATOM     10  C   UNL A   1     -24.939  -5.483  29.053  0.00  0.00    +0.000 A 
ATOM     11  C   UNL A   1     -24.051  -4.520  28.596  0.00  0.00    +0.002 A 
ATOM     12  C   UNL A   1     -25.184  -2.804  29.293  0.00  0.00    +0.063 A 
ATOM     13  C   UNL A   1     -24.135  -3.384  28.640  0.00  0.00    +0.017 A 
ATOM     14  N   UNL A   1     -25.250  -1.393  29.620  0.00  0.00    -0.329 N 
ATOM     15  O   UNL A   1     -28.201  -3.701  31.064  0.00  0.00    -0.286 OA
ENDROOT
BRANCH  14  16
ATOM     16  C   UNL A   1     -24.079  -0.604  29.146  0.00  0.00    +0.086 C 
ATOM     17  C   UNL A   1     -24.132  -0.012  28.260  0.00  0.00    +0.031 C 
ATOM     18  C   UNL A   1     -22.866   0.716  28.120  0.00  0.00    +0.070 C 
ATOM     19  C   UNL A   1     -22.913  -0.638  29.940  0.00  0.00    +0.023 C 
ATOM     20  C   UNL A   1     -21.974   0.287  29.185  0.00  0.00    +0.010 C 
BRANCH  18  21
ATOM     21  C   UNL A   1     -22.503   1.712  27.075  0.00  0.00    +0.206 C 
ATOM     22 BR   UNL A   1     -23.283   2.179  26.347  0.00  0.00    -0.008 Br
ATOM     23  O   UNL A   1     -21.129   1.924  27.233  0.00  0.00    -0.284 OA
ENDBRANCH  18  21
ENDBRANCH  14  16
TORSDOF 2
ENDMDL
ENDMDL
