REMARK  Name = No_137-gen_results/8p0m/2024-11-26-14-13-15/
REMARK  1 active torsions:
REMARK  status: ('A' for Active; 'I' for Inactive)
REMARK    1  A    between atoms: C_3  and  C_7
REMARK                            x       y       z     vdW  Elec       q    Type
REMARK                         _______ _______ _______ _____ _____    ______ ____
ROOT
ATOM      1  C   UNL A   1     -26.388   0.291  27.233  0.00  0.00    +0.011 A 
ATOM      2  C   UNL A   1     -26.494   0.973  26.286  0.00  0.00    +0.001 A 
ATOM      3  C   UNL A   1     -25.694   0.874  25.077  0.00  0.00    +0.000 A 
ATOM      4  C   UNL A   1     -25.187  -0.618  27.211  0.00  0.00    +0.058 A 
ATOM      5  C   UNL A   1     -24.286  -0.618  26.208  0.00  0.00    +0.011 A 
ATOM      6  C   UNL A   1     -24.591   0.081  25.075  0.00  0.00    +0.001 A 
ATOM      7 CL   UNL A   1     -24.781  -1.619  28.616  0.00  0.00    -0.082 Cl
ENDROOT
BRANCH   1  10
ATOM      8  C   UNL A   1     -28.016  -0.814  28.878  0.00  0.00    +0.000 A 
ATOM      9  C   UNL A   1     -28.469  -0.785  29.829  0.00  0.00    +0.000 A 
ATOM     10  C   UNL A   1     -27.136   0.236  28.535  0.00  0.00    +0.001 A 
ATOM     11  C   UNL A   1     -26.875   1.282  29.398  0.00  0.00    +0.000 A 
ATOM     12  C   UNL A   1     -28.361   0.199  30.924  0.00  0.00    +0.000 A 
ATOM     13  C   UNL A   1     -27.528   1.223  30.636  0.00  0.00    +0.000 A 
ENDBRANCH   1  10
TORSDOF 1
