MODEL 1370
MODEL 1
REMARK VINA RESULT:    -6.626      0.000      0.000
REMARK INTER + INTRA:         -13.884
REMARK INTER:                  -8.950
REMARK INTRA:                  -4.934
REMARK UNBOUND:                -4.934
REMARK  Name = No_1370-gen_results/8p0m/2024-11-26-14-13-15/
REMARK  6 active torsions:
REMARK  status: ('A' for Active; 'I' for Inactive)
REMARK    1  A    between atoms: C_4  and  C_11
REMARK    2  A    between atoms: C_5  and  C_18
REMARK    3  A    between atoms: C_12  and  C_20
REMARK    4  A    between atoms: C_21  and  C_22
REMARK    5  A    between atoms: C_26  and  C_33
REMARK    6  A    between atoms: C_33  and  N_34
REMARK                            x       y       z     vdW  Elec       q    Type
REMARK                         _______ _______ _______ _____ _____    ______ ____
ROOT
ATOM      1  C   UNL A   1     -29.425  -7.326   8.239  0.00  0.00    -0.000 A 
ATOM      2  C   UNL A   1     -28.185  -7.499   8.658  0.00  0.00    -0.000 A 
ATOM      3  C   UNL A   1     -27.196  -6.614   8.149  0.00  0.00    -0.000 A 
ATOM      4  C   UNL A   1     -27.443  -5.707   7.071  0.00  0.00    -0.000 A 
ATOM      5  C   UNL A   1     -28.771  -5.645   6.602  0.00  0.00    -0.000 A 
ATOM      6  C   UNL A   1     -29.763  -6.445   7.171  0.00  0.00    -0.000 A 
ENDROOT
BRANCH   1  10
ATOM      7  C   UNL A   1     -30.589 -11.048   6.464  0.00  0.00    +0.007 A 
ATOM      8  C   UNL A   1     -30.244  -9.990   6.937  0.00  0.00    +0.001 A 
ATOM      9  C   UNL A   1     -30.833  -9.496   8.095  0.00  0.00    -0.000 A 
ATOM     10  C   UNL A   1     -30.505  -8.206   8.768  0.00  0.00    -0.003 A 
ATOM     11  C   UNL A   1     -31.139  -7.701   9.957  0.00  0.00    -0.003 A 
ATOM     12  C   UNL A   1     -31.770 -11.745   6.997  0.00  0.00    +0.035 A 
ATOM     13  C   UNL A   1     -32.360 -11.362   8.177  0.00  0.00    +0.007 A 
ATOM     14  C   UNL A   1     -31.951 -10.164   8.785  0.00  0.00    +0.001 A 
ATOM     15  C   UNL A   1     -32.084  -8.629  10.526  0.00  0.00    -0.003 A 
ATOM     16  C   UNL A   1     -32.505  -9.730   9.984  0.00  0.00    -0.000 A 
ATOM     17 BR   UNL A   1     -32.293 -13.348   6.113  0.00  0.00    -0.049 Br
BRANCH  11  18
ATOM     18  C   UNL A   1     -30.712  -6.532  10.630  0.00  0.00    +0.136 C 
ATOM     19  N   UNL A   1     -31.507  -5.640  11.204  0.00  0.00    -0.126 NA
ENDBRANCH  11  18
ENDBRANCH   1  10
BRANCH   2  20
ATOM     20  C   UNL A   1     -27.768  -8.319   9.736  0.00  0.00    -0.000 C 
ATOM     21  C   UNL A   1     -26.656  -9.183   9.597  0.00  0.00    +0.000 C 
BRANCH  21  22
ATOM     22  C   UNL A   1     -27.004 -10.384   9.056  0.00  0.00    +0.000 A 
ATOM     23  C   UNL A   1     -27.850 -11.214   9.254  0.00  0.00    +0.001 A 
ATOM     24  C   UNL A   1     -28.108 -12.446   8.565  0.00  0.00    +0.010 A 
ATOM     25  C   UNL A   1     -29.027 -13.444   8.868  0.00  0.00    -0.002 A 
ATOM     26  C   UNL A   1     -29.839 -13.174  10.060  0.00  0.00    -0.005 A 
ATOM     27  C   UNL A   1     -29.651 -12.044  10.817  0.00  0.00    -0.003 A 
ATOM     28  C   UNL A   1     -28.734 -11.158  10.528  0.00  0.00    -0.000 A 
ATOM     29  C   UNL A   1     -26.794 -10.444   7.567  0.00  0.00    +0.001 A 
ATOM     30  C   UNL A   1     -26.759 -11.635   6.823  0.00  0.00    +0.011 A 
ATOM     31  C   UNL A   1     -27.498 -12.617   7.291  0.00  0.00    +0.058 A 
ATOM     32 CL   UNL A   1     -27.731 -14.028   6.370  0.00  0.00    -0.082 Cl
BRANCH  26  33
ATOM     33  C   UNL A   1     -30.845 -14.216  10.459  0.00  0.00    +0.115 C 
BRANCH  33  34
ATOM     34  N   UNL A   1     -30.455 -15.344  11.003  0.00  0.00    -0.212 NA
ATOM     35  C   UNL A   1     -29.731 -15.427  12.177  0.00  0.00    +0.108 C 
ENDBRANCH  33  34
ENDBRANCH  26  33
ENDBRANCH  21  22
ENDBRANCH   2  20
TORSDOF 6
ENDMDL
ENDMDL
