REMARK  Name = No_1370-gen_results/8p0m/2024-11-26-14-13-15/
REMARK  6 active torsions:
REMARK  status: ('A' for Active; 'I' for Inactive)
REMARK    1  A    between atoms: C_4  and  C_11
REMARK    2  A    between atoms: C_5  and  C_18
REMARK    3  A    between atoms: C_12  and  C_20
REMARK    4  A    between atoms: C_21  and  C_22
REMARK    5  A    between atoms: C_26  and  C_33
REMARK    6  A    between atoms: C_33  and  N_34
REMARK                            x       y       z     vdW  Elec       q    Type
REMARK                         _______ _______ _______ _____ _____    ______ ____
ROOT
ATOM      1  C   UNL A   1     -24.572   1.564  27.960  0.00  0.00    -0.000 A 
ATOM      2  C   UNL A   1     -24.939   1.454  26.697  0.00  0.00    -0.000 A 
ATOM      3  C   UNL A   1     -24.916   2.635  25.906  0.00  0.00    -0.000 A 
ATOM      4  C   UNL A   1     -24.721   3.939  26.460  0.00  0.00    -0.000 A 
ATOM      5  C   UNL A   1     -24.431   3.993  27.839  0.00  0.00    -0.000 A 
ATOM      6  C   UNL A   1     -24.357   2.822  28.595  0.00  0.00    -0.000 A 
ENDROOT
BRANCH   1  10
ATOM      7  C   UNL A   1     -28.016  -0.814  28.878  0.00  0.00    +0.007 A 
ATOM      8  C   UNL A   1     -27.064  -0.119  28.608  0.00  0.00    +0.001 A 
ATOM      9  C   UNL A   1     -25.792  -0.430  29.076  0.00  0.00    -0.000 A 
ATOM     10  C   UNL A   1     -24.546   0.349  28.823  0.00  0.00    -0.003 A 
ATOM     11  C   UNL A   1     -23.241   0.022  29.332  0.00  0.00    -0.003 A 
ATOM     12  C   UNL A   1     -27.882  -1.899  29.863  0.00  0.00    +0.035 A 
ATOM     13  C   UNL A   1     -26.653  -2.314  30.314  0.00  0.00    +0.007 A 
ATOM     14  C   UNL A   1     -25.515  -1.561  29.979  0.00  0.00    +0.001 A 
ATOM     15  C   UNL A   1     -23.216  -1.228  30.050  0.00  0.00    -0.003 A 
ATOM     16  C   UNL A   1     -24.244  -1.937  30.399  0.00  0.00    -0.000 A 
ATOM     17 BR   UNL A   1     -29.464  -2.864  30.297  0.00  0.00    -0.049 Br
BRANCH  11  18
ATOM     18  C   UNL A   1     -22.066   0.720  28.966  0.00  0.00    +0.136 C 
ATOM     19  N   UNL A   1     -21.343   0.493  27.878  0.00  0.00    -0.126 NA
ENDBRANCH  11  18
ENDBRANCH   1  10
BRANCH   2  20
ATOM     20  C   UNL A   1     -25.132   0.247  25.979  0.00  0.00    -0.000 C 
ATOM     21  C   UNL A   1     -25.575   0.269  24.636  0.00  0.00    +0.000 C 
BRANCH  21  22
ATOM     22  C   UNL A   1     -26.933   0.328  24.544  0.00  0.00    +0.000 A 
ATOM     23  C   UNL A   1     -27.770   1.188  24.591  0.00  0.00    +0.001 A 
ATOM     24  C   UNL A   1     -29.195   1.093  24.448  0.00  0.00    +0.010 A 
ATOM     25  C   UNL A   1     -30.160   2.082  24.605  0.00  0.00    -0.002 A 
ATOM     26  C   UNL A   1     -29.620   3.399  24.960  0.00  0.00    -0.005 A 
ATOM     27  C   UNL A   1     -28.276   3.596  25.159  0.00  0.00    -0.003 A 
ATOM     28  C   UNL A   1     -27.408   2.623  25.058  0.00  0.00    -0.000 A 
ATOM     29  C   UNL A   1     -27.502  -0.664  23.566  0.00  0.00    +0.001 A 
ATOM     30  C   UNL A   1     -28.856  -1.036  23.518  0.00  0.00    +0.011 A 
ATOM     31  C   UNL A   1     -29.712  -0.107  23.886  0.00  0.00    +0.058 A 
ATOM     32 CL   UNL A   1     -31.381  -0.341  23.656  0.00  0.00    -0.082 Cl
BRANCH  26  33
ATOM     33  C   UNL A   1     -30.605   4.516  25.161  0.00  0.00    +0.115 C 
BRANCH  33  34
ATOM     34  N   UNL A   1     -31.846   4.390  24.755  0.00  0.00    -0.212 NA
ATOM     35  C   UNL A   1     -32.912   4.130  25.595  0.00  0.00    +0.108 C 
ENDBRANCH  33  34
ENDBRANCH  26  33
ENDBRANCH  21  22
ENDBRANCH   2  20
TORSDOF 6
