MODEL 1371
MODEL 1
REMARK VINA RESULT:    -7.186      0.000      0.000
REMARK INTER + INTRA:         -10.490
REMARK INTER:                  -8.867
REMARK INTRA:                  -1.624
REMARK UNBOUND:                -1.624
REMARK  Name = No_1371-gen_results/8p0m/2024-11-26-14-13-15/
REMARK  4 active torsions:
REMARK  status: ('A' for Active; 'I' for Inactive)
REMARK    1  A    between atoms: C_4  and  C_5
REMARK    2  A    between atoms: C_8  and  C_14
REMARK    3  A    between atoms: C_12  and  C_18
REMARK    4  A    between atoms: C_21  and  C_24
REMARK                            x       y       z     vdW  Elec       q    Type
REMARK                         _______ _______ _______ _____ _____    ______ ____
ROOT
ATOM      1 CL   UNL A   1      -6.837  -0.204  35.889  0.00  0.00    -0.113 Cl
ATOM      2  C   UNL A   1      -7.478   0.647  35.291  0.00  0.00    +0.106 C 
ATOM      3  C   UNL A   1      -7.044   1.419  34.392  0.00  0.00    +0.132 C 
ATOM      4  C   UNL A   1      -8.868   1.020  35.888  0.00  0.00    +0.052 C 
ATOM      5  N   UNL A   1      -7.855   2.351  33.793  0.00  0.00    -0.204 NA
ATOM      6  C   UNL A   1      -9.475   2.074  35.026  0.00  0.00    +0.106 C 
ATOM      7  C   UNL A   1      -9.022   2.708  34.075  0.00  0.00    +0.245 C 
ATOM      8  O   UNL A   1      -9.578   3.625  33.433  0.00  0.00    -0.273 OA
ENDROOT
BRANCH   4   9
ATOM      9  C   UNL A   1      -9.465   0.317  36.939  0.00  0.00    -0.021 A 
ATOM     10  C   UNL A   1     -10.140  -0.698  36.711  0.00  0.00    -0.004 A 
ATOM     11  C   UNL A   1     -10.827  -1.281  37.189  0.00  0.00    +0.004 A 
ATOM     12  C   UNL A   1     -11.107  -0.968  38.707  0.00  0.00    +0.071 A 
ATOM     13  C   UNL A   1     -10.330   0.117  39.133  0.00  0.00    +0.004 A 
ATOM     14  C   UNL A   1      -9.520   0.843  38.261  0.00  0.00    -0.004 A 
BRANCH  12  15
ATOM     15  C   UNL A   1     -11.904  -1.779  39.596  0.00  0.00    +0.419 C 
ATOM     16  F   UNL A   1     -12.588  -1.095  40.385  0.00  0.00    -0.166 F 
ATOM     17  F   UNL A   1     -11.006  -2.551  40.466  0.00  0.00    -0.166 F 
ATOM     18  F   UNL A   1     -12.523  -2.721  38.885  0.00  0.00    -0.166 F 
ENDBRANCH  12  15
ENDBRANCH   4   9
BRANCH   6  19
ATOM     19  C   UNL A   1     -10.937   2.343  35.549  0.00  0.00    -0.013 A 
ATOM     20  C   UNL A   1     -11.861   1.728  34.900  0.00  0.00    -0.004 A 
ATOM     21  C   UNL A   1     -13.181   1.936  35.293  0.00  0.00    +0.006 A 
ATOM     22  C   UNL A   1     -13.567   2.851  36.320  0.00  0.00    +0.080 A 
ATOM     23  C   UNL A   1     -12.509   3.491  37.009  0.00  0.00    +0.006 A 
ATOM     24  C   UNL A   1     -11.221   3.255  36.622  0.00  0.00    -0.004 A 
BRANCH  22  25
ATOM     25  C   UNL A   1     -14.959   3.030  36.796  0.00  0.00    +0.388 C 
ATOM     26  O   UNL A   1     -15.190   3.038  37.804  0.00  0.00    -0.241 OA
ATOM     27  O   UNL A   1     -15.764   3.597  35.882  0.00  0.00    -0.241 OA
ENDBRANCH  22  25
ENDBRANCH   6  19
TORSDOF 4
ENDMDL
ENDMDL
