REMARK  Name = No_1371-gen_results/8p0m/2024-11-26-14-13-15/
REMARK  4 active torsions:
REMARK  status: ('A' for Active; 'I' for Inactive)
REMARK    1  A    between atoms: C_4  and  C_5
REMARK    2  A    between atoms: C_8  and  C_14
REMARK    3  A    between atoms: C_12  and  C_18
REMARK    4  A    between atoms: C_21  and  C_24
REMARK                            x       y       z     vdW  Elec       q    Type
REMARK                         _______ _______ _______ _____ _____    ______ ____
ROOT
ATOM      1 CL   UNL A   1     -28.149  -0.820  28.908  0.00  0.00    -0.113 Cl
ATOM      2  C   UNL A   1     -28.532  -0.047  29.773  0.00  0.00    +0.106 C 
ATOM      3  C   UNL A   1     -29.701   0.035  30.242  0.00  0.00    +0.132 C 
ATOM      4  C   UNL A   1     -27.581   1.137  30.120  0.00  0.00    +0.052 C 
ATOM      5  N   UNL A   1     -30.024   0.954  31.209  0.00  0.00    -0.204 NA
ATOM      6  C   UNL A   1     -28.233   1.960  31.179  0.00  0.00    +0.106 C 
ATOM      7  C   UNL A   1     -29.355   1.904  31.677  0.00  0.00    +0.245 C 
ATOM      8  O   UNL A   1     -29.854   2.673  32.528  0.00  0.00    -0.273 OA
ENDROOT
BRANCH   4   9
ATOM      9  C   UNL A   1     -26.277   1.244  29.627  0.00  0.00    -0.021 A 
ATOM     10  C   UNL A   1     -26.061   1.798  28.539  0.00  0.00    -0.004 A 
ATOM     11  C   UNL A   1     -25.313   1.858  27.849  0.00  0.00    +0.004 A 
ATOM     12  C   UNL A   1     -23.936   1.187  28.217  0.00  0.00    +0.071 A 
ATOM     13  C   UNL A   1     -24.007   0.591  29.482  0.00  0.00    +0.004 A 
ATOM     14  C   UNL A   1     -25.189   0.541  30.219  0.00  0.00    -0.004 A 
BRANCH  12  15
ATOM     15  C   UNL A   1     -22.715   1.313  27.458  0.00  0.00    +0.419 C 
ATOM     16  F   UNL A   1     -21.753   0.729  27.999  0.00  0.00    -0.166 F 
ATOM     17  F   UNL A   1     -22.316   2.727  27.433  0.00  0.00    -0.166 F 
ATOM     18  F   UNL A   1     -22.970   1.046  26.178  0.00  0.00    -0.166 F 
ENDBRANCH  12  15
ENDBRANCH   4   9
BRANCH   6  19
ATOM     19  C   UNL A   1     -27.208   3.070  31.628  0.00  0.00    -0.013 A 
ATOM     20  C   UNL A   1     -27.744   4.184  31.981  0.00  0.00    -0.004 A 
ATOM     21  C   UNL A   1     -26.897   5.220  32.369  0.00  0.00    +0.006 A 
ATOM     22  C   UNL A   1     -25.471   5.137  32.322  0.00  0.00    +0.080 A 
ATOM     23  C   UNL A   1     -24.936   3.884  31.938  0.00  0.00    +0.006 A 
ATOM     24  C   UNL A   1     -25.785   2.876  31.583  0.00  0.00    -0.004 A 
BRANCH  22  25
ATOM     25  C   UNL A   1     -24.559   6.203  32.798  0.00  0.00    +0.388 C 
ATOM     26  O   UNL A   1     -24.913   7.034  33.302  0.00  0.00    -0.241 OA
ATOM     27  O   UNL A   1     -23.283   5.799  32.911  0.00  0.00    -0.241 OA
ENDBRANCH  22  25
ENDBRANCH   6  19
TORSDOF 4
