REMARK  Name = No_1372-gen_results/8p0m/2024-11-26-14-13-15/
REMARK  2 active torsions:
REMARK  status: ('A' for Active; 'I' for Inactive)
REMARK    1  A    between atoms: C_3  and  C_8
REMARK    2  A    between atoms: C_8  and  C_11
REMARK                            x       y       z     vdW  Elec       q    Type
REMARK                         _______ _______ _______ _____ _____    ______ ____
ROOT
ATOM      1  C   UNL A   1     -26.524   0.439  26.604  0.00  0.00    +0.074 C 
ATOM      2  C   UNL A   1     -26.482   1.810  26.413  0.00  0.00    +0.012 C 
ATOM      3  C   UNL A   1     -25.552  -0.114  25.560  0.00  0.00    +0.012 C 
ENDROOT
BRANCH   1   4
ATOM      4  C   UNL A   1     -27.954   0.050  26.055  0.00  0.00    +0.126 C 
ATOM      5  C   UNL A   1     -28.569   0.842  25.114  0.00  0.00    +0.033 C 
ATOM      6  C   UNL A   1     -29.871   0.471  24.776  0.00  0.00    +0.002 C 
ATOM      7  C   UNL A   1     -30.515  -0.407  25.585  0.00  0.00    +0.017 C 
ATOM      8  C   UNL A   1     -31.774  -0.882  25.140  0.00  0.00    +0.055 C 
ATOM      9  C   UNL A   1     -32.496  -1.899  25.872  0.00  0.00    -0.021 C 
ATOM     10  C   UNL A   1     -32.086  -2.194  27.147  0.00  0.00    -0.001 C 
ATOM     11  C   UNL A   1     -30.984  -1.476  27.685  0.00  0.00    +0.037 C 
ATOM     12  C   UNL A   1     -30.231  -0.672  26.981  0.00  0.00    +0.141 C 
ATOM     13  O   UNL A   1     -28.682  -0.690  26.855  0.00  0.00    -0.458 OA
ENDBRANCH   1   4
BRANCH   1  16
ATOM     14  O   UNL A   1     -28.123  -1.335  28.487  0.00  0.00    -0.268 OA
ATOM     15  C   UNL A   1     -27.481  -0.404  28.709  0.00  0.00    +0.273 C 
ATOM     16  C   UNL A   1     -26.380  -0.087  27.939  0.00  0.00    +0.041 C 
ATOM     17  N   UNL A   1     -27.666   0.447  29.899  0.00  0.00    -0.132 NA
ATOM     18  C   UNL A   1     -25.177  -0.439  28.395  0.00  0.00    +0.010 C 
ATOM     19  C   UNL A   1     -24.870  -0.105  29.831  0.00  0.00    +0.059 C 
ATOM     20  C   UNL A   1     -26.193   0.218  30.562  0.00  0.00    -0.012 C 
ENDBRANCH   1  16
TORSDOF 2
