MODEL 1372
MODEL 1
REMARK VINA RESULT:    -6.987      0.000      0.000
REMARK INTER + INTRA:          -8.461
REMARK INTER:                  -7.804
REMARK INTRA:                  -0.657
REMARK UNBOUND:                -0.657
REMARK  Name = No_1372-gen_results/8p0m/2024-11-26-14-13-15/
REMARK  2 active torsions:
REMARK  status: ('A' for Active; 'I' for Inactive)
REMARK    1  A    between atoms: C_3  and  C_8
REMARK    2  A    between atoms: C_8  and  C_11
REMARK                            x       y       z     vdW  Elec       q    Type
REMARK                         _______ _______ _______ _____ _____    ______ ____
ROOT
ATOM      1  C   UNL A   1     -24.472   0.984  27.698  0.00  0.00    +0.074 C 
ATOM      2  C   UNL A   1     -23.124   0.673  27.746  0.00  0.00    +0.012 C 
ATOM      3  C   UNL A   1     -24.657   2.019  28.809  0.00  0.00    +0.012 C 
ENDROOT
BRANCH   1   4
ATOM      4  C   UNL A   1     -25.156  -0.324  28.263  0.00  0.00    +0.126 C 
ATOM      5  C   UNL A   1     -26.058  -0.238  29.297  0.00  0.00    +0.033 C 
ATOM      6  C   UNL A   1     -26.521  -1.458  29.792  0.00  0.00    +0.002 C 
ATOM      7  C   UNL A   1     -25.848  -2.584  29.447  0.00  0.00    +0.017 C 
ATOM      8  C   UNL A   1     -26.425  -3.819  29.837  0.00  0.00    +0.055 C 
ATOM      9  C   UNL A   1     -25.847  -5.081  29.430  0.00  0.00    -0.021 C 
ATOM     10  C   UNL A   1     -24.580  -5.074  28.905  0.00  0.00    -0.001 C 
ATOM     11  C   UNL A   1     -23.899  -3.831  28.800  0.00  0.00    +0.037 C 
ATOM     12  C   UNL A   1     -24.467  -2.674  29.017  0.00  0.00    +0.141 C 
ATOM     13  O   UNL A   1     -24.485  -1.435  28.079  0.00  0.00    -0.458 OA
ENDBRANCH   1   4
BRANCH   1  16
ATOM     14  O   UNL A   1     -24.535   3.365  25.807  0.00  0.00    -0.268 OA
ATOM     15  C   UNL A   1     -25.365   2.615  26.085  0.00  0.00    +0.273 C 
ATOM     16  C   UNL A   1     -25.072   1.310  26.428  0.00  0.00    +0.041 C 
ATOM     17  N   UNL A   1     -26.804   2.911  25.963  0.00  0.00    -0.132 NA
ATOM     18  C   UNL A   1     -25.199   0.374  25.486  0.00  0.00    +0.010 C 
ATOM     19  C   UNL A   1     -26.474   0.385  24.685  0.00  0.00    +0.059 C 
ATOM     20  C   UNL A   1     -27.175   1.748  24.881  0.00  0.00    -0.012 C 
ENDBRANCH   1  16
TORSDOF 2
ENDMDL
ENDMDL
