MODEL 1373
MODEL 1
REMARK VINA RESULT:    -4.907      0.000      0.000
REMARK INTER + INTRA:          -5.264
REMARK INTER:                  -5.194
REMARK INTRA:                  -0.070
REMARK UNBOUND:                -0.070
REMARK  Name = No_1373-gen_results/8p0m/2024-11-26-14-13-15/
REMARK  1 active torsions:
REMARK  status: ('A' for Active; 'I' for Inactive)
REMARK    1  A    between atoms: C_2  and  C_7
REMARK                            x       y       z     vdW  Elec       q    Type
REMARK                         _______ _______ _______ _____ _____    ______ ____
ROOT
ATOM      1  C   UNL A   1     -23.895  -3.591  28.551  0.00  0.00    -0.000 A 
ATOM      2  C   UNL A   1     -24.636  -2.699  28.894  0.00  0.00    -0.000 A 
ATOM      3  C   UNL A   1     -25.853  -2.973  29.507  0.00  0.00    -0.000 A 
ATOM      4  C   UNL A   1     -26.291  -4.330  29.712  0.00  0.00    -0.000 A 
ATOM      5  C   UNL A   1     -25.384  -5.299  29.265  0.00  0.00    -0.000 A 
ATOM      6  C   UNL A   1     -24.252  -4.987  28.675  0.00  0.00    -0.000 A 
ENDROOT
BRANCH   2   7
ATOM      7  C   UNL A   1     -24.360  -1.246  28.737  0.00  0.00    -0.005 C 
ATOM      8  C   UNL A   1     -23.528  -0.603  29.477  0.00  0.00    -0.026 C 
ATOM      9  C   UNL A   1     -23.327  -1.095  30.906  0.00  0.00    +0.031 C 
ENDBRANCH   2   7
TORSDOF 1
ENDMDL
ENDMDL
