MODEL 1374
MODEL 1
REMARK VINA RESULT:    -8.464      0.000      0.000
REMARK INTER + INTRA:         -15.955
REMARK INTER:                 -12.917
REMARK INTRA:                  -3.038
REMARK UNBOUND:                -3.038
REMARK  Name = No_1374-gen_results/8p0m/2024-11-26-14-13-15/
REMARK  9 active torsions:
REMARK  status: ('A' for Active; 'I' for Inactive)
REMARK    1  A    between atoms: C_1  and  C_11
REMARK    2  A    between atoms: C_3  and  C_14
REMARK    3  A    between atoms: C_5  and  C_7
REMARK    4  A    between atoms: C_14  and  C_15
REMARK    5  A    between atoms: C_14  and  C_21
REMARK    6  A    between atoms: C_21  and  C_23
REMARK    7  A    between atoms: C_29  and  C_30
REMARK    8  A    between atoms: N_32  and  C_33
REMARK    9  A    between atoms: C_33  and  C_34
REMARK                            x       y       z     vdW  Elec       q    Type
REMARK                         _______ _______ _______ _____ _____    ______ ____
ROOT
ATOM      1  C   UNL A   1     -25.139  -1.014  29.024  0.00  0.00    +0.051 C 
ENDROOT
BRANCH   1   2
ATOM      2  C   UNL A   1     -25.541  -2.261  28.962  0.00  0.00    +0.009 A 
ATOM      3  C   UNL A   1     -26.385  -3.080  29.577  0.00  0.00    -0.002 A 
ATOM      4  C   UNL A   1     -26.298  -4.423  29.845  0.00  0.00    -0.000 A 
ATOM      5  C   UNL A   1     -25.222  -5.064  29.207  0.00  0.00    +0.002 A 
ATOM      6  C   UNL A   1     -24.241  -3.179  28.858  0.00  0.00    +0.136 A 
ATOM      7  C   UNL A   1     -24.155  -4.469  28.787  0.00  0.00    +0.029 A 
ATOM      8  F   UNL A   1     -23.056  -2.391  28.596  0.00  0.00    -0.204 F 
ENDBRANCH   1   2
BRANCH   1  11
ATOM      9  C   UNL A   1     -26.326   0.327  25.824  0.00  0.00    +0.079 A 
ATOM     10  C   UNL A   1     -26.285  -0.235  26.894  0.00  0.00    +0.003 A 
ATOM     11  C   UNL A   1     -25.231  -0.171  27.788  0.00  0.00    -0.018 A 
ATOM     12  C   UNL A   1     -24.122   0.650  27.425  0.00  0.00    -0.002 A 
ATOM     13  C   UNL A   1     -24.265   1.378  26.300  0.00  0.00    +0.053 A 
ATOM     14  C   UNL A   1     -25.368   1.306  25.551  0.00  0.00    +0.009 A 
BRANCH  13  15
ATOM     15  C   UNL A   1     -23.119   2.251  25.979  0.00  0.00    +0.350 C 
ATOM     16 CL   UNL A   1     -22.380   2.297  24.949  0.00  0.00    -0.042 Cl
ATOM     17  F   UNL A   1     -22.319   2.213  27.125  0.00  0.00    -0.182 F 
ATOM     18  F   UNL A   1     -23.690   3.570  26.182  0.00  0.00    -0.182 F 
ENDBRANCH  13  15
BRANCH   9  19
ATOM     19  C   UNL A   1     -27.564   0.206  24.935  0.00  0.00    +0.388 C 
ATOM     20  O   UNL A   1     -27.692   0.278  23.866  0.00  0.00    -0.241 OA
ATOM     21  O   UNL A   1     -28.667   0.218  25.735  0.00  0.00    -0.241 OA
ENDBRANCH   9  19
ENDBRANCH   1  11
BRANCH   1  22
ATOM     22  C   UNL A   1     -25.172  -0.247  30.218  0.00  0.00    +0.030 C 
ATOM     23  C   UNL A   1     -26.345   0.653  30.235  0.00  0.00    +0.005 C 
BRANCH  22  24
ATOM     24  C   UNL A   1     -24.576  -0.516  31.378  0.00  0.00    -0.022 A 
ATOM     25  C   UNL A   1     -23.319  -1.075  31.553  0.00  0.00    -0.004 A 
ATOM     26  C   UNL A   1     -22.857  -1.473  32.822  0.00  0.00    -0.000 A 
ATOM     27  C   UNL A   1     -23.621  -1.153  33.941  0.00  0.00    +0.004 A 
ATOM     28  C   UNL A   1     -25.414  -0.316  32.589  0.00  0.00    +0.000 A 
ATOM     29  C   UNL A   1     -24.910  -0.684  33.850  0.00  0.00    +0.055 A 
BRANCH  29  30
ATOM     30  C   UNL A   1     -25.772  -0.472  35.051  0.00  0.00    +0.265 C 
ATOM     31  O   UNL A   1     -26.585   0.319  35.022  0.00  0.00    -0.268 OA
ATOM     32  N   UNL A   1     -25.541  -1.276  36.142  0.00  0.00    -0.202 NA
BRANCH  32  33
ATOM     33  C   UNL A   1     -26.350  -1.118  37.382  0.00  0.00    +0.116 C 
BRANCH  33  34
ATOM     34  C   UNL A   1     -25.447  -1.205  38.325  0.00  0.00    +0.023 C 
ATOM     35  C   UNL A   1     -25.215  -2.228  38.941  0.00  0.00    +0.002 C 
ENDBRANCH  33  34
ENDBRANCH  32  33
ENDBRANCH  29  30
ENDBRANCH  22  24
ENDBRANCH   1  22
TORSDOF 9
ENDMDL
ENDMDL
