REMARK  Name = No_1374-gen_results/8p0m/2024-11-26-14-13-15/
REMARK  9 active torsions:
REMARK  status: ('A' for Active; 'I' for Inactive)
REMARK    1  A    between atoms: C_1  and  C_11
REMARK    2  A    between atoms: C_3  and  C_14
REMARK    3  A    between atoms: C_5  and  C_7
REMARK    4  A    between atoms: C_14  and  C_15
REMARK    5  A    between atoms: C_14  and  C_21
REMARK    6  A    between atoms: C_21  and  C_23
REMARK    7  A    between atoms: C_29  and  C_30
REMARK    8  A    between atoms: N_32  and  C_33
REMARK    9  A    between atoms: C_33  and  C_34
REMARK                            x       y       z     vdW  Elec       q    Type
REMARK                         _______ _______ _______ _____ _____    ______ ____
ROOT
ATOM      1  C   UNL A   1     -25.715   1.429  27.110  0.00  0.00    +0.051 C 
ENDROOT
BRANCH   1   2
ATOM      2  C   UNL A   1     -24.564   0.846  27.343  0.00  0.00    +0.009 A 
ATOM      3  C   UNL A   1     -24.048  -0.085  28.137  0.00  0.00    -0.002 A 
ATOM      4  C   UNL A   1     -22.806  -0.186  28.711  0.00  0.00    -0.000 A 
ATOM      5  C   UNL A   1     -21.878   0.757  28.236  0.00  0.00    +0.002 A 
ATOM      6  C   UNL A   1     -23.459   1.991  27.451  0.00  0.00    +0.136 A 
ATOM      7  C   UNL A   1     -22.190   1.883  27.684  0.00  0.00    +0.029 A 
ATOM      8  F   UNL A   1     -23.975   3.267  27.006  0.00  0.00    -0.204 F 
ENDBRANCH   1   2
BRANCH   1  11
ATOM      9  C   UNL A   1     -28.016  -0.814  28.878  0.00  0.00    +0.079 A 
ATOM     10  C   UNL A   1     -27.064  -0.119  28.608  0.00  0.00    +0.003 A 
ATOM     11  C   UNL A   1     -26.972   0.714  27.506  0.00  0.00    -0.018 A 
ATOM     12  C   UNL A   1     -28.105   0.774  26.642  0.00  0.00    -0.002 A 
ATOM     13  C   UNL A   1     -29.201   0.104  27.053  0.00  0.00    +0.053 A 
ATOM     14  C   UNL A   1     -29.210  -0.603  28.185  0.00  0.00    +0.009 A 
BRANCH  13  15
ATOM     15  C   UNL A   1     -30.370   0.226  26.160  0.00  0.00    +0.350 C 
ATOM     16 CL   UNL A   1     -30.999   1.252  25.760  0.00  0.00    -0.042 Cl
ATOM     17  F   UNL A   1     -31.281  -0.718  26.645  0.00  0.00    -0.182 F 
ATOM     18  F   UNL A   1     -29.925  -0.512  24.992  0.00  0.00    -0.182 F 
ENDBRANCH  13  15
BRANCH   9  19
ATOM     19  C   UNL A   1     -28.013  -1.670  30.145  0.00  0.00    +0.388 C 
ATOM     20  O   UNL A   1     -28.487  -1.536  31.105  0.00  0.00    -0.241 OA
ATOM     21  O   UNL A   1     -27.056  -2.631  30.008  0.00  0.00    -0.241 OA
ENDBRANCH   9  19
ENDBRANCH   1  11
BRANCH   1  22
ATOM     22  C   UNL A   1     -25.876   2.838  27.061  0.00  0.00    +0.030 C 
ATOM     23  C   UNL A   1     -25.763   3.335  25.673  0.00  0.00    +0.005 C 
BRANCH  22  24
ATOM     24  C   UNL A   1     -26.471   3.624  27.957  0.00  0.00    -0.022 A 
ATOM     25  C   UNL A   1     -27.436   4.587  27.701  0.00  0.00    -0.004 A 
ATOM     26  C   UNL A   1     -27.874   5.478  28.699  0.00  0.00    -0.000 A 
ATOM     27  C   UNL A   1     -27.438   5.282  30.007  0.00  0.00    +0.004 A 
ATOM     28  C   UNL A   1     -25.934   3.539  29.340  0.00  0.00    +0.000 A 
ATOM     29  C   UNL A   1     -26.421   4.415  30.328  0.00  0.00    +0.055 A 
BRANCH  29  30
ATOM     30  C   UNL A   1     -25.865   4.309  31.710  0.00  0.00    +0.265 C 
ATOM     31  O   UNL A   1     -24.950   3.663  31.895  0.00  0.00    -0.268 OA
ATOM     32  N   UNL A   1     -26.493   5.028  32.699  0.00  0.00    -0.202 NA
BRANCH  32  33
ATOM     33  C   UNL A   1     -26.006   4.965  34.104  0.00  0.00    +0.116 C 
BRANCH  33  34
ATOM     34  C   UNL A   1     -25.410   6.121  34.252  0.00  0.00    +0.023 C 
ATOM     35  C   UNL A   1     -24.513   6.511  33.529  0.00  0.00    +0.002 C 
ENDBRANCH  33  34
ENDBRANCH  32  33
ENDBRANCH  29  30
ENDBRANCH  22  24
ENDBRANCH   1  22
TORSDOF 9
