MODEL 1375
MODEL 1
REMARK VINA RESULT:    -6.430      0.000      0.000
REMARK INTER + INTRA:          -6.865
REMARK INTER:                  -6.806
REMARK INTRA:                  -0.059
REMARK UNBOUND:                -0.059
REMARK  Name = No_1375-gen_results/8p0m/2024-11-26-14-13-15/
REMARK  1 active torsions:
REMARK  status: ('A' for Active; 'I' for Inactive)
REMARK    1  A    between atoms: C_8  and  C_11
REMARK                            x       y       z     vdW  Elec       q    Type
REMARK                         _______ _______ _______ _____ _____    ______ ____
ROOT
ATOM      1  C   UNL A   1     -30.206 -11.069  27.733  0.00  0.00    +0.000 A 
ATOM      2  C   UNL A   1     -29.414 -11.603  28.474  0.00  0.00    +0.000 A 
ATOM      3  C   UNL A   1     -29.253 -11.252  29.814  0.00  0.00    +0.000 A 
ATOM      4  C   UNL A   1     -30.027 -10.151  30.353  0.00  0.00    +0.000 A 
ATOM      5  C   UNL A   1     -30.913  -9.551  29.459  0.00  0.00    +0.000 A 
ATOM      6  C   UNL A   1     -30.993  -9.940  28.202  0.00  0.00    +0.000 A 
ATOM      7  C   UNL A   1     -28.306 -11.868  30.787  0.00  0.00    +0.005 A 
ATOM      8  C   UNL A   1     -28.282 -11.597  32.071  0.00  0.00    +0.057 A 
ATOM      9  C   UNL A   1     -29.261 -10.598  32.530  0.00  0.00    +0.005 A 
ATOM     10  C   UNL A   1     -29.971  -9.747  31.633  0.00  0.00    +0.000 A 
ENDROOT
BRANCH   8  11
ATOM     11  C   UNL A   1     -27.465 -12.233  33.067  0.00  0.00    +0.284 C 
ATOM     12  N   UNL A   1     -27.459 -12.197  34.393  0.00  0.00    -0.084 NA
ATOM     13  O   UNL A   1     -26.368 -12.955  32.611  0.00  0.00    -0.267 OA
ENDBRANCH   8  11
TORSDOF 1
ENDMDL
ENDMDL
