REMARK  Name = No_1376-gen_results/8p0m/2024-11-26-14-13-15/
REMARK  9 active torsions:
REMARK  status: ('A' for Active; 'I' for Inactive)
REMARK    1  A    between atoms: C_1  and  C_7
REMARK    2  A    between atoms: C_3  and  C_13
REMARK    3  A    between atoms: C_5  and  C_10
REMARK    4  A    between atoms: C_7  and  O_9
REMARK    5  A    between atoms: O_9  and  C_17
REMARK    6  A    between atoms: C_17  and  C_18
REMARK    7  A    between atoms: C_18  and  O_19
REMARK    8  A    between atoms: O_19  and  C_20
REMARK    9  A    between atoms: C_20  and  C_21
REMARK                            x       y       z     vdW  Elec       q    Type
REMARK                         _______ _______ _______ _____ _____    ______ ____
ROOT
ATOM      1  C   UNL A   1     -28.016  -0.814  28.878  0.00  0.00    +0.076 A 
ATOM      2  C   UNL A   1     -27.064  -0.119  28.608  0.00  0.00    +0.010 A 
ATOM      3  C   UNL A   1     -27.001   0.691  27.491  0.00  0.00    +0.072 A 
ATOM      4  C   UNL A   1     -28.137   0.736  26.635  0.00  0.00    +0.010 A 
ATOM      5  C   UNL A   1     -29.236   0.076  27.069  0.00  0.00    +0.080 A 
ATOM      6  C   UNL A   1     -29.218  -0.643  28.175  0.00  0.00    +0.013 A 
ENDROOT
BRANCH   3   7
ATOM      7  C   UNL A   1     -25.756   1.448  27.058  0.00  0.00    +0.419 C 
ATOM      8  F   UNL A   1     -25.652   1.720  25.884  0.00  0.00    -0.166 F 
ATOM      9  F   UNL A   1     -24.631   0.711  27.399  0.00  0.00    -0.166 F 
ATOM     10  F   UNL A   1     -25.709   2.614  27.754  0.00  0.00    -0.166 F 
ENDBRANCH   3   7
BRANCH   5  11
ATOM     11  C   UNL A   1     -30.438   0.159  26.218  0.00  0.00    +0.388 C 
ATOM     12  O   UNL A   1     -31.085   0.923  26.151  0.00  0.00    -0.241 OA
ATOM     13  O   UNL A   1     -30.665  -1.038  25.560  0.00  0.00    -0.241 OA
ENDBRANCH   5  11
BRANCH   1  14
ATOM     14  C   UNL A   1     -27.787  -1.667  30.120  0.00  0.00    +0.341 C 
ATOM     15  O   UNL A   1     -28.654  -2.092  30.695  0.00  0.00    -0.245 OA
BRANCH  14  16
ATOM     16  O   UNL A   1     -26.564  -2.146  30.333  0.00  0.00    -0.443 OA
BRANCH  16  17
ATOM     17  C   UNL A   1     -26.204  -3.397  29.790  0.00  0.00    +0.241 C 
BRANCH  17  18
ATOM     18  C   UNL A   1     -24.889  -3.430  29.141  0.00  0.00    +0.190 C 
BRANCH  18  19
ATOM     19  O   UNL A   1     -24.329  -2.305  28.990  0.00  0.00    -0.342 OA
BRANCH  19  20
ATOM     20  C   UNL A   1     -22.943  -2.131  29.440  0.00  0.00    +0.214 C 
BRANCH  20  21
ATOM     21  C   UNL A   1     -22.573  -0.572  29.538  0.00  0.00    +0.240 C 
ATOM     22  O   UNL A   1     -23.215   0.055  30.411  0.00  0.00    -0.285 OA
ENDBRANCH  20  21
ENDBRANCH  19  20
ENDBRANCH  18  19
ENDBRANCH  17  18
ENDBRANCH  16  17
ENDBRANCH  14  16
ENDBRANCH   1  14
TORSDOF 9
