MODEL 1376
MODEL 1
REMARK VINA RESULT:    -5.720      0.000      0.000
REMARK INTER + INTRA:          -9.385
REMARK INTER:                  -8.730
REMARK INTRA:                  -0.655
REMARK UNBOUND:                -0.655
REMARK  Name = No_1376-gen_results/8p0m/2024-11-26-14-13-15/
REMARK  9 active torsions:
REMARK  status: ('A' for Active; 'I' for Inactive)
REMARK    1  A    between atoms: C_1  and  C_7
REMARK    2  A    between atoms: C_3  and  C_13
REMARK    3  A    between atoms: C_5  and  C_10
REMARK    4  A    between atoms: C_7  and  O_9
REMARK    5  A    between atoms: O_9  and  C_17
REMARK    6  A    between atoms: C_17  and  C_18
REMARK    7  A    between atoms: C_18  and  O_19
REMARK    8  A    between atoms: O_19  and  C_20
REMARK    9  A    between atoms: C_20  and  C_21
REMARK                            x       y       z     vdW  Elec       q    Type
REMARK                         _______ _______ _______ _____ _____    ______ ____
ROOT
ATOM      1  C   UNL A   1     -20.829 -18.968   6.197  0.00  0.00    +0.076 A 
ATOM      2  C   UNL A   1     -19.758 -19.450   5.909  0.00  0.00    +0.010 A 
ATOM      3  C   UNL A   1     -19.153 -20.457   6.635  0.00  0.00    +0.072 A 
ATOM      4  C   UNL A   1     -19.850 -20.979   7.761  0.00  0.00    +0.010 A 
ATOM      5  C   UNL A   1     -21.113 -20.528   7.941  0.00  0.00    +0.080 A 
ATOM      6  C   UNL A   1     -21.628 -19.589   7.170  0.00  0.00    +0.013 A 
ENDROOT
BRANCH   3   7
ATOM      7  C   UNL A   1     -17.743 -20.963   6.376  0.00  0.00    +0.419 C 
ATOM      8  F   UNL A   1     -17.609 -21.831   5.545  0.00  0.00    -0.166 F 
ATOM      9  F   UNL A   1     -17.209 -21.455   7.559  0.00  0.00    -0.166 F 
ATOM     10  F   UNL A   1     -16.981 -19.906   5.991  0.00  0.00    -0.166 F 
ENDBRANCH   3   7
BRANCH   5  11
ATOM     11  C   UNL A   1     -21.866 -21.101   9.072  0.00  0.00    +0.388 C 
ATOM     12  O   UNL A   1     -21.920 -22.066   9.341  0.00  0.00    -0.241 OA
ATOM     13  O   UNL A   1     -22.630 -20.133   9.702  0.00  0.00    -0.241 OA
ENDBRANCH   5  11
BRANCH   1  14
ATOM     14  C   UNL A   1     -21.224 -17.820   5.276  0.00  0.00    +0.341 C 
ATOM     15  O   UNL A   1     -21.573 -18.017   4.226  0.00  0.00    -0.245 OA
BRANCH  14  16
ATOM     16  O   UNL A   1     -21.436 -16.625   5.822  0.00  0.00    -0.443 OA
BRANCH  16  17
ATOM     17  C   UNL A   1     -22.554 -15.866   5.418  0.00  0.00    +0.241 C 
BRANCH  17  18
ATOM     18  C   UNL A   1     -22.296 -14.432   5.249  0.00  0.00    +0.190 C 
BRANCH  18  19
ATOM     19  O   UNL A   1     -21.794 -14.098   4.136  0.00  0.00    -0.342 OA
BRANCH  19  20
ATOM     20  C   UNL A   1     -21.839 -12.689   3.727  0.00  0.00    +0.214 C 
BRANCH  20  21
ATOM     21  C   UNL A   1     -20.365 -12.154   3.383  0.00  0.00    +0.240 C 
ATOM     22  O   UNL A   1     -19.521 -12.356   4.286  0.00  0.00    -0.285 OA
ENDBRANCH  20  21
ENDBRANCH  19  20
ENDBRANCH  18  19
ENDBRANCH  17  18
ENDBRANCH  16  17
ENDBRANCH  14  16
ENDBRANCH   1  14
TORSDOF 9
ENDMDL
ENDMDL
