MODEL 1377
MODEL 1
REMARK VINA RESULT:    -8.274      0.000      0.000
REMARK INTER + INTRA:         -11.259
REMARK INTER:                 -10.209
REMARK INTRA:                  -1.050
REMARK UNBOUND:                -1.050
REMARK  Name = No_1377-gen_results/8p0m/2024-11-26-14-13-15/
REMARK  4 active torsions:
REMARK  status: ('A' for Active; 'I' for Inactive)
REMARK    1  A    between atoms: C_2  and  C_7
REMARK    2  A    between atoms: C_12  and  C_13
REMARK    3  A    between atoms: C_13  and  C_14
REMARK    4  A    between atoms: C_14  and  C_15
REMARK                            x       y       z     vdW  Elec       q    Type
REMARK                         _______ _______ _______ _____ _____    ______ ____
ROOT
ATOM      1  C   UNL A   1     -24.088   1.238  26.400  0.00  0.00    -0.000 A 
ATOM      2  C   UNL A   1     -23.110   1.955  26.258  0.00  0.00    -0.000 A 
ATOM      3  C   UNL A   1     -21.894   1.913  27.080  0.00  0.00    -0.000 A 
ATOM      4  C   UNL A   1     -21.851   0.936  28.097  0.00  0.00    -0.004 A 
ATOM      5  C   UNL A   1     -23.984   0.266  27.514  0.00  0.00    -0.004 A 
ATOM      6  C   UNL A   1     -23.011   0.204  28.139  0.00  0.00    -0.022 A 
ENDROOT
BRANCH   1   8
ATOM      7  C   UNL A   1     -26.110   2.250  25.599  0.00  0.00    -0.000 A 
ATOM      8  C   UNL A   1     -25.406   1.273  25.712  0.00  0.00    -0.000 A 
ATOM      9  C   UNL A   1     -25.783   0.051  25.165  0.00  0.00    -0.000 A 
ATOM     10  C   UNL A   1     -27.045  -0.101  24.488  0.00  0.00    -0.000 A 
ATOM     11  C   UNL A   1     -27.806   1.074  24.424  0.00  0.00    +0.000 A 
ATOM     12  C   UNL A   1     -27.412   2.201  24.972  0.00  0.00    -0.000 A 
ENDBRANCH   1   8
BRANCH   6  13
ATOM     13  C   UNL A   1     -22.906  -0.887  29.279  0.00  0.00    +0.031 C 
BRANCH  13  14
ATOM     14  C   UNL A   1     -23.450  -2.111  28.853  0.00  0.00    +0.031 C 
BRANCH  14  15
ATOM     15  C   UNL A   1     -24.345  -2.825  29.166  0.00  0.00    -0.022 A 
ATOM     16  C   UNL A   1     -25.643  -2.647  29.710  0.00  0.00    -0.004 A 
ATOM     17  C   UNL A   1     -26.574  -3.642  29.942  0.00  0.00    -0.000 A 
ATOM     18  C   UNL A   1     -26.234  -4.981  29.565  0.00  0.00    -0.000 A 
ATOM     19  C   UNL A   1     -25.030  -5.276  29.043  0.00  0.00    -0.000 A 
ATOM     20  C   UNL A   1     -24.092  -4.318  28.792  0.00  0.00    -0.004 A 
ENDBRANCH  14  15
ENDBRANCH  13  14
ENDBRANCH   6  13
TORSDOF 4
ENDMDL
ENDMDL
