REMARK  Name = No_1377-gen_results/8p0m/2024-11-26-14-13-15/
REMARK  4 active torsions:
REMARK  status: ('A' for Active; 'I' for Inactive)
REMARK    1  A    between atoms: C_2  and  C_7
REMARK    2  A    between atoms: C_12  and  C_13
REMARK    3  A    between atoms: C_13  and  C_14
REMARK    4  A    between atoms: C_14  and  C_15
REMARK                            x       y       z     vdW  Elec       q    Type
REMARK                         _______ _______ _______ _____ _____    ______ ____
ROOT
ATOM      1  C   UNL A   1     -27.106   1.102  27.759  0.00  0.00    -0.000 A 
ATOM      2  C   UNL A   1     -26.716   2.235  27.994  0.00  0.00    -0.000 A 
ATOM      3  C   UNL A   1     -26.693   3.346  27.034  0.00  0.00    -0.000 A 
ATOM      4  C   UNL A   1     -27.196   3.078  25.744  0.00  0.00    -0.004 A 
ATOM      5  C   UNL A   1     -27.581   0.888  26.371  0.00  0.00    -0.004 A 
ATOM      6  C   UNL A   1     -27.600   1.772  25.624  0.00  0.00    -0.022 A 
ENDROOT
BRANCH   1   8
ATOM      7  C   UNL A   1     -28.016  -0.814  28.878  0.00  0.00    -0.000 A 
ATOM      8  C   UNL A   1     -27.064  -0.119  28.608  0.00  0.00    -0.000 A 
ATOM      9  C   UNL A   1     -25.792  -0.430  29.076  0.00  0.00    -0.000 A 
ATOM     10  C   UNL A   1     -25.576  -1.565  29.936  0.00  0.00    -0.000 A 
ATOM     11  C   UNL A   1     -26.735  -2.300  30.217  0.00  0.00    +0.000 A 
ATOM     12  C   UNL A   1     -27.918  -1.954  29.763  0.00  0.00    -0.000 A 
ENDBRANCH   1   8
BRANCH   6  13
ATOM     13  C   UNL A   1     -28.172   1.528  24.169  0.00  0.00    +0.031 C 
BRANCH  13  14
ATOM     14  C   UNL A   1     -29.551   1.258  24.212  0.00  0.00    +0.031 C 
BRANCH  14  15
ATOM     15  C   UNL A   1     -30.547   1.730  23.771  0.00  0.00    -0.022 A 
ATOM     16  C   UNL A   1     -31.920   1.375  23.760  0.00  0.00    -0.004 A 
ATOM     17  C   UNL A   1     -32.953   2.125  23.230  0.00  0.00    -0.000 A 
ATOM     18  C   UNL A   1     -32.635   3.406  22.673  0.00  0.00    -0.000 A 
ATOM     19  C   UNL A   1     -31.367   3.852  22.623  0.00  0.00    -0.000 A 
ATOM     20  C   UNL A   1     -30.326   3.141  23.145  0.00  0.00    -0.004 A 
ENDBRANCH  14  15
ENDBRANCH  13  14
ENDBRANCH   6  13
TORSDOF 4
