REMARK  Name = No_1378-gen_results/8p0m/2024-11-26-14-13-15/
REMARK  3 active torsions:
REMARK  status: ('A' for Active; 'I' for Inactive)
REMARK    1  A    between atoms: C_4  and  C_8
REMARK    2  A    between atoms: C_8  and  C_10
REMARK    3  A    between atoms: N_9  and  C_14
REMARK                            x       y       z     vdW  Elec       q    Type
REMARK                         _______ _______ _______ _____ _____    ______ ____
ROOT
ATOM      1  C   UNL A   1     -25.967   2.369  29.068  0.00  0.00    +0.116 C 
ATOM      2  N   UNL A   1     -25.224   2.835  29.933  0.00  0.00    -0.296 N 
ATOM      3  C   UNL A   1     -24.838   1.966  27.988  0.00  0.00    -0.003 C 
ATOM      4  C   UNL A   1     -23.639   1.653  28.610  0.00  0.00    -0.007 C 
ATOM      5  C   UNL A   1     -23.802   2.278  30.012  0.00  0.00    +0.118 C 
ENDROOT
BRANCH   1   9
ATOM      6  C   UNL A   1     -28.016  -0.814  28.878  0.00  0.00    +0.011 A 
ATOM      7  C   UNL A   1     -28.469  -0.785  29.829  0.00  0.00    +0.001 A 
ATOM      8  C   UNL A   1     -27.136   0.236  28.535  0.00  0.00    +0.056 A 
ATOM      9  C   UNL A   1     -26.875   1.282  29.398  0.00  0.00    +0.012 A 
ATOM     10  C   UNL A   1     -28.361   0.199  30.924  0.00  0.00    -0.000 A 
ATOM     11  C   UNL A   1     -27.528   1.223  30.636  0.00  0.00    -0.001 A 
ATOM     12 CL   UNL A   1     -26.339   0.064  27.030  0.00  0.00    -0.083 Cl
ENDBRANCH   1   9
BRANCH   1  13
ATOM     13  C   UNL A   1     -26.706   3.582  28.492  0.00  0.00    +0.002 A 
ATOM     14  C   UNL A   1     -27.242   3.620  27.197  0.00  0.00    -0.002 A 
ATOM     15  C   UNL A   1     -28.154   4.013  27.026  0.00  0.00    -0.000 A 
ATOM     16  C   UNL A   1     -28.885   5.026  27.843  0.00  0.00    -0.000 A 
ATOM     17  C   UNL A   1     -28.314   5.192  29.088  0.00  0.00    -0.000 A 
ATOM     18  C   UNL A   1     -27.298   4.412  29.477  0.00  0.00    -0.002 A 
ENDBRANCH   1  13
BRANCH   2  19
ATOM     19  C   UNL A   1     -25.581   3.468  31.263  0.00  0.00    +0.049 A 
ATOM     20  C   UNL A   1     -25.368   2.995  32.478  0.00  0.00    +0.015 A 
ATOM     21  C   UNL A   1     -26.208   4.801  31.113  0.00  0.00    +0.015 A 
ATOM     22  C   UNL A   1     -25.772   3.699  33.655  0.00  0.00    +0.001 A 
ATOM     23  C   UNL A   1     -26.583   5.487  32.233  0.00  0.00    +0.001 A 
ATOM     24  C   UNL A   1     -26.371   4.947  33.521  0.00  0.00    +0.000 A 
ENDBRANCH   2  19
TORSDOF 3
