MODEL 1379
MODEL 1
REMARK VINA RESULT:    -4.435      0.000      0.000
REMARK INTER + INTRA:          -4.435
REMARK INTER:                  -4.435
REMARK INTRA:                   0.000
REMARK UNBOUND:                 0.000
REMARK  Name = No_1379-gen_results/8p0m/2024-11-26-14-13-15/
REMARK  0 active torsions:
REMARK  status: ('A' for Active; 'I' for Inactive)
REMARK                            x       y       z     vdW  Elec       q    Type
REMARK                         _______ _______ _______ _____ _____    ______ ____
ROOT
ATOM      1  C   UNL A   1     -24.905  -5.180  28.971  0.00  0.00    +0.001 A 
ATOM      2  C   UNL A   1     -24.065  -4.329  28.789  0.00  0.00    +0.011 A 
ATOM      3  C   UNL A   1     -24.221  -2.997  29.169  0.00  0.00    +0.058 A 
ATOM      4  C   UNL A   1     -25.473  -2.575  29.766  0.00  0.00    +0.011 A 
ATOM      5  C   UNL A   1     -26.420  -3.583  29.940  0.00  0.00    +0.001 A 
ATOM      6  C   UNL A   1     -26.194  -4.819  29.540  0.00  0.00    +0.000 A 
ATOM      7 CL   UNL A   1     -23.067  -1.750  28.934  0.00  0.00    -0.082 Cl
ENDROOT
TORSDOF 0
ENDMDL
ENDMDL
