MODEL 137
MODEL 1
REMARK VINA RESULT:    -6.618      0.000      0.000
REMARK INTER + INTRA:          -7.281
REMARK INTER:                  -7.005
REMARK INTRA:                  -0.275
REMARK UNBOUND:                -0.275
REMARK  Name = No_137-gen_results/8p0m/2024-11-26-14-13-15/
REMARK  1 active torsions:
REMARK  status: ('A' for Active; 'I' for Inactive)
REMARK    1  A    between atoms: C_3  and  C_7
REMARK                            x       y       z     vdW  Elec       q    Type
REMARK                         _______ _______ _______ _____ _____    ______ ____
ROOT
ATOM      1  C   UNL A   1     -23.493  -1.390  28.958  0.00  0.00    +0.011 A 
ATOM      2  C   UNL A   1     -22.388  -1.154  29.267  0.00  0.00    +0.001 A 
ATOM      3  C   UNL A   1     -21.664   0.068  28.960  0.00  0.00    +0.000 A 
ATOM      4  C   UNL A   1     -24.097  -0.390  28.007  0.00  0.00    +0.058 A 
ATOM      5  C   UNL A   1     -23.412   0.663  27.518  0.00  0.00    +0.011 A 
ATOM      6  C   UNL A   1     -22.197   0.948  28.073  0.00  0.00    +0.001 A 
ATOM      7 CL   UNL A   1     -25.708  -0.654  27.315  0.00  0.00    -0.082 Cl
ENDROOT
BRANCH   1  10
ATOM      8  C   UNL A   1     -25.623  -2.469  29.894  0.00  0.00    +0.000 A 
ATOM      9  C   UNL A   1     -26.202  -3.344  29.993  0.00  0.00    +0.000 A 
ATOM     10  C   UNL A   1     -24.391  -2.568  29.211  0.00  0.00    +0.001 A 
ATOM     11  C   UNL A   1     -23.935  -3.765  28.695  0.00  0.00    +0.000 A 
ATOM     12  C   UNL A   1     -25.954  -4.727  29.540  0.00  0.00    +0.000 A 
ATOM     13  C   UNL A   1     -24.782  -4.866  28.882  0.00  0.00    +0.000 A 
ENDBRANCH   1  10
TORSDOF 1
ENDMDL
ENDMDL
