REMARK  Name = No_1380-gen_results/8p0m/2024-11-26-14-13-15/
REMARK  10 active torsions:
REMARK  status: ('A' for Active; 'I' for Inactive)
REMARK    1  A    between atoms: C_2  and  C_23
REMARK    2  A    between atoms: C_3  and  C_7
REMARK    3  A    between atoms: C_6  and  O_14
REMARK    4  A    between atoms: C_7  and  C_8
REMARK    5  A    between atoms: C_8  and  P_9
REMARK    6  A    between atoms: P_9  and  O_12
REMARK    7  A    between atoms: O_14  and  C_15
REMARK    8  A    between atoms: C_20  and  N_30
REMARK    9  A    between atoms: C_31  and  C_32
REMARK   10  A    between atoms: C_33  and  C_34
REMARK                            x       y       z     vdW  Elec       q    Type
REMARK                         _______ _______ _______ _____ _____    ______ ____
ROOT
ATOM      1  C   UNL A   1     -28.016  -0.814  28.878  0.00  0.00    +0.037 A 
ATOM      2  C   UNL A   1     -27.064  -0.119  28.608  0.00  0.00    -0.001 A 
ATOM      3  C   UNL A   1     -25.765  -0.390  29.036  0.00  0.00    -0.021 A 
ATOM      4  C   UNL A   1     -25.530  -1.530  29.901  0.00  0.00    -0.001 A 
ATOM      5  C   UNL A   1     -26.689  -2.289  30.181  0.00  0.00    +0.037 A 
ATOM      6  C   UNL A   1     -27.873  -1.951  29.737  0.00  0.00    +0.141 A 
ENDROOT
BRANCH   2   7
ATOM      7  C   UNL A   1     -27.193   1.089  27.677  0.00  0.00    -0.000 A 
ATOM      8  C   UNL A   1     -27.915   1.021  26.581  0.00  0.00    -0.000 A 
ATOM      9  C   UNL A   1     -28.007   2.127  25.753  0.00  0.00    -0.000 A 
ATOM     10  C   UNL A   1     -27.615   3.045  26.015  0.00  0.00    -0.000 A 
ATOM     11  C   UNL A   1     -26.760   3.404  27.177  0.00  0.00    -0.000 A 
ATOM     12  C   UNL A   1     -26.584   2.358  28.007  0.00  0.00    -0.000 A 
ENDBRANCH   2   7
BRANCH   3  13
ATOM     13  C   UNL A   1     -24.549   0.410  28.734  0.00  0.00    +0.039 C 
BRANCH  13  14
ATOM     14  C   UNL A   1     -24.093   1.378  29.576  0.00  0.00    +0.125 C 
BRANCH  14  15
ATOM     15  P   UNL A   1     -22.727   2.287  29.247  0.00  0.00    +0.400 P 
ATOM     16  O   UNL A   1     -21.613   1.653  28.832  0.00  0.00    -0.253 OA
ATOM     17  O   UNL A   1     -22.499   3.065  30.229  0.00  0.00    -0.138 OA
BRANCH  15  18
ATOM     18  O   UNL A   1     -23.449   3.117  28.017  0.00  0.00    -0.104 OA
ATOM     19  F   UNL A   1     -24.016   4.100  28.238  0.00  0.00    -0.039 F 
ENDBRANCH  15  18
ENDBRANCH  14  15
ENDBRANCH  13  14
ENDBRANCH   3  13
BRANCH   6  20
ATOM     20  O   UNL A   1     -28.971  -2.725  30.096  0.00  0.00    -0.453 OA
BRANCH  20  21
ATOM     21  C   UNL A   1     -28.846  -3.952  30.695  0.00  0.00    +0.296 C 
ATOM     22  C   UNL A   1     -28.974  -4.996  29.816  0.00  0.00    +0.102 C 
ATOM     23  C   UNL A   1     -30.373  -5.101  29.456  0.00  0.00    -0.020 C 
ATOM     24  C   UNL A   1     -31.150  -5.532  29.962  0.00  0.00    -0.003 C 
ATOM     25  C   UNL A   1     -31.009  -6.022  31.331  0.00  0.00    +0.017 C 
ATOM     26  C   UNL A   1     -30.325  -5.223  32.335  0.00  0.00    +0.098 C 
ATOM     27  C   UNL A   1     -29.854  -4.041  31.907  0.00  0.00    +0.266 C 
ATOM     28  F   UNL A   1     -29.985  -2.982  32.550  0.00  0.00    -0.224 F 
ATOM     29  O   UNL A   1     -27.677  -4.132  31.466  0.00  0.00    -0.177 OA
BRANCH  26  30
ATOM     30  N   UNL A   1     -29.441  -5.958  33.145  0.00  0.00    -0.245 NA
ATOM     31  C   UNL A   1     -29.927  -7.163  33.722  0.00  0.00    +0.099 C 
BRANCH  31  32
ATOM     32  C   UNL A   1     -28.821  -7.861  34.321  0.00  0.00    +0.021 C 
ATOM     33  C   UNL A   1     -28.628  -9.154  33.993  0.00  0.00    +0.002 C 
BRANCH  33  34
ATOM     34  C   UNL A   1     -29.517  -9.740  33.096  0.00  0.00    +0.000 C 
ATOM     35  C   UNL A   1     -30.584  -9.056  32.534  0.00  0.00    +0.000 C 
ENDBRANCH  33  34
ENDBRANCH  31  32
ENDBRANCH  26  30
ENDBRANCH  20  21
ENDBRANCH   6  20
TORSDOF 10
