MODEL 1380
MODEL 1
REMARK VINA RESULT:    -7.115      0.000      0.000
REMARK INTER + INTRA:         -13.153
REMARK INTER:                 -11.274
REMARK INTRA:                  -1.879
REMARK UNBOUND:                -1.879
REMARK  Name = No_1380-gen_results/8p0m/2024-11-26-14-13-15/
REMARK  10 active torsions:
REMARK  status: ('A' for Active; 'I' for Inactive)
REMARK    1  A    between atoms: C_2  and  C_23
REMARK    2  A    between atoms: C_3  and  C_7
REMARK    3  A    between atoms: C_6  and  O_14
REMARK    4  A    between atoms: C_7  and  C_8
REMARK    5  A    between atoms: C_8  and  P_9
REMARK    6  A    between atoms: P_9  and  O_12
REMARK    7  A    between atoms: O_14  and  C_15
REMARK    8  A    between atoms: C_20  and  N_30
REMARK    9  A    between atoms: C_31  and  C_32
REMARK   10  A    between atoms: C_33  and  C_34
REMARK                            x       y       z     vdW  Elec       q    Type
REMARK                         _______ _______ _______ _____ _____    ______ ____
ROOT
ATOM      1  C   UNL A   1     -29.115   1.940  23.652  0.00  0.00    +0.037 A 
ATOM      2  C   UNL A   1     -30.200   1.556  23.281  0.00  0.00    -0.001 A 
ATOM      3  C   UNL A   1     -30.587   0.217  23.284  0.00  0.00    -0.021 A 
ATOM      4  C   UNL A   1     -29.632  -0.793  23.696  0.00  0.00    -0.001 A 
ATOM      5  C   UNL A   1     -28.383  -0.272  24.105  0.00  0.00    +0.037 A 
ATOM      6  C   UNL A   1     -28.108   1.007  24.061  0.00  0.00    +0.141 A 
ENDROOT
BRANCH   2   7
ATOM      7  C   UNL A   1     -31.295   2.539  22.858  0.00  0.00    -0.000 A 
ATOM      8  C   UNL A   1     -31.595   2.707  21.589  0.00  0.00    -0.000 A 
ATOM      9  C   UNL A   1     -32.584   3.609  21.235  0.00  0.00    -0.000 A 
ATOM     10  C   UNL A   1     -33.174   4.083  21.936  0.00  0.00    -0.000 A 
ATOM     11  C   UNL A   1     -33.057   4.080  23.418  0.00  0.00    -0.000 A 
ATOM     12  C   UNL A   1     -32.077   3.258  23.838  0.00  0.00    -0.000 A 
ENDBRANCH   2   7
BRANCH   3  13
ATOM     13  C   UNL A   1     -31.904  -0.324  22.857  0.00  0.00    +0.039 C 
BRANCH  13  14
ATOM     14  C   UNL A   1     -32.835  -0.754  23.753  0.00  0.00    +0.125 C 
BRANCH  14  15
ATOM     15  P   UNL A   1     -34.328  -0.017  23.923  0.00  0.00    +0.400 P 
ATOM     16  O   UNL A   1     -34.480   0.921  24.879  0.00  0.00    -0.253 OA
ATOM     17  O   UNL A   1     -35.230  -0.914  23.983  0.00  0.00    -0.138 OA
BRANCH  15  18
ATOM     18  O   UNL A   1     -34.286   0.652  22.416  0.00  0.00    -0.104 OA
ATOM     19  F   UNL A   1     -35.112   1.391  22.088  0.00  0.00    -0.039 F 
ENDBRANCH  15  18
ENDBRANCH  14  15
ENDBRANCH  13  14
ENDBRANCH   3  13
BRANCH   6  20
ATOM     20  O   UNL A   1     -26.840   1.434  24.438  0.00  0.00    -0.453 OA
BRANCH  20  21
ATOM     21  C   UNL A   1     -26.373   1.319  25.722  0.00  0.00    +0.296 C 
ATOM     22  C   UNL A   1     -26.271   2.524  26.368  0.00  0.00    +0.102 C 
ATOM     23  C   UNL A   1     -25.133   3.228  25.813  0.00  0.00    -0.020 C 
ATOM     24  C   UNL A   1     -24.136   3.124  26.012  0.00  0.00    -0.003 C 
ATOM     25  C   UNL A   1     -23.620   2.042  26.848  0.00  0.00    +0.017 C 
ATOM     26  C   UNL A   1     -24.096   0.680  26.671  0.00  0.00    +0.098 C 
ATOM     27  C   UNL A   1     -25.015   0.512  25.707  0.00  0.00    +0.266 C 
ATOM     28  F   UNL A   1     -24.978  -0.423  24.885  0.00  0.00    -0.224 F 
ATOM     29  O   UNL A   1     -27.074   0.408  26.541  0.00  0.00    -0.177 OA
BRANCH  26  30
ATOM     30  N   UNL A   1     -24.368   0.008  27.876  0.00  0.00    -0.245 NA
ATOM     31  C   UNL A   1     -23.282  -0.637  28.528  0.00  0.00    +0.099 C 
BRANCH  31  32
ATOM     32  C   UNL A   1     -23.720  -1.067  29.829  0.00  0.00    +0.021 C 
ATOM     33  C   UNL A   1     -24.106  -2.350  29.982  0.00  0.00    +0.002 C 
BRANCH  33  34
ATOM     34  C   UNL A   1     -24.063  -3.182  28.867  0.00  0.00    +0.000 C 
ATOM     35  C   UNL A   1     -24.369  -4.533  28.921  0.00  0.00    +0.000 C 
ENDBRANCH  33  34
ENDBRANCH  31  32
ENDBRANCH  26  30
ENDBRANCH  20  21
ENDBRANCH   6  20
TORSDOF 10
ENDMDL
ENDMDL
