REMARK  Name = No_1382-gen_results/8p0m/2024-11-26-14-13-15/
REMARK  4 active torsions:
REMARK  status: ('A' for Active; 'I' for Inactive)
REMARK    1  A    between atoms: C_2  and  C_18
REMARK    2  A    between atoms: C_3  and  C_11
REMARK    3  A    between atoms: C_11  and  C_12
REMARK    4  A    between atoms: N_20  and  C_21
REMARK                            x       y       z     vdW  Elec       q    Type
REMARK                         _______ _______ _______ _____ _____    ______ ____
ROOT
ATOM      1  C   UNL A   1     -28.016  -0.814  28.878  0.00  0.00    +0.001 A 
ATOM      2  C   UNL A   1     -28.469  -0.785  29.829  0.00  0.00    +0.055 A 
ATOM      3  C   UNL A   1     -26.504  -0.778  28.877  0.00  0.00    -0.018 A 
ATOM      4  C   UNL A   1     -25.810  -0.853  30.103  0.00  0.00    -0.004 A 
ATOM      5  C   UNL A   1     -27.991  -0.892  31.226  0.00  0.00    +0.005 A 
ATOM      6  C   UNL A   1     -24.398  -0.836  30.177  0.00  0.00    -0.000 A 
ATOM      7  C   UNL A   1     -26.575  -0.890  31.266  0.00  0.00    -0.000 A 
ATOM      8  C   UNL A   1     -23.771  -0.918  31.096  0.00  0.00    -0.000 A 
ATOM      9  C   UNL A   1     -24.451  -0.972  32.439  0.00  0.00    -0.000 A 
ATOM     10  C   UNL A   1     -25.824  -0.881  32.492  0.00  0.00    -0.000 A 
ENDROOT
BRANCH   2  11
ATOM     11  C   UNL A   1     -30.108  -0.812  29.864  0.00  0.00    +0.269 C 
ATOM     12  O   UNL A   1     -30.636  -0.129  29.112  0.00  0.00    -0.268 OA
ATOM     13  N   UNL A   1     -30.754  -1.653  30.689  0.00  0.00    -0.174 NA
BRANCH  13  14
ATOM     14  C   UNL A   1     -32.174  -1.771  30.636  0.00  0.00    +0.084 C 
ATOM     15  C   UNL A   1     -32.976  -1.169  30.286  0.00  0.00    -0.008 C 
ATOM     16  C   UNL A   1     -32.707   0.173  29.942  0.00  0.00    +0.032 C 
ENDBRANCH  13  14
ENDBRANCH   2  11
BRANCH   3  17
ATOM     17  C   UNL A   1     -25.712  -0.714  27.623  0.00  0.00    +0.053 C 
BRANCH  17  18
ATOM     18  C   UNL A   1     -25.615   0.634  27.102  0.00  0.00    -0.018 A 
ATOM     19  C   UNL A   1     -24.526   1.039  26.540  0.00  0.00    -0.004 A 
ATOM     20  C   UNL A   1     -24.396   2.431  26.034  0.00  0.00    -0.000 A 
ATOM     21  C   UNL A   1     -25.491   3.212  26.095  0.00  0.00    -0.000 A 
ATOM     22  C   UNL A   1     -26.696   1.600  27.142  0.00  0.00    -0.004 A 
ATOM     23  C   UNL A   1     -26.607   2.820  26.642  0.00  0.00    -0.000 A 
ENDBRANCH  17  18
ENDBRANCH   3  17
TORSDOF 4
