MODEL 1383
MODEL 1
REMARK VINA RESULT:    -4.642      0.000      0.000
REMARK INTER + INTRA:          -4.937
REMARK INTER:                  -4.914
REMARK INTRA:                  -0.024
REMARK UNBOUND:                -0.024
REMARK  Name = No_1383-gen_results/8p0m/2024-11-26-14-13-15/
REMARK  1 active torsions:
REMARK  status: ('A' for Active; 'I' for Inactive)
REMARK    1  A    between atoms: C_2  and  O_7
REMARK                            x       y       z     vdW  Elec       q    Type
REMARK                         _______ _______ _______ _____ _____    ______ ____
ROOT
ATOM      1  C   UNL A   1     -24.926  -2.516  29.631  0.00  0.00    +0.037 A 
ATOM      2  C   UNL A   1     -24.175  -3.034  29.104  0.00  0.00    +0.139 A 
ATOM      3  C   UNL A   1     -26.177  -3.311  29.929  0.00  0.00    +0.003 A 
ATOM      4  C   UNL A   1     -26.210  -4.688  29.626  0.00  0.00    +0.000 A 
ATOM      5  C   UNL A   1     -23.947  -4.443  28.710  0.00  0.00    +0.037 A 
ATOM      6  C   UNL A   1     -25.075  -5.207  28.974  0.00  0.00    +0.003 A 
ENDROOT
BRANCH   2   7
ATOM      7  O   UNL A   1     -22.955  -2.266  28.811  0.00  0.00    -0.471 OA
ATOM      8  C   UNL A   1     -22.659  -1.112  29.154  0.00  0.00    +0.253 C 
ENDBRANCH   2   7
TORSDOF 1
ENDMDL
ENDMDL
