REMARK  Name = No_1384-gen_results/8p0m/2024-11-26-14-13-15/
REMARK  3 active torsions:
REMARK  status: ('A' for Active; 'I' for Inactive)
REMARK    1  A    between atoms: C_2  and  C_8
REMARK    2  A    between atoms: C_4  and  C_11
REMARK    3  A    between atoms: C_11  and  C_12
REMARK                            x       y       z     vdW  Elec       q    Type
REMARK                         _______ _______ _______ _____ _____    ______ ____
ROOT
ATOM      1  C   UNL A   1     -28.016  -0.814  28.878  0.00  0.00    +0.018 A 
ATOM      2  C   UNL A   1     -28.469  -0.785  29.829  0.00  0.00    +0.081 A 
ATOM      3  C   UNL A   1     -27.087   0.290  28.638  0.00  0.00    +0.054 A 
ATOM      4  C   UNL A   1     -26.832   1.249  29.587  0.00  0.00    -0.002 A 
ATOM      5  C   UNL A   1     -28.391   0.080  31.006  0.00  0.00    +0.006 A 
ATOM      6  C   UNL A   1     -27.494   1.152  30.784  0.00  0.00    -0.003 A 
ATOM      7 CL   UNL A   1     -26.209   0.394  27.165  0.00  0.00    -0.083 Cl
ENDROOT
BRANCH   2   8
ATOM      8  C   UNL A   1     -29.474  -1.998  30.238  0.00  0.00    +0.388 C 
ATOM      9  O   UNL A   1     -29.151  -3.219  30.305  0.00  0.00    -0.241 OA
ATOM     10  O   UNL A   1     -30.740  -1.756  30.482  0.00  0.00    -0.241 OA
ENDBRANCH   2   8
BRANCH   4  11
ATOM     11  C   UNL A   1     -25.814   2.216  29.160  0.00  0.00    +0.116 C 
BRANCH  11  12
ATOM     12  C   UNL A   1     -24.449   2.003  29.233  0.00  0.00    +0.265 C 
ATOM     13  N   UNL A   1     -23.613   2.421  28.262  0.00  0.00    -0.087 NA
ATOM     14  O   UNL A   1     -23.918   1.367  30.255  0.00  0.00    -0.271 OA
ENDBRANCH  11  12
ENDBRANCH   4  11
TORSDOF 3
