MODEL 1384
MODEL 1
REMARK VINA RESULT:    -5.324      0.000      0.000
REMARK INTER + INTRA:          -6.471
REMARK INTER:                  -6.257
REMARK INTRA:                  -0.213
REMARK UNBOUND:                -0.213
REMARK  Name = No_1384-gen_results/8p0m/2024-11-26-14-13-15/
REMARK  3 active torsions:
REMARK  status: ('A' for Active; 'I' for Inactive)
REMARK    1  A    between atoms: C_2  and  C_8
REMARK    2  A    between atoms: C_4  and  C_11
REMARK    3  A    between atoms: C_11  and  C_12
REMARK                            x       y       z     vdW  Elec       q    Type
REMARK                         _______ _______ _______ _____ _____    ______ ____
ROOT
ATOM      1  C   UNL A   1     -19.739 -20.919   6.917  0.00  0.00    +0.018 A 
ATOM      2  C   UNL A   1     -19.223 -20.202   6.343  0.00  0.00    +0.081 A 
ATOM      3  C   UNL A   1     -18.857 -21.847   7.625  0.00  0.00    +0.054 A 
ATOM      4  C   UNL A   1     -17.489 -21.756   7.547  0.00  0.00    -0.002 A 
ATOM      5  C   UNL A   1     -17.822 -19.871   6.082  0.00  0.00    +0.006 A 
ATOM      6  C   UNL A   1     -16.960 -20.764   6.763  0.00  0.00    -0.003 A 
ATOM      7 CL   UNL A   1     -19.503 -23.061   8.654  0.00  0.00    -0.083 Cl
ENDROOT
BRANCH   2   8
ATOM      8  C   UNL A   1     -20.096 -19.073   5.561  0.00  0.00    +0.388 C 
ATOM      9  O   UNL A   1     -20.766 -19.272   4.507  0.00  0.00    -0.241 OA
ATOM     10  O   UNL A   1     -20.104 -17.831   5.984  0.00  0.00    -0.241 OA
ENDBRANCH   2   8
BRANCH   4  11
ATOM     11  C   UNL A   1     -16.804 -22.740   8.395  0.00  0.00    +0.116 C 
BRANCH  11  12
ATOM     12  C   UNL A   1     -15.776 -22.441   9.270  0.00  0.00    +0.265 C 
ATOM     13  N   UNL A   1     -14.488 -22.421   8.872  0.00  0.00    -0.087 NA
ATOM     14  O   UNL A   1     -16.021 -22.179  10.536  0.00  0.00    -0.271 OA
ENDBRANCH  11  12
ENDBRANCH   4  11
TORSDOF 3
ENDMDL
ENDMDL
