REMARK  Name = No_1385-gen_results/8p0m/2024-11-26-14-13-15/
REMARK  0 active torsions:
REMARK  status: ('A' for Active; 'I' for Inactive)
REMARK                            x       y       z     vdW  Elec       q    Type
REMARK                         _______ _______ _______ _____ _____    ______ ____
ROOT
ATOM      1  O   UNL A   1     -28.123  -1.335  28.487  0.00  0.00    -0.273 OA
ATOM      2  C   UNL A   1     -27.064  -0.824  28.869  0.00  0.00    +0.241 C 
ATOM      3  C   UNL A   1     -25.946  -1.040  28.849  0.00  0.00    +0.087 C 
ATOM      4  C   UNL A   1     -24.760  -0.156  29.164  0.00  0.00    +0.011 C 
ATOM      5  C   UNL A   1     -23.389  -0.455  29.016  0.00  0.00    +0.001 C 
ATOM      6  N   UNL A   1     -27.182   0.710  29.293  0.00  0.00    -0.205 NA
ATOM      7  C   UNL A   1     -26.324   1.558  29.608  0.00  0.00    +0.115 C 
ATOM      8  C   UNL A   1     -25.003   1.223  29.521  0.00  0.00    +0.022 C 
ATOM      9  C   UNL A   1     -22.786  -1.601  29.455  0.00  0.00    +0.000 C 
ATOM     10  C   UNL A   1     -22.509   0.565  28.456  0.00  0.00    +0.000 C 
ATOM     11  C   UNL A   1     -22.930   1.776  27.911  0.00  0.00    +0.000 C 
ATOM     12  C   UNL A   1     -24.223   2.281  28.517  0.00  0.00    +0.002 C 
ENDROOT
TORSDOF 0
