MODEL 1385
MODEL 1
REMARK VINA RESULT:    -5.296      0.000      0.000
REMARK INTER + INTRA:          -5.296
REMARK INTER:                  -5.296
REMARK INTRA:                   0.000
REMARK UNBOUND:                 0.000
REMARK  Name = No_1385-gen_results/8p0m/2024-11-26-14-13-15/
REMARK  0 active torsions:
REMARK  status: ('A' for Active; 'I' for Inactive)
REMARK                            x       y       z     vdW  Elec       q    Type
REMARK                         _______ _______ _______ _____ _____    ______ ____
ROOT
ATOM      1  O   UNL A   1     -25.598   0.249  24.759  0.00  0.00    -0.273 OA
ATOM      2  C   UNL A   1     -24.962   0.462  25.797  0.00  0.00    +0.241 C 
ATOM      3  C   UNL A   1     -24.648  -0.087  26.744  0.00  0.00    +0.087 C 
ATOM      4  C   UNL A   1     -23.643   0.277  27.814  0.00  0.00    +0.011 C 
ATOM      5  C   UNL A   1     -23.221  -0.502  28.912  0.00  0.00    +0.001 C 
ATOM      6  N   UNL A   1     -24.066   1.783  25.768  0.00  0.00    -0.205 NA
ATOM      7  C   UNL A   1     -23.226   2.240  26.568  0.00  0.00    +0.115 C 
ATOM      8  C   UNL A   1     -22.883   1.496  27.660  0.00  0.00    +0.022 C 
ATOM      9  C   UNL A   1     -24.056  -1.161  29.771  0.00  0.00    +0.000 C 
ATOM     10  C   UNL A   1     -21.800  -0.533  29.241  0.00  0.00    +0.000 C 
ATOM     11  C   UNL A   1     -20.786   0.032  28.470  0.00  0.00    +0.000 C 
ATOM     12  C   UNL A   1     -21.251   1.226  27.663  0.00  0.00    +0.002 C 
ENDROOT
TORSDOF 0
ENDMDL
ENDMDL
