MODEL 1386
MODEL 1
REMARK VINA RESULT:    -6.520      0.000      0.000
REMARK INTER + INTRA:          -8.569
REMARK INTER:                  -8.044
REMARK INTRA:                  -0.524
REMARK UNBOUND:                -0.524
REMARK  Name = No_1386-gen_results/8p0m/2024-11-26-14-13-15/
REMARK  4 active torsions:
REMARK  status: ('A' for Active; 'I' for Inactive)
REMARK    1  A    between atoms: C_1  and  C_2
REMARK    2  A    between atoms: C_1  and  C_4
REMARK    3  A    between atoms: C_4  and  C_5
REMARK    4  A    between atoms: C_5  and  C_6
REMARK                            x       y       z     vdW  Elec       q    Type
REMARK                         _______ _______ _______ _____ _____    ______ ____
ROOT
ATOM      1  C   UNL A   1     -24.667  -2.439  29.562  0.00  0.00    +0.058 C 
ATOM      2  C   UNL A   1     -23.845  -3.517  28.889  0.00  0.00    +0.016 C 
ATOM      3  N   UNL A   1     -25.794  -2.785  30.010  0.00  0.00    -0.275 NA
ATOM      4  C   UNL A   1     -26.521  -1.899  30.637  0.00  0.00    +0.072 C 
ATOM      5  C   UNL A   1     -27.897  -2.326  31.001  0.00  0.00    +0.017 C 
ATOM      6  C   UNL A   1     -26.351  -4.076  29.860  0.00  0.00    +0.058 C 
ATOM      7  C   UNL A   1     -27.613  -4.520  30.128  0.00  0.00    +0.016 C 
ATOM      8  C   UNL A   1     -28.341  -3.616  30.883  0.00  0.00    +0.003 C 
ATOM      9  C   UNL A   1     -24.215  -4.811  28.649  0.00  0.00    +0.003 C 
ATOM     10  C   UNL A   1     -25.540  -5.053  29.137  0.00  0.00    +0.016 C 
ENDROOT
BRANCH   1  11
ATOM     11  C   UNL A   1     -23.853  -1.378  29.863  0.00  0.00    +0.016 C 
BRANCH  11  12
ATOM     12  C   UNL A   1     -22.793  -1.190  28.991  0.00  0.00    +0.008 C 
BRANCH  12  13
ATOM     13  C   UNL A   1     -22.010  -0.081  29.091  0.00  0.00    +0.083 C 
BRANCH  13  14
ATOM     14  C   UNL A   1     -22.328   0.803  28.329  0.00  0.00    +0.330 C 
ATOM     15 CL   UNL A   1     -21.340   1.574  27.459  0.00  0.00    -0.047 Cl
ATOM     16  F   UNL A   1     -23.360   0.283  27.303  0.00  0.00    -0.187 F 
ATOM     17  F   UNL A   1     -23.318   1.803  28.827  0.00  0.00    -0.187 F 
ENDBRANCH  13  14
ENDBRANCH  12  13
ENDBRANCH  11  12
ENDBRANCH   1  11
TORSDOF 4
ENDMDL
ENDMDL
