REMARK  Name = No_1386-gen_results/8p0m/2024-11-26-14-13-15/
REMARK  4 active torsions:
REMARK  status: ('A' for Active; 'I' for Inactive)
REMARK    1  A    between atoms: C_1  and  C_2
REMARK    2  A    between atoms: C_1  and  C_4
REMARK    3  A    between atoms: C_4  and  C_5
REMARK    4  A    between atoms: C_5  and  C_6
REMARK                            x       y       z     vdW  Elec       q    Type
REMARK                         _______ _______ _______ _____ _____    ______ ____
ROOT
ATOM      1  C   UNL A   1     -29.063  -2.885  30.267  0.00  0.00    +0.058 C 
ATOM      2  C   UNL A   1     -27.853  -3.792  30.218  0.00  0.00    +0.016 C 
ATOM      3  N   UNL A   1     -30.176  -3.413  29.996  0.00  0.00    -0.275 NA
ATOM      4  C   UNL A   1     -31.255  -2.679  30.067  0.00  0.00    +0.072 C 
ATOM      5  C   UNL A   1     -32.508  -3.316  29.587  0.00  0.00    +0.017 C 
ATOM      6  C   UNL A   1     -30.345  -4.757  29.590  0.00  0.00    +0.058 C 
ATOM      7  C   UNL A   1     -31.449  -5.389  29.098  0.00  0.00    +0.016 C 
ATOM      8  C   UNL A   1     -32.604  -4.646  29.273  0.00  0.00    +0.003 C 
ATOM      9  C   UNL A   1     -27.819  -5.107  29.846  0.00  0.00    +0.003 C 
ATOM     10  C   UNL A   1     -29.130  -5.563  29.492  0.00  0.00    +0.016 C 
ENDROOT
BRANCH   1  11
ATOM     11  C   UNL A   1     -28.738  -1.742  30.950  0.00  0.00    +0.016 C 
BRANCH  11  12
ATOM     12  C   UNL A   1     -28.467  -0.643  30.152  0.00  0.00    +0.008 C 
BRANCH  12  13
ATOM     13  C   UNL A   1     -28.016  -0.814  28.878  0.00  0.00    +0.083 C 
BRANCH  13  14
ATOM     14  C   UNL A   1     -27.064  -0.119  28.608  0.00  0.00    +0.330 C 
ATOM     15 CL   UNL A   1     -25.616  -0.516  28.877  0.00  0.00    -0.047 Cl
ATOM     16  F   UNL A   1     -27.056   0.221  27.101  0.00  0.00    -0.187 F 
ATOM     17  F   UNL A   1     -27.170   1.333  28.940  0.00  0.00    -0.187 F 
ENDBRANCH  13  14
ENDBRANCH  12  13
ENDBRANCH  11  12
ENDBRANCH   1  11
TORSDOF 4
