MODEL 1387
MODEL 1
REMARK VINA RESULT:    -6.364      0.000      0.000
REMARK INTER + INTRA:         -10.049
REMARK INTER:                  -9.340
REMARK INTRA:                  -0.709
REMARK UNBOUND:                -0.709
REMARK  Name = No_1387-gen_results/8p0m/2024-11-26-14-13-15/
REMARK  8 active torsions:
REMARK  status: ('A' for Active; 'I' for Inactive)
REMARK    1  A    between atoms: C_1  and  C_2
REMARK    2  A    between atoms: C_5  and  C_12
REMARK    3  A    between atoms: N_8  and  C_11
REMARK    4  A    between atoms: C_11  and  C_15
REMARK    5  A    between atoms: C_11  and  C_18
REMARK    6  A    between atoms: C_18  and  C_20
REMARK    7  A    between atoms: C_20  and  C_21
REMARK    8  A    between atoms: C_21  and  C_22
REMARK                            x       y       z     vdW  Elec       q    Type
REMARK                         _______ _______ _______ _____ _____    ______ ____
ROOT
ATOM      1  C   UNL A   1     -25.378   1.273  25.985  0.00  0.00    +0.249 C 
ATOM      2  N   UNL A   1     -25.396   0.925  27.396  0.00  0.00    -0.265 N 
ATOM      3  O   UNL A   1     -24.335   0.773  25.429  0.00  0.00    -0.270 OA
ATOM      4  C   UNL A   1     -26.545   1.208  28.215  0.00  0.00    +0.116 C 
ENDROOT
BRANCH   1   5
ATOM      5  C   UNL A   1     -26.423   1.372  25.385  0.00  0.00    +0.054 A 
ATOM      6  C   UNL A   1     -27.049   2.552  25.142  0.00  0.00    +0.005 A 
ATOM      7  C   UNL A   1     -28.326   2.690  24.407  0.00  0.00    +0.007 A 
ATOM      8  C   UNL A   1     -28.919   1.486  23.904  0.00  0.00    +0.080 A 
ATOM      9  C   UNL A   1     -28.201   0.288  24.115  0.00  0.00    +0.007 A 
ATOM     10  C   UNL A   1     -27.018   0.236  24.808  0.00  0.00    +0.005 A 
BRANCH   8  11
ATOM     11  C   UNL A   1     -30.151   1.463  23.153  0.00  0.00    +0.388 C 
ATOM     12  O   UNL A   1     -30.861   0.688  22.891  0.00  0.00    -0.241 OA
ATOM     13  O   UNL A   1     -30.507   2.769  22.833  0.00  0.00    -0.241 OA
ENDBRANCH   8  11
ENDBRANCH   1   5
BRANCH   2  14
ATOM     14  C   UNL A   1     -24.205   0.690  28.157  0.00  0.00    +0.194 C 
BRANCH  14  15
ATOM     15  C   UNL A   1     -23.577   1.768  28.706  0.00  0.00    +0.384 C 
ATOM     16  O   UNL A   1     -23.557   2.016  29.811  0.00  0.00    -0.244 OA
ATOM     17  O   UNL A   1     -22.535   2.301  27.890  0.00  0.00    -0.244 OA
ENDBRANCH  14  15
BRANCH  14  18
ATOM     18  C   UNL A   1     -23.741  -0.578  28.412  0.00  0.00    +0.109 C 
ATOM     19 CL   UNL A   1     -22.317  -0.872  29.006  0.00  0.00    -0.113 Cl
BRANCH  18  20
ATOM     20  C   UNL A   1     -24.621  -1.651  28.221  0.00  0.00    +0.023 C 
BRANCH  20  21
ATOM     21  C   UNL A   1     -24.802  -2.457  29.221  0.00  0.00    +0.027 C 
BRANCH  21  22
ATOM     22  C   UNL A   1     -24.427  -3.668  29.251  0.00  0.00    -0.031 C 
ATOM     23  C   UNL A   1     -25.101  -4.699  29.225  0.00  0.00    -0.030 C 
ATOM     24  C   UNL A   1     -24.822  -5.750  28.918  0.00  0.00    +0.030 C 
ENDBRANCH  21  22
ENDBRANCH  20  21
ENDBRANCH  18  20
ENDBRANCH  14  18
ENDBRANCH   2  14
TORSDOF 8
ENDMDL
ENDMDL
