REMARK  Name = No_1387-gen_results/8p0m/2024-11-26-14-13-15/
REMARK  8 active torsions:
REMARK  status: ('A' for Active; 'I' for Inactive)
REMARK    1  A    between atoms: C_1  and  C_2
REMARK    2  A    between atoms: C_5  and  C_12
REMARK    3  A    between atoms: N_8  and  C_11
REMARK    4  A    between atoms: C_11  and  C_15
REMARK    5  A    between atoms: C_11  and  C_18
REMARK    6  A    between atoms: C_18  and  C_20
REMARK    7  A    between atoms: C_20  and  C_21
REMARK    8  A    between atoms: C_21  and  C_22
REMARK                            x       y       z     vdW  Elec       q    Type
REMARK                         _______ _______ _______ _____ _____    ______ ____
ROOT
ATOM      1  C   UNL A   1     -28.016  -0.814  28.878  0.00  0.00    +0.249 C 
ATOM      2  N   UNL A   1     -27.982  -1.637  30.075  0.00  0.00    -0.265 N 
ATOM      3  O   UNL A   1     -29.216  -0.413  28.663  0.00  0.00    -0.270 OA
ATOM      4  C   UNL A   1     -26.732  -2.068  30.643  0.00  0.00    +0.116 C 
ENDROOT
BRANCH   1   5
ATOM      5  C   UNL A   1     -27.064  -0.119  28.608  0.00  0.00    +0.054 A 
ATOM      6  C   UNL A   1     -26.929   1.171  29.008  0.00  0.00    +0.005 A 
ATOM      7  C   UNL A   1     -25.770   2.034  28.688  0.00  0.00    +0.007 A 
ATOM      8  C   UNL A   1     -24.714   1.443  27.919  0.00  0.00    +0.080 A 
ATOM      9  C   UNL A   1     -24.859   0.078  27.584  0.00  0.00    +0.007 A 
ATOM     10  C   UNL A   1     -25.965  -0.661  27.916  0.00  0.00    +0.005 A 
BRANCH   8  11
ATOM     11  C   UNL A   1     -23.513   2.151  27.547  0.00  0.00    +0.388 C 
ATOM     12  O   UNL A   1     -22.489   1.853  27.359  0.00  0.00    -0.241 OA
ATOM     13  O   UNL A   1     -23.840   3.473  27.262  0.00  0.00    -0.241 OA
ENDBRANCH   8  11
ENDBRANCH   1   5
BRANCH   2  14
ATOM     14  C   UNL A   1     -29.101  -2.411  30.522  0.00  0.00    +0.194 C 
BRANCH  14  15
ATOM     15  C   UNL A   1     -28.992  -3.770  30.482  0.00  0.00    +0.384 C 
ATOM     16  O   UNL A   1     -28.930  -4.389  29.535  0.00  0.00    -0.244 OA
ATOM     17  O   UNL A   1     -28.466  -4.338  31.680  0.00  0.00    -0.244 OA
ENDBRANCH  14  15
BRANCH  14  18
ATOM     18  C   UNL A   1     -30.224  -1.829  31.058  0.00  0.00    +0.109 C 
ATOM     19 CL   UNL A   1     -30.202  -0.467  31.839  0.00  0.00    -0.113 Cl
BRANCH  18  20
ATOM     20  C   UNL A   1     -31.462  -2.437  30.809  0.00  0.00    +0.023 C 
BRANCH  20  21
ATOM     21  C   UNL A   1     -32.419  -1.680  30.369  0.00  0.00    +0.027 C 
BRANCH  21  22
ATOM     22  C   UNL A   1     -32.695  -0.527  30.820  0.00  0.00    -0.031 C 
ATOM     23  C   UNL A   1     -31.938   0.368  31.200  0.00  0.00    -0.030 C 
ATOM     24  C   UNL A   1     -32.104   1.482  31.282  0.00  0.00    +0.030 C 
ENDBRANCH  21  22
ENDBRANCH  20  21
ENDBRANCH  18  20
ENDBRANCH  14  18
ENDBRANCH   2  14
TORSDOF 8
