REMARK  Name = No_1388-gen_results/8p0m/2024-11-26-14-13-15/
REMARK  8 active torsions:
REMARK  status: ('A' for Active; 'I' for Inactive)
REMARK    1  A    between atoms: C_3  and  C_4
REMARK    2  A    between atoms: C_6  and  C_13
REMARK    3  A    between atoms: C_13  and  O_15
REMARK    4  A    between atoms: O_15  and  C_16
REMARK    5  A    between atoms: C_16  and  C_17
REMARK    6  A    between atoms: C_17  and  C_25
REMARK    7  A    between atoms: C_22  and  C_28
REMARK    8  A    between atoms: C_26  and  C_27
REMARK                            x       y       z     vdW  Elec       q    Type
REMARK                         _______ _______ _______ _____ _____    ______ ____
ROOT
ATOM      1  O   UNL A   1     -29.975  -2.141  30.982  0.00  0.00    -0.397 OA
ENDROOT
BRANCH   1   2
ATOM      2  C   UNL A   1     -31.047  -2.482  31.240  0.00  0.00    +0.413 C 
ATOM      3  F   UNL A   1     -31.816  -1.211  30.990  0.00  0.00    -0.162 F 
ATOM      4  F   UNL A   1     -31.600  -3.102  30.126  0.00  0.00    -0.162 F 
BRANCH   2   5
ATOM      5  C   UNL A   1     -31.357  -2.903  32.417  0.00  0.00    +0.114 C 
ATOM      6  C   UNL A   1     -30.767  -2.196  33.436  0.00  0.00    +0.013 C 
ATOM      7  C   UNL A   1     -30.015  -2.875  34.300  0.00  0.00    +0.001 C 
ATOM      8  C   UNL A   1     -29.911  -4.161  34.392  0.00  0.00    +0.000 C 
ATOM      9  C   UNL A   1     -30.650  -4.928  33.424  0.00  0.00    +0.001 C 
ATOM     10  C   UNL A   1     -31.191  -4.241  32.349  0.00  0.00    +0.013 C 
BRANCH   5  11
ATOM     11  C   UNL A   1     -32.893  -2.829  32.779  0.00  0.00    -0.022 C 
ATOM     12  C   UNL A   1     -33.709  -3.320  32.033  0.00  0.00    -0.030 C 
BRANCH  12  13
ATOM     13  C   UNL A   1     -33.537  -4.165  31.002  0.00  0.00    +0.026 C 
ATOM     14  C   UNL A   1     -34.106  -4.897  30.029  0.00  0.00    +0.005 C 
ENDBRANCH  12  13
ENDBRANCH   5  11
BRANCH  10  15
ATOM     15  C   UNL A   1     -31.802  -5.098  31.413  0.00  0.00    +0.001 C 
ATOM     16  C   UNL A   1     -32.117  -6.328  31.835  0.00  0.00    +0.000 C 
ENDBRANCH  10  15
ENDBRANCH   2   5
ENDBRANCH   1   2
BRANCH   1  17
ATOM     17  C   UNL A   1     -29.041  -2.736  30.291  0.00  0.00    +0.345 C 
ATOM     18  O   UNL A   1     -28.967  -3.957  30.395  0.00  0.00    -0.245 OA
BRANCH  17  22
ATOM     19  C   UNL A   1     -28.016  -0.814  28.878  0.00  0.00    +0.006 A 
ATOM     20  C   UNL A   1     -27.064  -0.119  28.608  0.00  0.00    +0.000 A 
ATOM     21  C   UNL A   1     -25.792  -0.430  29.076  0.00  0.00    +0.000 A 
ATOM     22  C   UNL A   1     -27.882  -1.899  29.863  0.00  0.00    +0.076 A 
ATOM     23  C   UNL A   1     -26.653  -2.314  30.314  0.00  0.00    +0.006 A 
ATOM     24  C   UNL A   1     -25.515  -1.561  29.979  0.00  0.00    +0.000 A 
BRANCH  21  25
ATOM     25  C   UNL A   1     -24.546   0.349  28.823  0.00  0.00    +0.000 A 
ATOM     26  C   UNL A   1     -23.241   0.022  29.332  0.00  0.00    +0.000 A 
ATOM     27  C   UNL A   1     -22.165   0.794  28.952  0.00  0.00    +0.000 A 
ATOM     28  C   UNL A   1     -22.124   1.748  27.989  0.00  0.00    +0.000 A 
ATOM     29  C   UNL A   1     -24.614   1.596  28.061  0.00  0.00    +0.000 A 
ATOM     30  C   UNL A   1     -23.388   2.174  27.580  0.00  0.00    +0.000 A 
ENDBRANCH  21  25
ENDBRANCH  17  22
ENDBRANCH   1  17
TORSDOF 8
