MODEL 1388
MODEL 1
REMARK VINA RESULT:    -7.316      0.000      0.000
REMARK INTER + INTRA:         -12.278
REMARK INTER:                 -10.737
REMARK INTRA:                  -1.541
REMARK UNBOUND:                -1.541
REMARK  Name = No_1388-gen_results/8p0m/2024-11-26-14-13-15/
REMARK  8 active torsions:
REMARK  status: ('A' for Active; 'I' for Inactive)
REMARK    1  A    between atoms: C_3  and  C_4
REMARK    2  A    between atoms: C_6  and  C_13
REMARK    3  A    between atoms: C_13  and  O_15
REMARK    4  A    between atoms: O_15  and  C_16
REMARK    5  A    between atoms: C_16  and  C_17
REMARK    6  A    between atoms: C_17  and  C_25
REMARK    7  A    between atoms: C_22  and  C_28
REMARK    8  A    between atoms: C_26  and  C_27
REMARK                            x       y       z     vdW  Elec       q    Type
REMARK                         _______ _______ _______ _____ _____    ______ ____
ROOT
ATOM      1  O   UNL A   1     -23.393   1.336  28.342  0.00  0.00    -0.397 OA
ENDROOT
BRANCH   1   2
ATOM      2  C   UNL A   1     -23.391   0.370  28.974  0.00  0.00    +0.413 C 
ATOM      3  F   UNL A   1     -22.978  -0.644  27.939  0.00  0.00    -0.162 F 
ATOM      4  F   UNL A   1     -22.174   0.271  29.638  0.00  0.00    -0.162 F 
BRANCH   2   5
ATOM      5  C   UNL A   1     -24.460  -0.066  29.545  0.00  0.00    +0.114 C 
ATOM      6  C   UNL A   1     -25.285  -0.782  28.713  0.00  0.00    +0.013 C 
ATOM      7  C   UNL A   1     -26.537  -0.352  28.570  0.00  0.00    +0.001 C 
ATOM      8  C   UNL A   1     -27.122   0.572  29.262  0.00  0.00    +0.000 C 
ATOM      9  C   UNL A   1     -26.312   1.232  30.252  0.00  0.00    +0.001 C 
ATOM     10  C   UNL A   1     -24.946   1.005  30.208  0.00  0.00    +0.013 C 
BRANCH   5  11
ATOM     11  C   UNL A   1     -24.226  -1.059  30.751  0.00  0.00    -0.022 C 
ATOM     12  C   UNL A   1     -24.201  -2.252  30.549  0.00  0.00    -0.030 C 
BRANCH  12  13
ATOM     13  C   UNL A   1     -24.106  -2.929  29.392  0.00  0.00    +0.026 C 
ATOM     14  C   UNL A   1     -24.066  -4.124  28.777  0.00  0.00    +0.005 C 
ENDBRANCH  12  13
ENDBRANCH   5  11
BRANCH  10  15
ATOM     15  C   UNL A   1     -24.240   1.777  31.152  0.00  0.00    +0.001 C 
ATOM     16  C   UNL A   1     -24.965   2.392  32.093  0.00  0.00    +0.000 C 
ENDBRANCH  10  15
ENDBRANCH   2   5
ENDBRANCH   1   2
BRANCH   1  17
ATOM     17  C   UNL A   1     -23.284   1.503  27.052  0.00  0.00    +0.345 C 
ATOM     18  O   UNL A   1     -22.320   2.152  26.657  0.00  0.00    -0.245 OA
BRANCH  17  22
ATOM     19  C   UNL A   1     -24.717   0.253  25.284  0.00  0.00    +0.006 A 
ATOM     20  C   UNL A   1     -25.768   0.132  24.699  0.00  0.00    +0.000 A 
ATOM     21  C   UNL A   1     -26.753   1.111  24.779  0.00  0.00    +0.000 A 
ATOM     22  C   UNL A   1     -24.531   1.352  26.246  0.00  0.00    +0.076 A 
ATOM     23  C   UNL A   1     -25.421   2.394  26.329  0.00  0.00    +0.006 A 
ATOM     24  C   UNL A   1     -26.633   2.313  25.622  0.00  0.00    +0.000 A 
BRANCH  21  25
ATOM     25  C   UNL A   1     -28.088   1.073  24.116  0.00  0.00    +0.000 A 
ATOM     26  C   UNL A   1     -28.890  -0.105  23.925  0.00  0.00    +0.000 A 
ATOM     27  C   UNL A   1     -30.141   0.025  23.361  0.00  0.00    +0.000 A 
ATOM     28  C   UNL A   1     -30.827   1.168  23.113  0.00  0.00    +0.000 A 
ATOM     29  C   UNL A   1     -28.640   2.295  23.531  0.00  0.00    +0.000 A 
ATOM     30  C   UNL A   1     -30.030   2.312  23.163  0.00  0.00    +0.000 A 
ENDBRANCH  21  25
ENDBRANCH  17  22
ENDBRANCH   1  17
TORSDOF 8
ENDMDL
ENDMDL
