REMARK  Name = No_1389-gen_results/8p0m/2024-11-26-14-13-15/
REMARK  1 active torsions:
REMARK  status: ('A' for Active; 'I' for Inactive)
REMARK    1  A    between atoms: C_3  and  C_4
REMARK                            x       y       z     vdW  Elec       q    Type
REMARK                         _______ _______ _______ _____ _____    ______ ____
ROOT
ATOM      1  C   UNL A   1     -28.016  -0.814  28.878  0.00  0.00    +0.011 A 
ATOM      2  C   UNL A   1     -27.064  -0.119  28.608  0.00  0.00    +0.001 A 
ATOM      3  C   UNL A   1     -26.929   1.171  29.008  0.00  0.00    +0.002 A 
ATOM      4  C   UNL A   1     -29.071  -0.334  29.769  0.00  0.00    +0.058 A 
ATOM      5  C   UNL A   1     -28.934   0.819  30.128  0.00  0.00    +0.011 A 
ATOM      6  C   UNL A   1     -27.890   1.690  29.843  0.00  0.00    +0.001 A 
ATOM      7 CL   UNL A   1     -30.400  -1.387  30.104  0.00  0.00    -0.082 Cl
ENDROOT
BRANCH   3   8
ATOM      8  C   UNL A   1     -25.770   2.034  28.688  0.00  0.00    +0.019 A 
ATOM      9  C   UNL A   1     -25.619   3.348  29.092  0.00  0.00    +0.099 A 
ATOM     10  C   UNL A   1     -24.747   1.558  27.772  0.00  0.00    -0.001 A 
ATOM     11  C   UNL A   1     -23.843   2.038  27.616  0.00  0.00    -0.003 A 
ATOM     12  C   UNL A   1     -22.700   1.425  26.835  0.00  0.00    +0.033 C 
ATOM     13  N   UNL A   1     -24.587   4.111  28.546  0.00  0.00    -0.243 NA
ATOM     14  C   UNL A   1     -23.616   3.541  27.880  0.00  0.00    +0.095 A 
ENDBRANCH   3   8
TORSDOF 1
