MODEL 1389
MODEL 1
REMARK VINA RESULT:    -6.079      0.000      0.000
REMARK INTER + INTRA:          -6.695
REMARK INTER:                  -6.435
REMARK INTRA:                  -0.260
REMARK UNBOUND:                -0.260
REMARK  Name = No_1389-gen_results/8p0m/2024-11-26-14-13-15/
REMARK  1 active torsions:
REMARK  status: ('A' for Active; 'I' for Inactive)
REMARK    1  A    between atoms: C_3  and  C_4
REMARK                            x       y       z     vdW  Elec       q    Type
REMARK                         _______ _______ _______ _____ _____    ______ ____
ROOT
ATOM      1  C   UNL A   1     -24.543   0.754  25.594  0.00  0.00    +0.011 A 
ATOM      2  C   UNL A   1     -25.090  -0.073  26.286  0.00  0.00    +0.001 A 
ATOM      3  C   UNL A   1     -24.708  -0.372  27.554  0.00  0.00    +0.002 A 
ATOM      4  C   UNL A   1     -23.467   1.589  26.124  0.00  0.00    +0.058 A 
ATOM      5  C   UNL A   1     -23.141   1.318  27.263  0.00  0.00    +0.011 A 
ATOM      6  C   UNL A   1     -23.696   0.371  28.114  0.00  0.00    +0.001 A 
ATOM      7 CL   UNL A   1     -22.735   2.746  25.070  0.00  0.00    -0.082 Cl
ENDROOT
BRANCH   3   8
ATOM      8  C   UNL A   1     -25.368  -1.379  28.415  0.00  0.00    +0.019 A 
ATOM      9  C   UNL A   1     -26.471  -1.144  29.215  0.00  0.00    +0.099 A 
ATOM     10  C   UNL A   1     -24.772  -2.695  28.573  0.00  0.00    -0.001 A 
ATOM     11  C   UNL A   1     -25.245  -3.492  29.035  0.00  0.00    -0.003 A 
ATOM     12  C   UNL A   1     -24.713  -4.909  28.999  0.00  0.00    +0.033 C 
ATOM     13  N   UNL A   1     -26.861  -2.116  30.136  0.00  0.00    -0.243 NA
ATOM     14  C   UNL A   1     -26.379  -3.331  30.068  0.00  0.00    +0.095 A 
ENDBRANCH   3   8
TORSDOF 1
ENDMDL
ENDMDL
