MODEL 138
MODEL 1
REMARK VINA RESULT:    -7.995      0.000      0.000
REMARK INTER + INTRA:          -9.528
REMARK INTER:                  -8.929
REMARK INTRA:                  -0.599
REMARK UNBOUND:                -0.599
REMARK  Name = No_138-gen_results/8p0m/2024-11-26-14-13-15/
REMARK  2 active torsions:
REMARK  status: ('A' for Active; 'I' for Inactive)
REMARK    1  A    between atoms: C_4  and  C_9
REMARK    2  A    between atoms: C_9  and  C_10
REMARK                            x       y       z     vdW  Elec       q    Type
REMARK                         _______ _______ _______ _____ _____    ______ ____
ROOT
ATOM      1  C   UNL A   1     -25.081   0.238  27.191  0.00  0.00    -0.000 A 
ATOM      2  C   UNL A   1     -25.419   1.018  26.568  0.00  0.00    -0.000 A 
ATOM      3  C   UNL A   1     -23.741   0.362  27.690  0.00  0.00    -0.004 A 
ATOM      4  C   UNL A   1     -23.231  -0.554  28.731  0.00  0.00    -0.018 A 
ATOM      5  C   UNL A   1     -21.915  -0.757  28.942  0.00  0.00    -0.004 A 
ATOM      6  C   UNL A   1     -24.663   2.058  25.884  0.00  0.00    -0.000 A 
ATOM      7  C   UNL A   1     -23.383   2.168  26.292  0.00  0.00    -0.000 A 
ATOM      8  C   UNL A   1     -22.868   1.317  27.264  0.00  0.00    -0.000 A 
ATOM      9  C   UNL A   1     -21.548   1.341  27.684  0.00  0.00    -0.000 A 
ATOM     10  C   UNL A   1     -21.035   0.333  28.561  0.00  0.00    -0.000 A 
ENDROOT
BRANCH   4  11
ATOM     11  C   UNL A   1     -24.114  -1.146  29.709  0.00  0.00    +0.053 C 
BRANCH  11  12
ATOM     12  C   UNL A   1     -24.529  -2.523  29.466  0.00  0.00    -0.018 A 
ATOM     13  C   UNL A   1     -25.803  -2.863  29.703  0.00  0.00    -0.004 A 
ATOM     14  C   UNL A   1     -26.205  -4.285  29.702  0.00  0.00    -0.000 A 
ATOM     15  C   UNL A   1     -23.842  -3.564  28.676  0.00  0.00    -0.004 A 
ATOM     16  C   UNL A   1     -24.169  -4.835  28.635  0.00  0.00    -0.000 A 
ATOM     17  C   UNL A   1     -25.449  -5.220  29.124  0.00  0.00    -0.000 A 
ENDBRANCH  11  12
ENDBRANCH   4  11
TORSDOF 2
ENDMDL
ENDMDL
