MODEL 1390
MODEL 1
REMARK VINA RESULT:    -6.749      0.000      0.000
REMARK INTER + INTRA:          -8.053
REMARK INTER:                  -7.538
REMARK INTRA:                  -0.515
REMARK UNBOUND:                -0.515
REMARK  Name = No_1390-gen_results/8p0m/2024-11-26-14-13-15/
REMARK  2 active torsions:
REMARK  status: ('A' for Active; 'I' for Inactive)
REMARK    1  A    between atoms: C_3  and  C_4
REMARK    2  A    between atoms: C_4  and  C_8
REMARK                            x       y       z     vdW  Elec       q    Type
REMARK                         _______ _______ _______ _____ _____    ______ ____
ROOT
ATOM      1  C   UNL A   1     -24.237  -1.395  29.178  0.00  0.00    +0.196 C 
ATOM      2  O   UNL A   1     -23.835  -1.063  30.474  0.00  0.00    -0.287 OA
ENDROOT
BRANCH   1   5
ATOM      3  C   UNL A   1     -24.646   0.080  27.083  0.00  0.00    +0.003 A 
ATOM      4  C   UNL A   1     -24.247   0.903  26.559  0.00  0.00    +0.000 A 
ATOM      5  C   UNL A   1     -23.834  -0.335  28.227  0.00  0.00    +0.039 A 
ATOM      6  C   UNL A   1     -23.062   1.738  26.701  0.00  0.00    +0.000 A 
ATOM      7  C   UNL A   1     -22.263   1.368  27.763  0.00  0.00    +0.000 A 
ATOM      8  C   UNL A   1     -22.652   0.368  28.574  0.00  0.00    +0.003 A 
ENDBRANCH   1   5
BRANCH   1   9
ATOM      9  C   UNL A   1     -24.672  -2.465  29.058  0.00  0.00    +0.039 A 
ATOM     10  C   UNL A   1     -25.856  -2.869  29.798  0.00  0.00    +0.003 A 
ATOM     11  C   UNL A   1     -26.300  -4.248  29.719  0.00  0.00    +0.000 A 
ATOM     12  C   UNL A   1     -25.418  -5.236  29.246  0.00  0.00    +0.000 A 
ATOM     13  C   UNL A   1     -24.231  -4.861  28.650  0.00  0.00    +0.000 A 
ATOM     14  C   UNL A   1     -23.850  -3.509  28.578  0.00  0.00    +0.003 A 
ENDBRANCH   1   9
TORSDOF 2
ENDMDL
ENDMDL
