REMARK  Name = No_1390-gen_results/8p0m/2024-11-26-14-13-15/
REMARK  2 active torsions:
REMARK  status: ('A' for Active; 'I' for Inactive)
REMARK    1  A    between atoms: C_3  and  C_4
REMARK    2  A    between atoms: C_4  and  C_8
REMARK                            x       y       z     vdW  Elec       q    Type
REMARK                         _______ _______ _______ _____ _____    ______ ____
ROOT
ATOM      1  C   UNL A   1     -26.252   0.411  27.422  0.00  0.00    +0.196 C 
ATOM      2  O   UNL A   1     -26.946  -0.066  26.307  0.00  0.00    -0.287 OA
ENDROOT
BRANCH   1   5
ATOM      3  C   UNL A   1     -28.016  -0.814  28.878  0.00  0.00    +0.003 A 
ATOM      4  C   UNL A   1     -28.469  -0.785  29.829  0.00  0.00    +0.000 A 
ATOM      5  C   UNL A   1     -27.087   0.290  28.638  0.00  0.00    +0.039 A 
ATOM      6  C   UNL A   1     -28.391   0.104  30.980  0.00  0.00    +0.000 A 
ATOM      7  C   UNL A   1     -27.533   1.167  30.787  0.00  0.00    +0.000 A 
ATOM      8  C   UNL A   1     -26.828   1.256  29.645  0.00  0.00    +0.003 A 
ENDBRANCH   1   5
BRANCH   1   9
ATOM      9  C   UNL A   1     -25.138   0.675  27.231  0.00  0.00    +0.039 A 
ATOM     10  C   UNL A   1     -24.185   0.701  28.329  0.00  0.00    +0.003 A 
ATOM     11  C   UNL A   1     -22.831   1.154  28.076  0.00  0.00    +0.000 A 
ATOM     12  C   UNL A   1     -22.549   1.885  26.908  0.00  0.00    +0.000 A 
ATOM     13  C   UNL A   1     -23.499   1.968  25.910  0.00  0.00    +0.000 A 
ATOM     14  C   UNL A   1     -24.775   1.399  26.073  0.00  0.00    +0.003 A 
ENDBRANCH   1   9
TORSDOF 2
