REMARK  Name = No_1391-gen_results/8p0m/2024-11-26-14-13-15/
REMARK  5 active torsions:
REMARK  status: ('A' for Active; 'I' for Inactive)
REMARK    1  A    between atoms: C_1  and  C_3
REMARK    2  A    between atoms: C_3  and  C_4
REMARK    3  A    between atoms: C_7  and  C_24
REMARK    4  A    between atoms: C_19  and  C_26
REMARK    5  A    between atoms: C_31  and  C_33
REMARK                            x       y       z     vdW  Elec       q    Type
REMARK                         _______ _______ _______ _____ _____    ______ ____
ROOT
ATOM      1  C   UNL A   1     -27.119   0.393  28.893  0.00  0.00    +0.090 C 
ATOM      2  C   UNL A   1     -27.433   1.231  27.596  0.00  0.00    +0.024 C 
ATOM      3  N   UNL A   1     -27.527   1.307  29.975  0.00  0.00    -0.206 NA
ATOM      4  C   UNL A   1     -27.850   2.526  29.836  0.00  0.00    +0.129 C 
ATOM      5  C   UNL A   1     -27.493   0.504  26.407  0.00  0.00    +0.028 C 
ATOM      6  C   UNL A   1     -27.972   3.132  28.576  0.00  0.00    +0.029 C 
ATOM      7  C   UNL A   1     -27.714   2.509  27.527  0.00  0.00    +0.009 C 
ATOM      8  C   UNL A   1     -28.636   0.673  25.554  0.00  0.00    -0.026 A 
ATOM      9  C   UNL A   1     -29.340  -0.011  25.247  0.00  0.00    -0.005 A 
ATOM     10  C   UNL A   1     -30.487   0.245  24.303  0.00  0.00    -0.000 A 
ATOM     11  C   UNL A   1     -30.537   1.489  23.758  0.00  0.00    -0.000 A 
ATOM     12  C   UNL A   1     -29.594   2.462  24.135  0.00  0.00    -0.005 A 
ATOM     13  C   UNL A   1     -28.574   2.147  25.024  0.00  0.00    -0.026 A 
ATOM     14  C   UNL A   1     -28.123   3.067  26.201  0.00  0.00    +0.026 C 
ATOM     15 BR   UNL A   1     -28.037   3.622  31.405  0.00  0.00    -0.062 Br
ENDROOT
BRANCH   1  16
ATOM     16  C   UNL A   1     -25.797   0.137  28.988  0.00  0.00    -0.007 A 
ATOM     17  C   UNL A   1     -25.242  -0.024  30.127  0.00  0.00    -0.003 A 
ATOM     18  C   UNL A   1     -23.749  -0.241  30.274  0.00  0.00    +0.004 A 
ATOM     19  C   UNL A   1     -23.108  -0.124  29.330  0.00  0.00    +0.057 A 
ATOM     20  C   UNL A   1     -23.572   0.095  28.001  0.00  0.00    +0.004 A 
ATOM     21  C   UNL A   1     -24.956   0.208  27.852  0.00  0.00    -0.003 A 
BRANCH  19  22
ATOM     22  C   UNL A   1     -21.569  -0.321  29.364  0.00  0.00    +0.284 C 
ATOM     23  N   UNL A   1     -20.852   0.387  28.625  0.00  0.00    -0.084 NA
ATOM     24  O   UNL A   1     -21.126  -1.137  30.190  0.00  0.00    -0.267 OA
ENDBRANCH  19  22
ENDBRANCH   1  16
BRANCH  11  25
ATOM     25  C   UNL A   1     -31.500   1.913  22.731  0.00  0.00    -0.000 A 
ATOM     26  C   UNL A   1     -32.688   1.200  22.519  0.00  0.00    -0.000 A 
ATOM     27  C   UNL A   1     -31.445   3.238  22.124  0.00  0.00    -0.000 A 
ATOM     28  C   UNL A   1     -32.466   3.542  21.160  0.00  0.00    -0.000 A 
ATOM     29  C   UNL A   1     -33.647   1.477  21.602  0.00  0.00    -0.000 A 
ATOM     30  C   UNL A   1     -33.529   2.723  20.884  0.00  0.00    -0.000 A 
BRANCH  30  31
ATOM     31  C   UNL A   1     -34.553   3.099  19.880  0.00  0.00    -0.005 C 
ATOM     32  C   UNL A   1     -34.860   4.159  19.450  0.00  0.00    -0.026 C 
ATOM     33  C   UNL A   1     -35.856   4.463  18.450  0.00  0.00    +0.031 C 
ENDBRANCH  30  31
ENDBRANCH  11  25
BRANCH   1  34
ATOM     34  C   UNL A   1     -28.016  -0.814  28.878  0.00  0.00    +0.088 C 
ATOM     35 BR   UNL A   1     -28.595  -0.993  29.889  0.00  0.00    -0.079 Br
ENDBRANCH   1  34
TORSDOF 5
