MODEL 1391
MODEL 1
REMARK VINA RESULT:    -8.280      0.000      0.000
REMARK INTER + INTRA:         -11.802
REMARK INTER:                 -10.700
REMARK INTRA:                  -1.102
REMARK UNBOUND:                -1.102
REMARK  Name = No_1391-gen_results/8p0m/2024-11-26-14-13-15/
REMARK  5 active torsions:
REMARK  status: ('A' for Active; 'I' for Inactive)
REMARK    1  A    between atoms: C_1  and  C_3
REMARK    2  A    between atoms: C_3  and  C_4
REMARK    3  A    between atoms: C_7  and  C_24
REMARK    4  A    between atoms: C_19  and  C_26
REMARK    5  A    between atoms: C_31  and  C_33
REMARK                            x       y       z     vdW  Elec       q    Type
REMARK                         _______ _______ _______ _____ _____    ______ ____
ROOT
ATOM      1  C   UNL A   1     -11.393   1.810  38.473  0.00  0.00    +0.090 C 
ATOM      2  C   UNL A   1     -10.671   0.875  37.430  0.00  0.00    +0.024 C 
ATOM      3  N   UNL A   1     -11.610   0.909  39.619  0.00  0.00    -0.206 NA
ATOM      4  C   UNL A   1     -11.424  -0.346  39.623  0.00  0.00    +0.129 C 
ATOM      5  C   UNL A   1     -10.015   1.528  36.386  0.00  0.00    +0.028 C 
ATOM      6  C   UNL A   1     -10.859  -1.025  38.533  0.00  0.00    +0.029 C 
ATOM      7  C   UNL A   1     -10.560  -0.430  37.479  0.00  0.00    +0.009 C 
ATOM      8  C   UNL A   1      -8.651   1.176  36.105  0.00  0.00    -0.026 A 
ATOM      9  C   UNL A   1      -7.799   1.752  36.134  0.00  0.00    -0.005 A 
ATOM     10  C   UNL A   1      -6.405   1.308  35.771  0.00  0.00    -0.000 A 
ATOM     11  C   UNL A   1      -6.293   0.042  35.292  0.00  0.00    -0.000 A 
ATOM     12  C   UNL A   1      -7.427  -0.787  35.221  0.00  0.00    -0.005 A 
ATOM     13  C   UNL A   1      -8.677  -0.304  35.589  0.00  0.00    -0.026 A 
ATOM     14  C   UNL A   1      -9.704  -1.101  36.453  0.00  0.00    +0.026 C 
ATOM     15 BR   UNL A   1     -12.071  -1.375  41.113  0.00  0.00    -0.062 Br
ENDROOT
BRANCH   1  16
ATOM     16  C   UNL A   1     -12.582   2.232  37.993  0.00  0.00    -0.007 A 
ATOM     17  C   UNL A   1     -12.771   2.366  36.737  0.00  0.00    -0.003 A 
ATOM     18  C   UNL A   1     -14.069   2.905  36.169  0.00  0.00    +0.004 A 
ATOM     19  C   UNL A   1     -14.836   3.316  36.916  0.00  0.00    +0.057 A 
ATOM     20  C   UNL A   1     -14.755   3.276  38.338  0.00  0.00    +0.004 A 
ATOM     21  C   UNL A   1     -13.596   2.699  38.863  0.00  0.00    -0.003 A 
BRANCH  19  22
ATOM     22  C   UNL A   1     -16.198   3.894  36.447  0.00  0.00    +0.284 C 
ATOM     23  N   UNL A   1     -16.851   4.616  37.230  0.00  0.00    -0.084 NA
ATOM     24  O   UNL A   1     -16.532   3.660  35.273  0.00  0.00    -0.267 OA
ENDBRANCH  19  22
ENDBRANCH   1  16
BRANCH  11  25
ATOM     25  C   UNL A   1      -5.051  -0.549  34.774  0.00  0.00    -0.000 A 
ATOM     26  C   UNL A   1      -4.992  -1.902  34.412  0.00  0.00    -0.000 A 
ATOM     27  C   UNL A   1      -3.943   0.275  34.305  0.00  0.00    -0.000 A 
ATOM     28  C   UNL A   1      -2.799  -0.425  33.788  0.00  0.00    -0.000 A 
ATOM     29  C   UNL A   1      -3.912  -2.569  33.937  0.00  0.00    -0.000 A 
ATOM     30  C   UNL A   1      -2.750  -1.781  33.602  0.00  0.00    -0.000 A 
BRANCH  30  31
ATOM     31  C   UNL A   1      -1.539  -2.442  33.059  0.00  0.00    -0.005 C 
ATOM     32  C   UNL A   1      -0.968  -2.284  32.034  0.00  0.00    -0.026 C 
ATOM     33  C   UNL A   1       0.227  -2.946  31.566  0.00  0.00    +0.031 C 
ENDBRANCH  30  31
ENDBRANCH  11  25
BRANCH   1  34
ATOM     34  C   UNL A   1     -10.423   2.895  38.852  0.00  0.00    +0.088 C 
ATOM     35 BR   UNL A   1      -9.966   2.773  39.932  0.00  0.00    -0.079 Br
ENDBRANCH   1  34
TORSDOF 5
ENDMDL
ENDMDL
