MODEL 1392
MODEL 1
REMARK VINA RESULT:    -6.348      0.000      0.000
REMARK INTER + INTRA:          -6.969
REMARK INTER:                  -6.719
REMARK INTRA:                  -0.250
REMARK UNBOUND:                -0.250
REMARK  Name = No_1392-gen_results/8p0m/2024-11-26-14-13-15/
REMARK  1 active torsions:
REMARK  status: ('A' for Active; 'I' for Inactive)
REMARK    1  A    between atoms: C_4  and  C_11
REMARK                            x       y       z     vdW  Elec       q    Type
REMARK                         _______ _______ _______ _____ _____    ______ ____
ROOT
ATOM      1  C   UNL A   1     -25.801   0.550  25.998  0.00  0.00    -0.000 A 
ATOM      2  C   UNL A   1     -25.529  -0.341  26.769  0.00  0.00    -0.000 A 
ATOM      3  C   UNL A   1     -24.398  -0.338  27.584  0.00  0.00    -0.000 A 
ATOM      4  C   UNL A   1     -23.985  -1.384  28.541  0.00  0.00    -0.000 A 
ATOM      5  C   UNL A   1     -22.786  -1.367  29.338  0.00  0.00    -0.000 A 
ATOM      6  C   UNL A   1     -22.089  -0.155  29.321  0.00  0.00    -0.000 A 
ATOM      7  C   UNL A   1     -24.775   1.632  25.805  0.00  0.00    +0.000 A 
ATOM      8  C   UNL A   1     -23.678   1.762  26.626  0.00  0.00    -0.000 A 
ATOM      9  C   UNL A   1     -23.398   0.760  27.537  0.00  0.00    -0.000 A 
ATOM     10  C   UNL A   1     -22.305   0.847  28.399  0.00  0.00    -0.000 A 
ENDROOT
BRANCH   4  11
ATOM     11  C   UNL A   1     -24.822  -2.616  28.712  0.00  0.00    -0.005 C 
ATOM     12  C   UNL A   1     -24.150  -3.828  28.809  0.00  0.00    -0.026 C 
ATOM     13  C   UNL A   1     -24.925  -4.986  29.056  0.00  0.00    +0.031 C 
ENDBRANCH   4  11
TORSDOF 1
ENDMDL
ENDMDL
