MODEL 1393
MODEL 1
REMARK VINA RESULT:    -6.643      0.000      0.000
REMARK INTER + INTRA:          -7.994
REMARK INTER:                  -7.420
REMARK INTRA:                  -0.575
REMARK UNBOUND:                -0.575
REMARK  Name = No_1393-gen_results/8p0m/2024-11-26-14-13-15/
REMARK  2 active torsions:
REMARK  status: ('A' for Active; 'I' for Inactive)
REMARK    1  A    between atoms: C_2  and  C_11
REMARK    2  A    between atoms: C_4  and  C_6
REMARK                            x       y       z     vdW  Elec       q    Type
REMARK                         _______ _______ _______ _____ _____    ______ ____
ROOT
ATOM      1  C   UNL A   1     -23.442  -0.383  29.729  0.00  0.00    +0.058 A 
ATOM      2  C   UNL A   1     -24.012  -1.015  28.870  0.00  0.00    +0.011 A 
ATOM      3  C   UNL A   1     -24.331  -0.502  27.628  0.00  0.00    +0.007 A 
ATOM      4  C   UNL A   1     -23.802   0.695  27.332  0.00  0.00    +0.080 A 
ATOM      5  C   UNL A   1     -22.642   0.723  29.370  0.00  0.00    +0.012 A 
ATOM      6  C   UNL A   1     -22.955   1.324  28.201  0.00  0.00    +0.007 A 
ATOM      7 CL   UNL A   1     -23.090  -1.178  31.301  0.00  0.00    -0.082 Cl
ENDROOT
BRANCH   2   8
ATOM      8  C   UNL A   1     -24.763  -2.396  29.190  0.00  0.00    +0.001 A 
ATOM      9  C   UNL A   1     -24.232  -3.500  28.859  0.00  0.00    +0.000 A 
ATOM     10  C   UNL A   1     -24.678  -4.733  29.186  0.00  0.00    +0.000 A 
ATOM     11  C   UNL A   1     -26.042  -4.747  29.578  0.00  0.00    +0.000 A 
ATOM     12  C   UNL A   1     -26.706  -3.581  29.971  0.00  0.00    +0.000 A 
ATOM     13  C   UNL A   1     -26.044  -2.391  29.735  0.00  0.00    +0.000 A 
ENDBRANCH   2   8
BRANCH   4  14
ATOM     14  C   UNL A   1     -24.061   1.297  26.070  0.00  0.00    +0.388 C 
ATOM     15  O   UNL A   1     -23.544   2.280  25.657  0.00  0.00    -0.241 OA
ATOM     16  O   UNL A   1     -24.663   0.499  25.134  0.00  0.00    -0.241 OA
ENDBRANCH   4  14
TORSDOF 2
ENDMDL
ENDMDL
