MODEL 1394
MODEL 1
REMARK VINA RESULT:    -4.491      0.000      0.000
REMARK INTER + INTRA:          -4.491
REMARK INTER:                  -4.491
REMARK INTRA:                   0.000
REMARK UNBOUND:                 0.000
REMARK  Name = No_1394-gen_results/8p0m/2024-11-26-14-13-15/
REMARK  0 active torsions:
REMARK  status: ('A' for Active; 'I' for Inactive)
REMARK                            x       y       z     vdW  Elec       q    Type
REMARK                         _______ _______ _______ _____ _____    ______ ____
ROOT
ATOM      1  C   UNL A   1      -9.454  -9.294  19.922  0.00  0.00    +0.011 A 
ATOM      2  C   UNL A   1     -10.211  -9.330  19.190  0.00  0.00    +0.001 A 
ATOM      3  C   UNL A   1      -8.243 -10.003  19.617  0.00  0.00    +0.058 A 
ATOM      4  C   UNL A   1      -8.116 -10.804  18.555  0.00  0.00    +0.011 A 
ATOM      5  C   UNL A   1      -9.179 -10.848  17.696  0.00  0.00    +0.001 A 
ATOM      6  C   UNL A   1     -10.315 -10.101  18.004  0.00  0.00    +0.000 A 
ATOM      7 CL   UNL A   1      -7.027  -9.696  20.811  0.00  0.00    -0.082 Cl
ENDROOT
TORSDOF 0
ENDMDL
ENDMDL
