MODEL 1395
MODEL 1
REMARK VINA RESULT:    -5.685      0.000      0.000
REMARK INTER + INTRA:          -6.938
REMARK INTER:                  -6.682
REMARK INTRA:                  -0.256
REMARK UNBOUND:                -0.256
REMARK  Name = No_1395-gen_results/8p0m/2024-11-26-14-13-15/
REMARK  3 active torsions:
REMARK  status: ('A' for Active; 'I' for Inactive)
REMARK    1  A    between atoms: C_1  and  C_2
REMARK    2  A    between atoms: C_1  and  C_3
REMARK    3  A    between atoms: C_2  and  C_7
REMARK                            x       y       z     vdW  Elec       q    Type
REMARK                         _______ _______ _______ _____ _____    ______ ____
ROOT
ATOM      1  C   UNL A   1     -23.505   0.428  28.446  0.00  0.00    +0.226 C 
ATOM      2  O   UNL A   1     -24.727   0.507  28.208  0.00  0.00    -0.275 OA
ATOM      3  N   UNL A   1     -23.048  -0.424  29.326  0.00  0.00    -0.281 N 
ATOM      4  C   UNL A   1     -23.806  -1.205  30.136  0.00  0.00    +0.075 C 
ATOM      5  C   UNL A   1     -23.057  -1.755  29.042  0.00  0.00    +0.093 C 
ATOM      6  C   UNL A   1     -23.891  -2.737  28.979  0.00  0.00    +0.022 C 
ATOM      7  C   UNL A   1     -23.100  -0.826  31.344  0.00  0.00    +0.021 C 
ATOM      8  C   UNL A   1     -25.178  -1.335  30.238  0.00  0.00    +0.020 C 
ATOM      9  C   UNL A   1     -25.133  -2.559  29.554  0.00  0.00    +0.004 C 
ENDROOT
BRANCH   1  10
ATOM     10  C   UNL A   1     -22.665   1.180  27.505  0.00  0.00    +0.094 C 
BRANCH  10  11
ATOM     11  C   UNL A   1     -23.113   2.069  27.161  0.00  0.00    +0.113 C 
BRANCH  11  12
ATOM     12  C   UNL A   1     -23.262   2.275  25.701  0.00  0.00    +0.398 C 
ATOM     13  F   UNL A   1     -22.004   2.295  25.119  0.00  0.00    -0.170 F 
ATOM     14  F   UNL A   1     -23.825   1.339  25.055  0.00  0.00    -0.170 F 
ATOM     15  F   UNL A   1     -23.813   3.485  25.479  0.00  0.00    -0.170 F 
ENDBRANCH  11  12
ENDBRANCH  10  11
ENDBRANCH   1  10
TORSDOF 3
ENDMDL
ENDMDL
