REMARK  Name = No_1396-gen_results/8p0m/2024-11-26-14-13-15/
REMARK  6 active torsions:
REMARK  status: ('A' for Active; 'I' for Inactive)
REMARK    1  A    between atoms: C_3  and  C_4
REMARK    2  A    between atoms: C_6  and  O_13
REMARK    3  A    between atoms: O_13  and  C_14
REMARK    4  A    between atoms: C_16  and  C_23
REMARK    5  A    between atoms: C_18  and  C_20
REMARK    6  A    between atoms: N_25  and  C_26
REMARK                            x       y       z     vdW  Elec       q    Type
REMARK                         _______ _______ _______ _____ _____    ______ ____
ROOT
ATOM      1  C   UNL A   1     -30.119  -2.067  30.608  0.00  0.00    +0.146 A 
ATOM      2  C   UNL A   1     -31.179  -2.710  30.113  0.00  0.00    +0.042 A 
ATOM      3  C   UNL A   1     -32.493  -2.120  30.234  0.00  0.00    +0.059 A 
ATOM      4  C   UNL A   1     -32.572  -0.925  31.018  0.00  0.00    +0.011 A 
ATOM      5  C   UNL A   1     -31.449  -0.374  31.541  0.00  0.00    +0.083 A 
ATOM      6  C   UNL A   1     -30.172  -0.899  31.320  0.00  0.00    +0.044 A 
ENDROOT
BRANCH   5   7
ATOM      7  C   UNL A   1     -31.537   0.890  32.367  0.00  0.00    +0.388 C 
ATOM      8  O   UNL A   1     -32.426   1.315  32.906  0.00  0.00    -0.241 OA
ATOM      9  O   UNL A   1     -30.262   1.301  32.721  0.00  0.00    -0.241 OA
ENDBRANCH   5   7
BRANCH   3  10
ATOM     10  C   UNL A   1     -33.641  -2.778  29.745  0.00  0.00    +0.269 C 
ATOM     11  O   UNL A   1     -34.622  -2.963  30.035  0.00  0.00    -0.268 OA
ATOM     12  N   UNL A   1     -33.272  -3.531  28.479  0.00  0.00    -0.175 NA
BRANCH  12  13
ATOM     13  C   UNL A   1     -34.218  -4.244  27.742  0.00  0.00    +0.074 A 
ATOM     14  C   UNL A   1     -34.446  -4.206  26.704  0.00  0.00    +0.017 A 
ATOM     15  C   UNL A   1     -35.351  -5.066  25.857  0.00  0.00    +0.002 A 
ATOM     16  C   UNL A   1     -36.075  -6.002  26.597  0.00  0.00    +0.011 A 
ATOM     17  C   UNL A   1     -35.865  -6.046  27.953  0.00  0.00    +0.059 A 
ATOM     18  C   UNL A   1     -34.926  -5.269  28.632  0.00  0.00    +0.028 A 
ATOM     19 CL   UNL A   1     -36.743  -7.227  28.828  0.00  0.00    -0.082 Cl
ENDBRANCH  12  13
ENDBRANCH   3  10
BRANCH   1  20
ATOM     20  O   UNL A   1     -28.966  -2.659  30.236  0.00  0.00    -0.454 OA
BRANCH  20  24
ATOM     21  C   UNL A   1     -28.016  -0.814  28.878  0.00  0.00    +0.037 A 
ATOM     22  C   UNL A   1     -27.064  -0.119  28.608  0.00  0.00    +0.003 A 
ATOM     23  C   UNL A   1     -25.792  -0.430  29.076  0.00  0.00    +0.000 A 
ATOM     24  C   UNL A   1     -27.882  -1.899  29.863  0.00  0.00    +0.145 A 
ATOM     25  C   UNL A   1     -26.653  -2.314  30.314  0.00  0.00    +0.037 A 
ATOM     26  C   UNL A   1     -25.515  -1.561  29.979  0.00  0.00    +0.003 A 
BRANCH  23  27
ATOM     27  C   UNL A   1     -24.546   0.349  28.823  0.00  0.00    +0.000 A 
ATOM     28  C   UNL A   1     -23.241   0.022  29.332  0.00  0.00    +0.000 A 
ATOM     29  C   UNL A   1     -22.159   0.787  28.951  0.00  0.00    +0.000 A 
ATOM     30  C   UNL A   1     -22.131   1.744  27.982  0.00  0.00    +0.000 A 
ATOM     31  C   UNL A   1     -24.517   1.371  27.793  0.00  0.00    +0.000 A 
ATOM     32  C   UNL A   1     -23.338   2.035  27.427  0.00  0.00    +0.000 A 
ENDBRANCH  23  27
ENDBRANCH  20  24
ENDBRANCH   1  20
TORSDOF 6
