MODEL 1397
MODEL 1
REMARK VINA RESULT:    -3.956      0.000      0.000
REMARK INTER + INTRA:          -3.956
REMARK INTER:                  -3.956
REMARK INTRA:                   0.000
REMARK UNBOUND:                 0.000
REMARK  Name = No_1397-gen_results/8p0m/2024-11-26-14-13-15/
REMARK  0 active torsions:
REMARK  status: ('A' for Active; 'I' for Inactive)
REMARK                            x       y       z     vdW  Elec       q    Type
REMARK                         _______ _______ _______ _____ _____    ______ ____
ROOT
ATOM      1  C   UNL A   1     -26.144  -2.336  29.967  0.00  0.00    +0.012 A 
ATOM      2  C   UNL A   1     -26.142  -3.521  29.726  0.00  0.00    +0.058 A 
ATOM      3  C   UNL A   1     -25.082  -4.185  29.198  0.00  0.00    +0.012 A 
ATOM      4  C   UNL A   1     -23.912  -3.457  28.911  0.00  0.00    +0.012 A 
ATOM      5  C   UNL A   1     -24.951  -1.548  29.788  0.00  0.00    +0.012 A 
ATOM      6  C   UNL A   1     -23.868  -2.162  29.233  0.00  0.00    +0.058 A 
ATOM      7 CL   UNL A   1     -27.534  -4.515  30.053  0.00  0.00    -0.082 Cl
ATOM      8 CL   UNL A   1     -22.446  -1.223  28.962  0.00  0.00    -0.082 Cl
ENDROOT
TORSDOF 0
ENDMDL
ENDMDL
