MODEL 1398
MODEL 1
REMARK VINA RESULT:    -5.159      0.000      0.000
REMARK INTER + INTRA:          -6.063
REMARK INTER:                  -5.762
REMARK INTRA:                  -0.301
REMARK UNBOUND:                -0.301
REMARK  Name = No_1398-gen_results/8p0m/2024-11-26-14-13-15/
REMARK  2 active torsions:
REMARK  status: ('A' for Active; 'I' for Inactive)
REMARK    1  A    between atoms: C_2  and  C_4
REMARK    2  A    between atoms: C_4  and  C_5
REMARK                            x       y       z     vdW  Elec       q    Type
REMARK                         _______ _______ _______ _____ _____    ______ ____
ROOT
ATOM      1  C   UNL A   1     -24.662  -2.493  29.066  0.00  0.00    -0.018 A 
ATOM      2  C   UNL A   1     -25.780  -2.840  29.601  0.00  0.00    -0.004 A 
ATOM      3  C   UNL A   1     -26.322  -4.228  29.736  0.00  0.00    -0.000 A 
ATOM      4  C   UNL A   1     -25.460  -5.229  29.300  0.00  0.00    -0.000 A 
ATOM      5  C   UNL A   1     -24.281  -4.892  28.726  0.00  0.00    -0.000 A 
ATOM      6  C   UNL A   1     -23.904  -3.646  28.588  0.00  0.00    -0.004 A 
ENDROOT
BRANCH   1   7
ATOM      7  C   UNL A   1     -24.160  -1.297  28.818  0.00  0.00    +0.079 C 
BRANCH   7   9
ATOM      8 CL   UNL A   1     -22.786  -0.715  30.625  0.00  0.00    -0.076 Cl
ATOM      9  C   UNL A   1     -22.889  -0.961  29.433  0.00  0.00    +0.243 C 
ATOM     10  F   UNL A   1     -21.921  -0.916  28.707  0.00  0.00    -0.219 F 
ENDBRANCH   7   9
ENDBRANCH   1   7
TORSDOF 2
ENDMDL
ENDMDL
