MODEL 1399
MODEL 1
REMARK VINA RESULT:    -4.586      0.000      0.000
REMARK INTER + INTRA:          -4.586
REMARK INTER:                  -4.586
REMARK INTRA:                   0.000
REMARK UNBOUND:                 0.000
REMARK  Name = No_1399-gen_results/8p0m/2024-11-26-14-13-15/
REMARK  0 active torsions:
REMARK  status: ('A' for Active; 'I' for Inactive)
REMARK                            x       y       z     vdW  Elec       q    Type
REMARK                         _______ _______ _______ _____ _____    ______ ____
ROOT
ATOM      1  C   UNL A   1     -10.127  -9.799  18.365  0.00  0.00    +0.030 A 
ATOM      2  C   UNL A   1      -9.159 -10.411  17.977  0.00  0.00    +0.140 A 
ATOM      3  C   UNL A   1      -8.025 -10.539  18.772  0.00  0.00    +0.030 A 
ATOM      4  C   UNL A   1      -7.950  -9.907  20.064  0.00  0.00    +0.002 A 
ATOM      5  C   UNL A   1      -9.105  -9.200  20.424  0.00  0.00    +0.000 A 
ATOM      6  C   UNL A   1     -10.145  -9.095  19.628  0.00  0.00    +0.002 A 
ATOM      7  F   UNL A   1      -9.072 -10.990  16.779  0.00  0.00    -0.204 F 
ENDROOT
TORSDOF 0
ENDMDL
ENDMDL
