MODEL 139
MODEL 1
REMARK VINA RESULT:    -6.564      0.000      0.000
REMARK INTER + INTRA:          -7.035
REMARK INTER:                  -6.948
REMARK INTRA:                  -0.087
REMARK UNBOUND:                -0.087
REMARK  Name = No_139-gen_results/8p0m/2024-11-26-14-13-15/
REMARK  1 active torsions:
REMARK  status: ('A' for Active; 'I' for Inactive)
REMARK    1  A    between atoms: C_1  and  C_7
REMARK                            x       y       z     vdW  Elec       q    Type
REMARK                         _______ _______ _______ _____ _____    ______ ____
ROOT
ATOM      1  C   UNL A   1     -23.418  -0.712  28.739  0.00  0.00    +0.250 C 
ATOM      2  N   UNL A   1     -23.406   0.068  27.960  0.00  0.00    -0.266 N 
ATOM      3  O   UNL A   1     -22.394  -0.681  29.657  0.00  0.00    -0.270 OA
ATOM      4  C   UNL A   1     -22.451   1.203  27.831  0.00  0.00    +0.150 C 
ATOM      5  C   UNL A   1     -24.489   0.090  26.888  0.00  0.00    +0.123 C 
ATOM      6  C   UNL A   1     -22.990   2.110  26.712  0.00  0.00    +0.135 C 
ATOM      7  C   UNL A   1     -24.073   1.347  26.230  0.00  0.00    +0.022 C 
ATOM      8  F   UNL A   1     -22.005   2.207  25.842  0.00  0.00    -0.207 F 
ENDROOT
BRANCH   1   9
ATOM      9  C   UNL A   1     -24.432  -1.769  29.101  0.00  0.00    +0.054 A 
ATOM     10  C   UNL A   1     -25.402  -1.476  29.761  0.00  0.00    +0.005 A 
ATOM     11  C   UNL A   1     -26.370  -2.384  30.142  0.00  0.00    +0.001 A 
ATOM     12  C   UNL A   1     -26.190  -3.746  29.770  0.00  0.00    +0.011 A 
ATOM     13  C   UNL A   1     -25.009  -4.052  29.184  0.00  0.00    +0.058 A 
ATOM     14  C   UNL A   1     -24.121  -3.121  28.892  0.00  0.00    +0.016 A 
ATOM     15 CL   UNL A   1     -24.740  -5.699  28.807  0.00  0.00    -0.082 Cl
ENDBRANCH   1   9
TORSDOF 1
ENDMDL
ENDMDL
