MODEL 13
MODEL 1
REMARK VINA RESULT:    -6.145      0.000      0.000
REMARK INTER + INTRA:          -6.591
REMARK INTER:                  -6.504
REMARK INTRA:                  -0.087
REMARK UNBOUND:                -0.087
REMARK  Name = No_13-gen_results/8p0m/2024-11-26-14-13-15/
REMARK  1 active torsions:
REMARK  status: ('A' for Active; 'I' for Inactive)
REMARK    1  A    between atoms: C_2  and  C_5
REMARK                            x       y       z     vdW  Elec       q    Type
REMARK                         _______ _______ _______ _____ _____    ______ ____
ROOT
ATOM      1  C   UNL A   1     -23.344  -2.251  28.934  0.00  0.00    +0.006 A 
ATOM      2  C   UNL A   1     -24.352  -2.559  28.953  0.00  0.00    +0.080 A 
ATOM      3  C   UNL A   1     -23.114  -0.835  28.988  0.00  0.00    -0.003 A 
ATOM      4  C   UNL A   1     -24.096   0.067  28.898  0.00  0.00    -0.018 A 
ATOM      5  C   UNL A   1     -25.363  -0.419  28.884  0.00  0.00    -0.004 A 
ATOM      6  C   UNL A   1     -25.537  -1.755  28.903  0.00  0.00    +0.006 A 
ATOM      7  C   UNL A   1     -21.621  -0.380  29.064  0.00  0.00    -0.000 C 
ATOM      8  C   UNL A   1     -21.105   0.587  28.308  0.00  0.00    -0.000 C 
ATOM      9  C   UNL A   1     -21.913   1.214  27.395  0.00  0.00    -0.004 C 
ATOM     10  C   UNL A   1     -22.833   1.867  27.679  0.00  0.00    -0.021 C 
ATOM     11  C   UNL A   1     -23.910   1.414  28.293  0.00  0.00    +0.052 C 
ENDROOT
BRANCH   2  12
ATOM     12  C   UNL A   1     -24.750  -4.092  28.941  0.00  0.00    +0.388 C 
ATOM     13  O   UNL A   1     -25.602  -4.409  29.537  0.00  0.00    -0.241 OA
ATOM     14  O   UNL A   1     -23.841  -4.877  28.355  0.00  0.00    -0.241 OA
ENDBRANCH   2  12
TORSDOF 1
ENDMDL
ENDMDL
