REMARK  Name = No_140-gen_results/8p0m/2024-11-26-14-13-15/
REMARK  1 active torsions:
REMARK  status: ('A' for Active; 'I' for Inactive)
REMARK    1  A    between atoms: C_8  and  C_20
REMARK                            x       y       z     vdW  Elec       q    Type
REMARK                         _______ _______ _______ _____ _____    ______ ____
ROOT
ATOM      1  O   UNL A   1     -28.123  -1.335  28.487  0.00  0.00    -0.270 OA
ATOM      2  C   UNL A   1     -27.064  -0.824  28.869  0.00  0.00    +0.249 C 
ATOM      3  C   UNL A   1     -26.402  -0.062  28.622  0.00  0.00    +0.049 A 
ATOM      4  N   UNL A   1     -26.572  -1.584  30.117  0.00  0.00    -0.274 N 
ATOM      5  C   UNL A   1     -26.698   0.964  27.645  0.00  0.00    +0.000 A 
ATOM      6  C   UNL A   1     -27.586   1.295  27.271  0.00  0.00    -0.004 A 
ATOM      7  C   UNL A   1     -28.824   0.927  27.859  0.00  0.00    +0.006 A 
ATOM      8  C   UNL A   1     -30.043   1.617  27.388  0.00  0.00    +0.080 A 
ATOM      9  C   UNL A   1     -29.864   2.409  26.301  0.00  0.00    +0.006 A 
ATOM     10  C   UNL A   1     -28.690   2.817  25.663  0.00  0.00    -0.004 A 
ATOM     11  C   UNL A   1     -27.577   2.376  26.159  0.00  0.00    -0.018 A 
ATOM     12  C   UNL A   1     -27.354  -2.727  30.463  0.00  0.00    +0.115 C 
ATOM     13  C   UNL A   1     -25.168  -1.697  30.181  0.00  0.00    +0.098 C 
ATOM     14  C   UNL A   1     -24.923   0.022  29.210  0.00  0.00    -0.016 A 
ATOM     15  C   UNL A   1     -24.076   1.084  28.777  0.00  0.00    -0.004 A 
ATOM     16  C   UNL A   1     -24.448  -0.921  30.036  0.00  0.00    +0.048 C 
ATOM     17  C   UNL A   1     -24.345   1.967  27.776  0.00  0.00    -0.004 A 
ATOM     18  C   UNL A   1     -25.560   2.083  27.371  0.00  0.00    -0.018 A 
ATOM     19  C   UNL A   1     -26.097   2.910  26.275  0.00  0.00    +0.053 C 
ENDROOT
BRANCH   8  20
ATOM     20  C   UNL A   1     -31.367   1.156  27.789  0.00  0.00    +0.388 C 
ATOM     21  O   UNL A   1     -32.142   0.642  27.286  0.00  0.00    -0.241 OA
ATOM     22  O   UNL A   1     -31.362   1.064  29.288  0.00  0.00    -0.241 OA
ENDBRANCH   8  20
TORSDOF 1
