MODEL 1400
MODEL 1
REMARK VINA RESULT:    -7.810      0.000      0.000
REMARK INTER + INTRA:          -8.381
REMARK INTER:                  -8.267
REMARK INTRA:                  -0.114
REMARK UNBOUND:                -0.114
REMARK  Name = No_1400-gen_results/8p0m/2024-11-26-14-13-15/
REMARK  1 active torsions:
REMARK  status: ('A' for Active; 'I' for Inactive)
REMARK    1  A    between atoms: C_2  and  C_5
REMARK                            x       y       z     vdW  Elec       q    Type
REMARK                         _______ _______ _______ _____ _____    ______ ____
ROOT
ATOM      1  C   UNL A   1     -28.251 -11.790  31.192  0.00  0.00    +0.007 A 
ATOM      2  C   UNL A   1     -28.193 -11.535  32.212  0.00  0.00    +0.080 A 
ATOM      3  C   UNL A   1     -29.327 -11.103  30.476  0.00  0.00    +0.000 A 
ATOM      4  C   UNL A   1     -30.156 -10.201  31.096  0.00  0.00    +0.002 A 
ATOM      5  C   UNL A   1     -29.929  -9.946  32.461  0.00  0.00    +0.000 A 
ATOM      6  C   UNL A   1     -28.863 -10.582  33.099  0.00  0.00    +0.007 A 
ATOM      7  C   UNL A   1     -29.787 -11.249  29.037  0.00  0.00    +0.002 A 
ATOM      8  C   UNL A   1     -30.273 -10.410  28.300  0.00  0.00    +0.028 A 
ATOM      9  C   UNL A   1     -31.034  -9.351  29.018  0.00  0.00    +0.140 A 
ATOM     10  C   UNL A   1     -30.898  -9.166  30.343  0.00  0.00    +0.030 A 
ATOM     11  F   UNL A   1     -31.774  -8.550  28.189  0.00  0.00    -0.204 F 
ATOM     12  C   UNL A   1     -30.537 -10.598  26.885  0.00  0.00    +0.002 A 
ATOM     13  C   UNL A   1     -29.985 -11.660  26.187  0.00  0.00    +0.000 A 
ATOM     14  C   UNL A   1     -29.371 -12.641  27.035  0.00  0.00    +0.000 A 
ATOM     15  C   UNL A   1     -29.078 -12.431  28.374  0.00  0.00    +0.000 A 
ENDROOT
BRANCH   2  16
ATOM     16  C   UNL A   1     -27.048 -12.190  33.042  0.00  0.00    +0.388 C 
ATOM     17  O   UNL A   1     -26.375 -12.721  32.512  0.00  0.00    -0.241 OA
ATOM     18  O   UNL A   1     -27.241 -12.271  34.394  0.00  0.00    -0.241 OA
ENDBRANCH   2  16
TORSDOF 1
ENDMDL
ENDMDL
