REMARK  Name = No_1400-gen_results/8p0m/2024-11-26-14-13-15/
REMARK  1 active torsions:
REMARK  status: ('A' for Active; 'I' for Inactive)
REMARK    1  A    between atoms: C_2  and  C_5
REMARK                            x       y       z     vdW  Elec       q    Type
REMARK                         _______ _______ _______ _____ _____    ______ ____
ROOT
ATOM      1  C   UNL A   1     -28.016  -0.814  28.878  0.00  0.00    +0.007 A 
ATOM      2  C   UNL A   1     -28.469  -0.785  29.829  0.00  0.00    +0.080 A 
ATOM      3  C   UNL A   1     -27.087   0.290  28.638  0.00  0.00    +0.000 A 
ATOM      4  C   UNL A   1     -26.832   1.249  29.587  0.00  0.00    +0.002 A 
ATOM      5  C   UNL A   1     -27.496   1.130  30.822  0.00  0.00    +0.000 A 
ATOM      6  C   UNL A   1     -28.338   0.036  31.033  0.00  0.00    +0.007 A 
ATOM      7  C   UNL A   1     -26.303   0.649  27.389  0.00  0.00    +0.002 A 
ATOM      8  C   UNL A   1     -25.213   1.184  27.296  0.00  0.00    +0.028 A 
ATOM      9  C   UNL A   1     -24.897   2.099  28.427  0.00  0.00    +0.140 A 
ATOM     10  C   UNL A   1     -25.594   2.059  29.576  0.00  0.00    +0.030 A 
ATOM     11  F   UNL A   1     -23.790   2.876  28.211  0.00  0.00    -0.204 F 
ATOM     12  C   UNL A   1     -24.467   1.345  26.061  0.00  0.00    +0.002 A 
ATOM     13  C   UNL A   1     -24.809   0.639  24.919  0.00  0.00    +0.000 A 
ATOM     14  C   UNL A   1     -26.072  -0.033  25.022  0.00  0.00    +0.000 A 
ATOM     15  C   UNL A   1     -26.752  -0.225  26.216  0.00  0.00    +0.000 A 
ENDROOT
BRANCH   2  16
ATOM     16  C   UNL A   1     -29.444  -1.948  30.184  0.00  0.00    +0.388 C 
ATOM     17  O   UNL A   1     -30.393  -1.834  29.864  0.00  0.00    -0.241 OA
ATOM     18  O   UNL A   1     -29.028  -2.822  31.151  0.00  0.00    -0.241 OA
ENDBRANCH   2  16
TORSDOF 1
