REMARK  Name = No_1401-gen_results/8p0m/2024-11-26-14-13-15/
REMARK  8 active torsions:
REMARK  status: ('A' for Active; 'I' for Inactive)
REMARK    1  A    between atoms: C_1  and  N_8
REMARK    2  A    between atoms: C_4  and  C_26
REMARK    3  A    between atoms: C_5  and  C_9
REMARK    4  A    between atoms: C_12  and  C_13
REMARK    5  A    between atoms: N_16  and  C_17
REMARK    6  A    between atoms: C_20  and  C_23
REMARK    7  A    between atoms: C_26  and  N_27
REMARK    8  A    between atoms: N_27  and  C_28
REMARK                            x       y       z     vdW  Elec       q    Type
REMARK                         _______ _______ _______ _____ _____    ______ ____
ROOT
ATOM      1  C   UNL A   1     -28.016  -0.814  28.878  0.00  0.00    +0.081 C 
ATOM      2  C   UNL A   1     -27.064  -0.119  28.608  0.00  0.00    -0.028 C 
ATOM      3  C   UNL A   1     -26.876   1.133  28.913  0.00  0.00    +0.025 C 
ATOM      4  C   UNL A   1     -25.688   1.952  28.567  0.00  0.00    +0.031 C 
ATOM      5  C   UNL A   1     -24.639   1.283  27.875  0.00  0.00    +0.105 C 
ATOM      6  C   UNL A   1     -24.807  -0.051  27.604  0.00  0.00    +0.016 C 
ATOM      7  C   UNL A   1     -25.902  -0.767  27.951  0.00  0.00    +0.024 C 
ENDROOT
BRANCH   1   8
ATOM      8  N   UNL A   1     -28.720  -0.602  30.046  0.00  0.00    -0.171 NA
ATOM      9  C   UNL A   1     -29.856  -1.293  30.492  0.00  0.00    +0.325 C 
ATOM     10  O   UNL A   1     -30.057  -2.438  30.087  0.00  0.00    -0.263 OA
BRANCH   9  11
ATOM     11  C   UNL A   1     -30.444  -0.974  31.722  0.00  0.00    +0.325 C 
ATOM     12  O   UNL A   1     -30.128  -0.112  32.452  0.00  0.00    -0.263 OA
ATOM     13  N   UNL A   1     -31.649  -1.700  32.053  0.00  0.00    -0.172 NA
BRANCH  13  14
ATOM     14  C   UNL A   1     -32.457  -1.327  33.207  0.00  0.00    +0.074 A 
ATOM     15  C   UNL A   1     -33.410  -2.008  33.357  0.00  0.00    +0.017 A 
ATOM     16  C   UNL A   1     -34.234  -1.846  34.491  0.00  0.00    +0.008 A 
ATOM     17  C   UNL A   1     -33.903  -0.750  35.400  0.00  0.00    +0.080 A 
ATOM     18  C   UNL A   1     -32.779  -0.010  35.126  0.00  0.00    +0.008 A 
ATOM     19  C   UNL A   1     -31.986  -0.270  34.065  0.00  0.00    +0.017 A 
BRANCH  17  20
ATOM     20  C   UNL A   1     -34.775  -0.518  36.533  0.00  0.00    +0.388 C 
ATOM     21  O   UNL A   1     -35.675  -0.864  36.854  0.00  0.00    -0.241 OA
ATOM     22  O   UNL A   1     -34.272   0.639  37.258  0.00  0.00    -0.241 OA
ENDBRANCH  17  20
ENDBRANCH  13  14
ENDBRANCH   9  11
ENDBRANCH   1   8
BRANCH   5  23
ATOM     23  C   UNL A   1     -23.456   1.982  27.464  0.00  0.00    +0.364 C 
ATOM     24  O   UNL A   1     -22.738   2.494  28.088  0.00  0.00    -0.246 OA
ATOM     25  O   UNL A   1     -23.286   1.997  26.106  0.00  0.00    -0.246 OA
ENDBRANCH   5  23
BRANCH   4  26
ATOM     26  C   UNL A   1     -25.566   3.383  28.905  0.00  0.00    +0.073 C 
BRANCH  26  27
ATOM     27  N   UNL A   1     -26.087   4.258  28.055  0.00  0.00    -0.265 NA
ATOM     28  C   UNL A   1     -25.542   4.394  26.774  0.00  0.00    +0.090 C 
BRANCH  27  29
ATOM     29  C   UNL A   1     -27.122   5.052  28.431  0.00  0.00    +0.137 C 
ATOM     30  C   UNL A   1     -27.915   5.589  27.579  0.00  0.00    +0.027 C 
ATOM     31  C   UNL A   1     -27.381   5.299  29.839  0.00  0.00    +0.256 C 
ATOM     32  O   UNL A   1     -26.565   5.082  30.727  0.00  0.00    -0.272 OA
ATOM     33  N   UNL A   1     -28.330   6.157  30.162  0.00  0.00    -0.204 NA
ATOM     34  C   UNL A   1     -29.246   6.661  29.254  0.00  0.00    +0.115 C 
ATOM     35  C   UNL A   1     -29.066   6.371  27.907  0.00  0.00    +0.025 C 
ENDBRANCH  27  29
ENDBRANCH  26  27
ENDBRANCH   4  26
TORSDOF 8
