MODEL 1401
MODEL 1
REMARK VINA RESULT:    -8.313      0.000      0.000
REMARK INTER + INTRA:         -12.081
REMARK INTER:                 -12.201
REMARK INTRA:                   0.120
REMARK UNBOUND:                 0.120
REMARK  Name = No_1401-gen_results/8p0m/2024-11-26-14-13-15/
REMARK  8 active torsions:
REMARK  status: ('A' for Active; 'I' for Inactive)
REMARK    1  A    between atoms: C_1  and  N_8
REMARK    2  A    between atoms: C_4  and  C_26
REMARK    3  A    between atoms: C_5  and  C_9
REMARK    4  A    between atoms: C_12  and  C_13
REMARK    5  A    between atoms: N_16  and  C_17
REMARK    6  A    between atoms: C_20  and  C_23
REMARK    7  A    between atoms: C_26  and  N_27
REMARK    8  A    between atoms: N_27  and  C_28
REMARK                            x       y       z     vdW  Elec       q    Type
REMARK                         _______ _______ _______ _____ _____    ______ ____
ROOT
ATOM      1  C   UNL A   1     -25.020   2.969  26.179  0.00  0.00    +0.081 C 
ATOM      2  C   UNL A   1     -24.414   2.222  26.912  0.00  0.00    -0.028 C 
ATOM      3  C   UNL A   1     -24.900   1.427  27.823  0.00  0.00    +0.025 C 
ATOM      4  C   UNL A   1     -24.122   0.519  28.701  0.00  0.00    +0.031 C 
ATOM      5  C   UNL A   1     -22.714   0.488  28.489  0.00  0.00    +0.105 C 
ATOM      6  C   UNL A   1     -22.205   1.279  27.491  0.00  0.00    +0.016 C 
ATOM      7  C   UNL A   1     -22.952   2.083  26.700  0.00  0.00    +0.024 C 
ENDROOT
BRANCH   1   8
ATOM      8  N   UNL A   1     -26.291   2.642  25.753  0.00  0.00    -0.171 NA
ATOM      9  C   UNL A   1     -27.509   3.063  26.307  0.00  0.00    +0.325 C 
ATOM     10  O   UNL A   1     -27.542   4.113  26.949  0.00  0.00    -0.263 OA
BRANCH   9  11
ATOM     11  C   UNL A   1     -28.724   2.662  25.739  0.00  0.00    +0.325 C 
ATOM     12  O   UNL A   1     -29.800   2.872  26.155  0.00  0.00    -0.263 OA
ATOM     13  N   UNL A   1     -28.638   2.045  24.435  0.00  0.00    -0.172 NA
BRANCH  13  14
ATOM     14  C   UNL A   1     -29.838   1.760  23.659  0.00  0.00    +0.074 A 
ATOM     15  C   UNL A   1     -30.185   2.659  22.976  0.00  0.00    +0.017 A 
ATOM     16  C   UNL A   1     -31.265   2.504  22.082  0.00  0.00    +0.008 A 
ATOM     17  C   UNL A   1     -31.975   1.227  22.115  0.00  0.00    +0.080 A 
ATOM     18  C   UNL A   1     -31.497   0.251  22.955  0.00  0.00    +0.008 A 
ATOM     19  C   UNL A   1     -30.406   0.438  23.728  0.00  0.00    +0.017 A 
BRANCH  17  20
ATOM     20  C   UNL A   1     -33.132   1.068  21.258  0.00  0.00    +0.388 C 
ATOM     21  O   UNL A   1     -33.941   0.454  21.217  0.00  0.00    -0.241 OA
ATOM     22  O   UNL A   1     -32.935   1.898  20.079  0.00  0.00    -0.241 OA
ENDBRANCH  17  20
ENDBRANCH  13  14
ENDBRANCH   9  11
ENDBRANCH   1   8
BRANCH   5  23
ATOM     23  C   UNL A   1     -21.859  -0.331  29.299  0.00  0.00    +0.364 C 
ATOM     24  O   UNL A   1     -21.952  -0.546  30.354  0.00  0.00    -0.246 OA
ATOM     25  O   UNL A   1     -20.798  -0.848  28.607  0.00  0.00    -0.246 OA
ENDBRANCH   5  23
BRANCH   4  26
ATOM     26  C   UNL A   1     -24.739  -0.319  29.747  0.00  0.00    +0.073 C 
BRANCH  26  27
ATOM     27  N   UNL A   1     -25.698  -1.155  29.373  0.00  0.00    -0.265 NA
ATOM     28  C   UNL A   1     -26.985  -0.671  29.121  0.00  0.00    +0.090 C 
BRANCH  27  29
ATOM     29  C   UNL A   1     -25.450  -2.486  29.270  0.00  0.00    +0.137 C 
ATOM     30  C   UNL A   1     -24.398  -2.942  28.696  0.00  0.00    +0.027 C 
ATOM     31  C   UNL A   1     -26.375  -3.450  29.841  0.00  0.00    +0.256 C 
ATOM     32  O   UNL A   1     -27.525  -3.176  30.166  0.00  0.00    -0.272 OA
ATOM     33  N   UNL A   1     -26.155  -4.733  29.631  0.00  0.00    -0.204 NA
ATOM     34  C   UNL A   1     -24.976  -5.229  29.099  0.00  0.00    +0.115 C 
ATOM     35  C   UNL A   1     -24.038  -4.324  28.619  0.00  0.00    +0.025 C 
ENDBRANCH  27  29
ENDBRANCH  26  27
ENDBRANCH   4  26
TORSDOF 8
ENDMDL
ENDMDL
