REMARK  Name = No_1403-gen_results/8p0m/2024-11-26-14-13-15/
REMARK  7 active torsions:
REMARK  status: ('A' for Active; 'I' for Inactive)
REMARK    1  A    between atoms: C_2  and  C_26
REMARK    2  A    between atoms: C_3  and  C_7
REMARK    3  A    between atoms: C_7  and  C_8
REMARK    4  A    between atoms: C_12  and  C_14
REMARK    5  A    between atoms: C_14  and  C_16
REMARK    6  A    between atoms: C_16  and  C_18
REMARK    7  A    between atoms: C_18  and  C_20
REMARK                            x       y       z     vdW  Elec       q    Type
REMARK                         _______ _______ _______ _____ _____    ______ ____
ROOT
ATOM      1  C   UNL A   1     -26.135   0.356  26.819  0.00  0.00    -0.018 A 
ATOM      2  C   UNL A   1     -25.287   0.895  25.827  0.00  0.00    -0.004 A 
ATOM      3  C   UNL A   1     -23.904   0.970  25.967  0.00  0.00    -0.000 A 
ATOM      4  C   UNL A   1     -23.296   0.704  27.230  0.00  0.00    -0.000 A 
ATOM      5  C   UNL A   1     -24.136   0.196  28.268  0.00  0.00    -0.004 A 
ATOM      6  C   UNL A   1     -25.471   0.082  28.083  0.00  0.00    -0.004 A 
ENDROOT
BRANCH   5   7
ATOM      7  C   UNL A   1     -23.456  -0.039  29.548  0.00  0.00    -0.022 C 
ATOM      8  C   UNL A   1     -22.447   0.279  29.864  0.00  0.00    -0.005 C 
BRANCH   7   9
ATOM      9  C   UNL A   1     -24.322  -0.848  30.491  0.00  0.00    +0.026 C 
ATOM     10  C   UNL A   1     -24.436  -2.226  30.240  0.00  0.00    +0.005 C 
BRANCH   9  11
ATOM     11  C   UNL A   1     -24.957  -0.237  31.582  0.00  0.00    +0.026 C 
ATOM     12  C   UNL A   1     -25.386  -1.037  32.694  0.00  0.00    +0.005 C 
BRANCH  11  13
ATOM     13  C   UNL A   1     -25.119   1.164  31.635  0.00  0.00    -0.022 A 
ATOM     14  C   UNL A   1     -25.837   1.800  32.665  0.00  0.00    -0.004 A 
ATOM     15  C   UNL A   1     -26.084   3.206  32.676  0.00  0.00    -0.000 A 
ATOM     16  C   UNL A   1     -25.521   3.981  31.642  0.00  0.00    -0.000 A 
ATOM     17  C   UNL A   1     -24.834   3.365  30.622  0.00  0.00    -0.000 A 
ATOM     18  C   UNL A   1     -24.611   2.017  30.656  0.00  0.00    -0.004 A 
ENDBRANCH  11  13
ENDBRANCH   9  11
ENDBRANCH   7   9
ENDBRANCH   5   7
BRANCH   1  19
ATOM     19  C   UNL A   1     -27.459   0.379  26.705  0.00  0.00    +0.053 C 
BRANCH  19  22
ATOM     20  C   UNL A   1     -28.016  -0.814  28.878  0.00  0.00    +0.004 A 
ATOM     21  C   UNL A   1     -28.469  -0.785  29.829  0.00  0.00    +0.080 A 
ATOM     22  C   UNL A   1     -28.196   0.348  28.055  0.00  0.00    -0.007 A 
ATOM     23  C   UNL A   1     -29.019   1.350  28.378  0.00  0.00    +0.054 A 
ATOM     24  C   UNL A   1     -29.625   1.268  29.601  0.00  0.00    +0.011 A 
ATOM     25  C   UNL A   1     -29.382   0.182  30.400  0.00  0.00    +0.007 A 
ATOM     26 CL   UNL A   1     -29.259   2.695  27.419  0.00  0.00    -0.083 Cl
BRANCH  21  27
ATOM     27  C   UNL A   1     -28.473  -1.946  30.979  0.00  0.00    +0.388 C 
ATOM     28  O   UNL A   1     -28.450  -1.789  32.087  0.00  0.00    -0.241 OA
ATOM     29  O   UNL A   1     -28.216  -3.161  30.369  0.00  0.00    -0.241 OA
ENDBRANCH  21  27
ENDBRANCH  19  22
ENDBRANCH   1  19
TORSDOF 7
