MODEL 1404
MODEL 1
REMARK VINA RESULT:    -4.765      0.000      0.000
REMARK INTER + INTRA:          -5.530
REMARK INTER:                  -5.322
REMARK INTRA:                  -0.208
REMARK UNBOUND:                -0.208
REMARK  Name = No_1404-gen_results/8p0m/2024-11-26-14-13-15/
REMARK  2 active torsions:
REMARK  status: ('A' for Active; 'I' for Inactive)
REMARK    1  A    between atoms: C_2  and  C_3
REMARK    2  A    between atoms: C_3  and  C_4
REMARK                            x       y       z     vdW  Elec       q    Type
REMARK                         _______ _______ _______ _____ _____    ______ ____
ROOT
ATOM      1  C   UNL A   1     -25.944  -2.902  29.550  0.00  0.00    -0.004 A 
ATOM      2  C   UNL A   1     -24.834  -2.602  29.178  0.00  0.00    -0.022 A 
ATOM      3  C   UNL A   1     -26.264  -4.313  29.737  0.00  0.00    -0.000 A 
ATOM      4  C   UNL A   1     -25.390  -5.298  29.244  0.00  0.00    -0.000 A 
ATOM      5  C   UNL A   1     -24.202  -4.948  28.653  0.00  0.00    -0.000 A 
ATOM      6  C   UNL A   1     -23.897  -3.540  28.566  0.00  0.00    -0.004 A 
ENDROOT
BRANCH   2   7
ATOM      7  C   UNL A   1     -24.422  -1.300  28.973  0.00  0.00    +0.026 C 
BRANCH   7   8
ATOM      8  C   UNL A   1     -23.045  -0.851  28.886  0.00  0.00    +0.005 C 
ATOM      9  C   UNL A   1     -22.295  -0.382  29.946  0.00  0.00    +0.000 C 
ENDBRANCH   7   8
ENDBRANCH   2   7
TORSDOF 2
ENDMDL
ENDMDL
