MODEL 1405
MODEL 1
REMARK VINA RESULT:    -7.898      0.000      0.000
REMARK INTER + INTRA:         -11.160
REMARK INTER:                 -10.207
REMARK INTRA:                  -0.953
REMARK UNBOUND:                -0.953
REMARK  Name = No_1405-gen_results/8p0m/2024-11-26-14-13-15/
REMARK  5 active torsions:
REMARK  status: ('A' for Active; 'I' for Inactive)
REMARK    1  A    between atoms: C_2  and  C_3
REMARK    2  A    between atoms: N_4  and  C_10
REMARK    3  A    between atoms: N_4  and  C_11
REMARK    4  A    between atoms: C_10  and  C_18
REMARK    5  A    between atoms: C_18  and  C_19
REMARK                            x       y       z     vdW  Elec       q    Type
REMARK                         _______ _______ _______ _____ _____    ______ ____
ROOT
ATOM      1  O   UNL A   1     -23.568   1.068  30.400  0.00  0.00    -0.270 OA
ATOM      2  C   UNL A   1     -24.024   0.044  30.668  0.00  0.00    +0.253 C 
ATOM      3  N   UNL A   1     -24.614  -0.846  29.674  0.00  0.00    -0.255 N 
ENDROOT
BRANCH   3   4
ATOM      4  C   UNL A   1     -25.135  -2.094  30.003  0.00  0.00    +0.054 A 
ATOM      5  C   UNL A   1     -24.448  -3.094  29.535  0.00  0.00    +0.011 A 
ATOM      6  C   UNL A   1     -25.189  -4.262  29.425  0.00  0.00    -0.021 A 
ATOM      7  C   UNL A   1     -26.579  -4.362  29.830  0.00  0.00    -0.004 A 
ATOM      8  C   UNL A   1     -27.238  -3.190  30.215  0.00  0.00    +0.001 A 
ATOM      9  C   UNL A   1     -26.499  -2.020  30.336  0.00  0.00    +0.015 A 
ATOM     10  C   UNL A   1     -24.638  -5.607  28.948  0.00  0.00    +0.031 C 
ENDBRANCH   3   4
BRANCH   2  11
ATOM     11  C   UNL A   1     -24.269  -0.316  31.978  0.00  0.00    +0.054 A 
ATOM     12  C   UNL A   1     -23.504  -1.102  32.692  0.00  0.00    +0.004 A 
ATOM     13  C   UNL A   1     -25.381   0.338  32.659  0.00  0.00    +0.004 A 
ATOM     14  C   UNL A   1     -23.845  -1.465  34.067  0.00  0.00    +0.000 A 
ATOM     15  C   UNL A   1     -25.622   0.211  34.077  0.00  0.00    +0.000 A 
ATOM     16  C   UNL A   1     -24.793  -0.742  34.737  0.00  0.00    +0.000 A 
ENDBRANCH   2  11
BRANCH   3  17
ATOM     17  C   UNL A   1     -24.436  -0.489  28.290  0.00  0.00    +0.103 C 
BRANCH  17  18
ATOM     18  C   UNL A   1     -25.307   0.242  27.692  0.00  0.00    +0.048 C 
BRANCH  18  19
ATOM     19  C   UNL A   1     -25.045   1.392  27.152  0.00  0.00    -0.024 A 
ATOM     20  C   UNL A   1     -25.445   2.486  27.071  0.00  0.00    -0.004 A 
ATOM     21  C   UNL A   1     -25.009   3.718  26.379  0.00  0.00    -0.000 A 
ATOM     22  C   UNL A   1     -23.804   3.565  25.632  0.00  0.00    -0.000 A 
ATOM     23  C   UNL A   1     -23.316   2.298  25.337  0.00  0.00    -0.005 A 
ATOM     24  C   UNL A   1     -24.013   1.227  25.988  0.00  0.00    -0.026 A 
ATOM     25  C   UNL A   1     -24.778   0.348  24.812  0.00  0.00    +0.031 C 
ENDBRANCH  18  19
ENDBRANCH  17  18
ENDBRANCH   3  17
TORSDOF 5
ENDMDL
ENDMDL
