REMARK  Name = No_1405-gen_results/8p0m/2024-11-26-14-13-15/
REMARK  5 active torsions:
REMARK  status: ('A' for Active; 'I' for Inactive)
REMARK    1  A    between atoms: C_2  and  C_3
REMARK    2  A    between atoms: N_4  and  C_10
REMARK    3  A    between atoms: N_4  and  C_11
REMARK    4  A    between atoms: C_10  and  C_18
REMARK    5  A    between atoms: C_18  and  C_19
REMARK                            x       y       z     vdW  Elec       q    Type
REMARK                         _______ _______ _______ _____ _____    ______ ____
ROOT
ATOM      1  O   UNL A   1     -28.123  -1.335  28.487  0.00  0.00    -0.270 OA
ATOM      2  C   UNL A   1     -27.481  -0.404  28.709  0.00  0.00    +0.253 C 
ATOM      3  N   UNL A   1     -27.899   0.646  29.632  0.00  0.00    -0.255 N 
ENDROOT
BRANCH   3   4
ATOM      4  C   UNL A   1     -27.103   1.751  29.917  0.00  0.00    +0.054 A 
ATOM      5  C   UNL A   1     -27.573   2.874  29.459  0.00  0.00    +0.011 A 
ATOM      6  C   UNL A   1     -26.599   3.849  29.298  0.00  0.00    -0.021 A 
ATOM      7  C   UNL A   1     -25.205   3.644  29.645  0.00  0.00    -0.004 A 
ATOM      8  C   UNL A   1     -24.804   2.359  30.024  0.00  0.00    +0.001 A 
ATOM      9  C   UNL A   1     -25.775   1.382  30.196  0.00  0.00    +0.015 A 
ATOM     10  C   UNL A   1     -26.861   5.278  28.819  0.00  0.00    +0.031 C 
ENDBRANCH   3   4
BRANCH   2  11
ATOM     11  C   UNL A   1     -26.380  -0.087  27.939  0.00  0.00    +0.054 A 
ATOM     12  C   UNL A   1     -26.319   0.918  27.102  0.00  0.00    +0.004 A 
ATOM     13  C   UNL A   1     -25.152  -0.837  28.179  0.00  0.00    +0.004 A 
ATOM     14  C   UNL A   1     -25.127   1.174  26.295  0.00  0.00    +0.000 A 
ATOM     15  C   UNL A   1     -23.882  -0.476  27.596  0.00  0.00    +0.000 A 
ATOM     16  C   UNL A   1     -23.948   0.568  26.628  0.00  0.00    +0.000 A 
ENDBRANCH   2  11
BRANCH   3  17
ATOM     17  C   UNL A   1     -29.076   0.391  30.422  0.00  0.00    +0.103 C 
BRANCH  17  18
ATOM     18  C   UNL A   1     -28.970   0.101  31.669  0.00  0.00    +0.048 C 
BRANCH  18  19
ATOM     19  C   UNL A   1     -27.991   0.490  32.426  0.00  0.00    -0.024 A 
ATOM     20  C   UNL A   1     -27.542   0.356  33.495  0.00  0.00    -0.004 A 
ATOM     21  C   UNL A   1     -26.378   0.904  34.225  0.00  0.00    -0.000 A 
ATOM     22  C   UNL A   1     -25.588   1.808  33.456  0.00  0.00    -0.000 A 
ATOM     23  C   UNL A   1     -26.085   2.347  32.276  0.00  0.00    -0.005 A 
ATOM     24  C   UNL A   1     -27.331   1.784  31.845  0.00  0.00    -0.026 A 
ATOM     25  C   UNL A   1     -28.476   2.975  31.950  0.00  0.00    +0.031 C 
ENDBRANCH  18  19
ENDBRANCH  17  18
ENDBRANCH   3  17
TORSDOF 5
