MODEL 1406
MODEL 1
REMARK VINA RESULT:    -4.280      0.000      0.000
REMARK INTER + INTRA:          -4.280
REMARK INTER:                  -4.280
REMARK INTRA:                   0.000
REMARK UNBOUND:                 0.000
REMARK  Name = No_1406-gen_results/8p0m/2024-11-26-14-13-15/
REMARK  0 active torsions:
REMARK  status: ('A' for Active; 'I' for Inactive)
REMARK                            x       y       z     vdW  Elec       q    Type
REMARK                         _______ _______ _______ _____ _____    ______ ____
ROOT
ATOM      1  C   UNL A   1     -24.003  -3.340  28.752  0.00  0.00    +0.000 A 
ATOM      2  C   UNL A   1     -24.011  -4.535  28.570  0.00  0.00    +0.000 A 
ATOM      3  C   UNL A   1     -25.022  -5.368  29.007  0.00  0.00    +0.000 A 
ATOM      4  C   UNL A   1     -26.132  -4.777  29.674  0.00  0.00    +0.000 A 
ATOM      5  C   UNL A   1     -26.158  -3.425  29.702  0.00  0.00    +0.000 A 
ATOM      6  C   UNL A   1     -25.162  -2.704  29.222  0.00  0.00    +0.000 A 
ENDROOT
TORSDOF 0
ENDMDL
ENDMDL
