MODEL 1407
MODEL 1
REMARK VINA RESULT:    -5.506      0.000      0.000
REMARK INTER + INTRA:          -6.254
REMARK INTER:                  -6.150
REMARK INTRA:                  -0.104
REMARK UNBOUND:                -0.104
REMARK  Name = No_1407-gen_results/8p0m/2024-11-26-14-13-15/
REMARK  2 active torsions:
REMARK  status: ('A' for Active; 'I' for Inactive)
REMARK    1  A    between atoms: C_1  and  C_8
REMARK    2  A    between atoms: C_5  and  C_10
REMARK                            x       y       z     vdW  Elec       q    Type
REMARK                         _______ _______ _______ _____ _____    ______ ____
ROOT
ATOM      1  C   UNL A   1     -30.220 -10.454  29.185  0.00  0.00    -0.014 C 
ATOM      2  C   UNL A   1     -29.571 -10.837  30.131  0.00  0.00    -0.047 C 
ATOM      3  C   UNL A   1     -28.635 -11.743  30.145  0.00  0.00    +0.022 C 
ATOM      4  C   UNL A   1     -27.856 -12.182  31.329  0.00  0.00    +0.016 C 
ATOM      5  C   UNL A   1     -28.134 -11.510  32.553  0.00  0.00    +0.104 C 
ATOM      6  C   UNL A   1     -29.077 -10.514  32.531  0.00  0.00    +0.016 C 
ATOM      7  C   UNL A   1     -29.756 -10.132  31.424  0.00  0.00    +0.022 C 
ENDROOT
BRANCH   5   8
ATOM      8  C   UNL A   1     -27.421 -11.837  33.771  0.00  0.00    +0.364 C 
ATOM      9  O   UNL A   1     -26.702 -12.765  33.906  0.00  0.00    -0.246 OA
ATOM     10  O   UNL A   1     -27.220 -10.745  34.614  0.00  0.00    -0.246 OA
ENDBRANCH   5   8
BRANCH   1  11
ATOM     11  C   UNL A   1     -30.276 -11.346  28.081  0.00  0.00    +0.135 C 
ATOM     12  N   UNL A   1     -30.184 -10.893  26.877  0.00  0.00    -0.126 NA
ENDBRANCH   1  11
TORSDOF 2
ENDMDL
ENDMDL
