MODEL 1408
MODEL 1
REMARK VINA RESULT:    -6.588      0.000      0.000
REMARK INTER + INTRA:          -7.321
REMARK INTER:                  -6.973
REMARK INTRA:                  -0.348
REMARK UNBOUND:                -0.348
REMARK  Name = No_1408-gen_results/8p0m/2024-11-26-14-13-15/
REMARK  1 active torsions:
REMARK  status: ('A' for Active; 'I' for Inactive)
REMARK    1  A    between atoms: C_2  and  C_7
REMARK                            x       y       z     vdW  Elec       q    Type
REMARK                         _______ _______ _______ _____ _____    ______ ____
ROOT
ATOM      1  C   UNL A   1     -25.629  -2.519  29.557  0.00  0.00    +0.000 A 
ATOM      2  C   UNL A   1     -24.510  -2.566  29.102  0.00  0.00    +0.000 A 
ATOM      3  C   UNL A   1     -23.934  -3.777  28.735  0.00  0.00    +0.000 A 
ATOM      4  C   UNL A   1     -24.635  -5.020  28.930  0.00  0.00    +0.000 A 
ATOM      5  C   UNL A   1     -25.913  -4.876  29.484  0.00  0.00    +0.000 A 
ATOM      6  C   UNL A   1     -26.406  -3.709  29.829  0.00  0.00    +0.000 A 
ENDROOT
BRANCH   2   7
ATOM      7  C   UNL A   1     -23.633  -1.389  28.858  0.00  0.00    +0.000 A 
ATOM      8  C   UNL A   1     -22.483  -1.181  29.211  0.00  0.00    +0.000 A 
ATOM      9  C   UNL A   1     -21.661  -0.032  28.809  0.00  0.00    +0.000 A 
ATOM     10  C   UNL A   1     -22.275   0.922  27.971  0.00  0.00    +0.000 A 
ATOM     11  C   UNL A   1     -24.194  -0.364  27.946  0.00  0.00    +0.000 A 
ATOM     12  C   UNL A   1     -23.525   0.705  27.565  0.00  0.00    +0.000 A 
ENDBRANCH   2   7
TORSDOF 1
ENDMDL
ENDMDL
