MODEL 1409
MODEL 1
REMARK VINA RESULT:    -7.049      0.000      0.000
REMARK INTER + INTRA:          -8.148
REMARK INTER:                  -7.874
REMARK INTRA:                  -0.275
REMARK UNBOUND:                -0.275
REMARK  Name = No_1409-gen_results/8p0m/2024-11-26-14-13-15/
REMARK  2 active torsions:
REMARK  status: ('A' for Active; 'I' for Inactive)
REMARK    1  A    between atoms: C_2  and  C_11
REMARK    2  A    between atoms: C_18  and  C_20
REMARK                            x       y       z     vdW  Elec       q    Type
REMARK                         _______ _______ _______ _____ _____    ______ ____
ROOT
ATOM      1  C   UNL A   1     -25.647   3.413  26.639  0.00  0.00    +0.253 C 
ATOM      2  O   UNL A   1     -25.651   4.601  26.683  0.00  0.00    -0.270 OA
ATOM      3  N   UNL A   1     -26.695   2.677  26.200  0.00  0.00    -0.254 N 
ATOM      4  C   UNL A   1     -27.912   3.319  25.804  0.00  0.00    +0.103 C 
ATOM      5  C   UNL A   1     -26.715   1.208  26.091  0.00  0.00    +0.068 C 
ATOM      6  C   UNL A   1     -26.612   0.784  24.769  0.00  0.00    +0.016 C 
ATOM      7  C   UNL A   1     -27.953   0.655  24.217  0.00  0.00    +0.001 C 
ATOM      8  C   UNL A   1     -28.778   1.866  24.197  0.00  0.00    +0.051 C 
ATOM      9  C   UNL A   1     -28.435   3.074  24.580  0.00  0.00    +0.052 C 
ENDROOT
BRANCH   1  11
ATOM     10  C   UNL A   1     -24.443   2.150  28.108  0.00  0.00    +0.042 A 
ATOM     11  C   UNL A   1     -24.418   2.532  27.126  0.00  0.00    +0.057 A 
ATOM     12  C   UNL A   1     -23.269   1.378  28.545  0.00  0.00    +0.147 A 
ATOM     13  C   UNL A   1     -22.112   1.286  27.717  0.00  0.00    +0.042 A 
ATOM     14  C   UNL A   1     -22.204   1.887  26.487  0.00  0.00    +0.004 A 
ATOM     15  C   UNL A   1     -23.326   2.570  26.137  0.00  0.00    +0.005 A 
ATOM     16  O   UNL A   1     -23.178   0.738  29.744  0.00  0.00    -0.442 OA
ATOM     17  C   UNL A   1     -22.352  -0.364  29.784  0.00  0.00    +0.222 C 
ATOM     18  C   UNL A   1     -21.014   0.469  28.047  0.00  0.00    +0.048 C 
ATOM     19  C   UNL A   1     -21.123  -0.389  29.215  0.00  0.00    -0.061 C 
ENDBRANCH   1  11
BRANCH   8  20
ATOM     20  C   UNL A   1     -30.043   1.612  23.405  0.00  0.00    +0.415 C 
ATOM     21  F   UNL A   1     -29.944   0.564  22.889  0.00  0.00    -0.166 F 
ATOM     22  F   UNL A   1     -30.103   2.586  22.440  0.00  0.00    -0.166 F 
ATOM     23  F   UNL A   1     -31.177   1.723  24.126  0.00  0.00    -0.166 F 
ENDBRANCH   8  20
TORSDOF 2
ENDMDL
ENDMDL
