REMARK  Name = No_1409-gen_results/8p0m/2024-11-26-14-13-15/
REMARK  2 active torsions:
REMARK  status: ('A' for Active; 'I' for Inactive)
REMARK    1  A    between atoms: C_2  and  C_11
REMARK    2  A    between atoms: C_18  and  C_20
REMARK                            x       y       z     vdW  Elec       q    Type
REMARK                         _______ _______ _______ _____ _____    ______ ____
ROOT
ATOM      1  C   UNL A   1     -30.057  -0.769  29.896  0.00  0.00    +0.253 C 
ATOM      2  O   UNL A   1     -30.710  -1.752  30.036  0.00  0.00    -0.270 OA
ATOM      3  N   UNL A   1     -30.588   0.468  29.748  0.00  0.00    -0.254 N 
ATOM      4  C   UNL A   1     -32.008   0.641  29.702  0.00  0.00    +0.103 C 
ATOM      5  C   UNL A   1     -29.814   1.714  29.614  0.00  0.00    +0.068 C 
ATOM      6  C   UNL A   1     -29.847   2.474  30.779  0.00  0.00    +0.016 C 
ATOM      7  C   UNL A   1     -30.978   3.389  30.705  0.00  0.00    +0.001 C 
ATOM      8  C   UNL A   1     -32.307   2.787  30.569  0.00  0.00    +0.051 C 
ATOM      9  C   UNL A   1     -32.608   1.509  30.550  0.00  0.00    +0.052 C 
ENDROOT
BRANCH   1  11
ATOM     10  C   UNL A   1     -28.016  -0.814  28.878  0.00  0.00    +0.042 A 
ATOM     11  C   UNL A   1     -28.469  -0.785  29.829  0.00  0.00    +0.057 A 
ATOM     12  C   UNL A   1     -26.546  -0.876  28.850  0.00  0.00    +0.147 A 
ATOM     13  C   UNL A   1     -25.804  -1.032  30.057  0.00  0.00    +0.042 A 
ATOM     14  C   UNL A   1     -26.537  -1.039  31.217  0.00  0.00    +0.004 A 
ATOM     15  C   UNL A   1     -27.893  -0.960  31.174  0.00  0.00    +0.005 A 
ATOM     16  O   UNL A   1     -25.800  -0.826  27.711  0.00  0.00    -0.442 OA
ATOM     17  C   UNL A   1     -24.526  -0.318  27.841  0.00  0.00    +0.222 C 
ATOM     18  C   UNL A   1     -24.397  -0.984  30.086  0.00  0.00    +0.048 C 
ATOM     19  C   UNL A   1     -23.696  -0.654  28.857  0.00  0.00    -0.061 C 
ENDBRANCH   1  11
BRANCH   8  20
ATOM     20  C   UNL A   1     -33.370   3.853  30.722  0.00  0.00    +0.415 C 
ATOM     21  F   UNL A   1     -34.386   3.322  30.965  0.00  0.00    -0.166 F 
ATOM     22  F   UNL A   1     -33.470   4.483  29.506  0.00  0.00    -0.166 F 
ATOM     23  F   UNL A   1     -33.065   4.812  31.620  0.00  0.00    -0.166 F 
ENDBRANCH   8  20
TORSDOF 2
