MODEL 140
MODEL 1
REMARK VINA RESULT:    -7.277      0.000      0.000
REMARK INTER + INTRA:          -7.829
REMARK INTER:                  -7.702
REMARK INTRA:                  -0.127
REMARK UNBOUND:                -0.127
REMARK  Name = No_140-gen_results/8p0m/2024-11-26-14-13-15/
REMARK  1 active torsions:
REMARK  status: ('A' for Active; 'I' for Inactive)
REMARK    1  A    between atoms: C_8  and  C_20
REMARK                            x       y       z     vdW  Elec       q    Type
REMARK                         _______ _______ _______ _____ _____    ______ ____
ROOT
ATOM      1  O   UNL A   1     -27.194  -0.051  28.189  0.00  0.00    -0.270 OA
ATOM      2  C   UNL A   1     -26.796   0.684  27.278  0.00  0.00    +0.249 C 
ATOM      3  C   UNL A   1     -25.937   1.170  26.953  0.00  0.00    +0.049 A 
ATOM      4  N   UNL A   1     -27.973   0.971  26.326  0.00  0.00    -0.274 N 
ATOM      5  C   UNL A   1     -24.622   0.917  27.502  0.00  0.00    +0.000 A 
ATOM      6  C   UNL A   1     -24.257   0.121  28.024  0.00  0.00    -0.004 A 
ATOM      7  C   UNL A   1     -24.979  -1.096  28.124  0.00  0.00    +0.006 A 
ATOM      8  C   UNL A   1     -24.287  -2.261  28.715  0.00  0.00    +0.080 A 
ATOM      9  C   UNL A   1     -23.080  -1.984  29.270  0.00  0.00    +0.006 A 
ATOM     10  C   UNL A   1     -22.307  -0.822  29.220  0.00  0.00    -0.004 A 
ATOM     11  C   UNL A   1     -22.800   0.174  28.553  0.00  0.00    -0.018 A 
ATOM     12  C   UNL A   1     -29.228   0.443  26.756  0.00  0.00    +0.115 C 
ATOM     13  C   UNL A   1     -27.951   2.276  25.793  0.00  0.00    +0.098 C 
ATOM     14  C   UNL A   1     -25.964   2.342  25.873  0.00  0.00    -0.016 A 
ATOM     15  C   UNL A   1     -24.736   2.976  25.523  0.00  0.00    -0.004 A 
ATOM     16  C   UNL A   1     -27.119   2.783  25.354  0.00  0.00    +0.048 C 
ATOM     17  C   UNL A   1     -23.535   2.792  26.137  0.00  0.00    -0.004 A 
ATOM     18  C   UNL A   1     -23.382   1.759  26.888  0.00  0.00    -0.018 A 
ATOM     19  C   UNL A   1     -22.218   1.368  27.703  0.00  0.00    +0.053 C 
ENDROOT
BRANCH   8  20
ATOM     20  C   UNL A   1     -25.018  -3.480  29.042  0.00  0.00    +0.388 C 
ATOM     21  O   UNL A   1     -26.026  -3.679  29.293  0.00  0.00    -0.241 OA
ATOM     22  O   UNL A   1     -24.224  -4.627  28.486  0.00  0.00    -0.241 OA
ENDBRANCH   8  20
TORSDOF 1
ENDMDL
ENDMDL
