REMARK  Name = No_141-gen_results/8p0m/2024-11-26-14-13-15/
REMARK  3 active torsions:
REMARK  status: ('A' for Active; 'I' for Inactive)
REMARK    1  A    between atoms: C_3  and  C_4
REMARK    2  A    between atoms: C_7  and  C_13
REMARK    3  A    between atoms: N_14  and  C_16
REMARK                            x       y       z     vdW  Elec       q    Type
REMARK                         _______ _______ _______ _____ _____    ______ ____
ROOT
ATOM      1  C   UNL A   1     -28.016  -0.814  28.878  0.00  0.00    +0.005 A 
ATOM      2  C   UNL A   1     -27.064  -0.119  28.608  0.00  0.00    +0.000 A 
ATOM      3  C   UNL A   1     -25.765  -0.390  29.036  0.00  0.00    +0.000 A 
ATOM      4  C   UNL A   1     -27.829  -1.929  29.855  0.00  0.00    +0.055 A 
ATOM      5  C   UNL A   1     -26.588  -2.327  30.268  0.00  0.00    +0.005 A 
ATOM      6  C   UNL A   1     -25.456  -1.543  29.915  0.00  0.00    +0.000 A 
ENDROOT
BRANCH   3   7
ATOM      7  C   UNL A   1     -24.552   0.406  28.765  0.00  0.00    +0.000 A 
ATOM      8  C   UNL A   1     -23.230   0.118  29.258  0.00  0.00    +0.000 A 
ATOM      9  C   UNL A   1     -22.139   0.943  28.922  0.00  0.00    +0.000 A 
ATOM     10  C   UNL A   1     -22.230   1.909  27.872  0.00  0.00    +0.000 A 
ATOM     11  C   UNL A   1     -24.554   1.470  27.762  0.00  0.00    +0.000 A 
ATOM     12  C   UNL A   1     -23.447   2.167  27.376  0.00  0.00    +0.000 A 
ENDBRANCH   3   7
BRANCH   4  13
ATOM     13  C   UNL A   1     -28.981  -2.774  30.259  0.00  0.00    +0.269 C 
ATOM     14  N   UNL A   1     -30.141  -2.290  30.282  0.00  0.00    -0.174 NA
ATOM     15  O   UNL A   1     -28.777  -3.951  30.684  0.00  0.00    -0.268 OA
BRANCH  14  16
ATOM     16  C   UNL A   1     -31.334  -3.067  30.665  0.00  0.00    +0.084 C 
ATOM     17  C   UNL A   1     -31.452  -3.932  31.270  0.00  0.00    -0.008 C 
ATOM     18  C   UNL A   1     -30.355  -4.396  32.032  0.00  0.00    +0.032 C 
ENDBRANCH  14  16
ENDBRANCH   4  13
TORSDOF 3
