REMARK  Name = No_1410-gen_results/8p0m/2024-11-26-14-13-15/
REMARK  5 active torsions:
REMARK  status: ('A' for Active; 'I' for Inactive)
REMARK    1  A    between atoms: C_4  and  C_11
REMARK    2  A    between atoms: C_7  and  C_18
REMARK    3  A    between atoms: C_18  and  O_20
REMARK    4  A    between atoms: O_20  and  C_21
REMARK    5  A    between atoms: C_21  and  C_22
REMARK                            x       y       z     vdW  Elec       q    Type
REMARK                         _______ _______ _______ _____ _____    ______ ____
ROOT
ATOM      1  C   UNL A   1     -28.016  -0.814  28.878  0.00  0.00    +0.006 A 
ATOM      2  C   UNL A   1     -27.064  -0.119  28.608  0.00  0.00    +0.000 A 
ATOM      3  C   UNL A   1     -25.765  -0.390  29.036  0.00  0.00    +0.000 A 
ATOM      4  C   UNL A   1     -24.552   0.406  28.765  0.00  0.00    +0.001 A 
ATOM      5  C   UNL A   1     -23.230   0.118  29.258  0.00  0.00    +0.000 A 
ATOM      6  C   UNL A   1     -23.094  -1.131  29.873  0.00  0.00    +0.000 A 
ATOM      7  C   UNL A   1     -27.798  -1.934  29.856  0.00  0.00    +0.076 A 
ATOM      8  C   UNL A   1     -26.542  -2.327  30.258  0.00  0.00    +0.006 A 
ATOM      9  C   UNL A   1     -25.451  -1.552  29.908  0.00  0.00    +0.000 A 
ATOM     10  C   UNL A   1     -24.156  -1.910  30.281  0.00  0.00    +0.000 A 
ENDROOT
BRANCH   4  11
ATOM     11  C   UNL A   1     -24.645   1.658  27.946  0.00  0.00    +0.011 A 
ATOM     12  C   UNL A   1     -24.896   2.756  28.561  0.00  0.00    +0.058 A 
ATOM     13  C   UNL A   1     -25.173   3.934  27.844  0.00  0.00    +0.011 A 
ATOM     14  C   UNL A   1     -24.484   1.557  26.589  0.00  0.00    +0.001 A 
ATOM     15  C   UNL A   1     -24.632   2.694  25.785  0.00  0.00    +0.000 A 
ATOM     16  C   UNL A   1     -24.890   3.923  26.432  0.00  0.00    +0.001 A 
ATOM     17 CL   UNL A   1     -25.152   2.936  30.280  0.00  0.00    -0.082 Cl
ENDBRANCH   4  11
BRANCH   7  18
ATOM     18  C   UNL A   1     -29.011  -2.753  30.232  0.00  0.00    +0.342 C 
ATOM     19  O   UNL A   1     -29.075  -3.815  30.435  0.00  0.00    -0.245 OA
BRANCH  18  20
ATOM     20  O   UNL A   1     -29.975  -2.011  30.811  0.00  0.00    -0.435 OA
BRANCH  20  21
ATOM     21  C   UNL A   1     -31.194  -2.554  31.083  0.00  0.00    +0.293 C 
BRANCH  21  22
ATOM     22  C   UNL A   1     -31.316  -2.944  32.312  0.00  0.00    +0.270 C 
ATOM     23  O   UNL A   1     -30.867  -2.266  33.221  0.00  0.00    -0.271 OA
ATOM     24  N   UNL A   1     -31.830  -4.201  32.626  0.00  0.00    -0.273 N 
ATOM     25  C   UNL A   1     -31.881  -4.774  34.033  0.00  0.00    +0.115 C 
ATOM     26  C   UNL A   1     -32.371  -5.040  31.626  0.00  0.00    +0.115 C 
ENDBRANCH  21  22
ENDBRANCH  20  21
ENDBRANCH  18  20
ENDBRANCH   7  18
TORSDOF 5
