MODEL 1410
MODEL 1
REMARK VINA RESULT:    -7.205      0.000      0.000
REMARK INTER + INTRA:         -10.614
REMARK INTER:                  -9.312
REMARK INTRA:                  -1.302
REMARK UNBOUND:                -1.302
REMARK  Name = No_1410-gen_results/8p0m/2024-11-26-14-13-15/
REMARK  5 active torsions:
REMARK  status: ('A' for Active; 'I' for Inactive)
REMARK    1  A    between atoms: C_4  and  C_11
REMARK    2  A    between atoms: C_7  and  C_18
REMARK    3  A    between atoms: C_18  and  O_20
REMARK    4  A    between atoms: O_20  and  C_21
REMARK    5  A    between atoms: C_21  and  C_22
REMARK                            x       y       z     vdW  Elec       q    Type
REMARK                         _______ _______ _______ _____ _____    ______ ____
ROOT
ATOM      1  C   UNL A   1     -24.686   0.335  26.538  0.00  0.00    +0.006 A 
ATOM      2  C   UNL A   1     -24.716  -0.542  27.370  0.00  0.00    +0.000 A 
ATOM      3  C   UNL A   1     -24.352  -0.354  28.703  0.00  0.00    +0.000 A 
ATOM      4  C   UNL A   1     -24.347  -1.366  29.778  0.00  0.00    +0.001 A 
ATOM      5  C   UNL A   1     -23.926  -1.146  31.137  0.00  0.00    +0.000 A 
ATOM      6  C   UNL A   1     -23.699   0.194  31.470  0.00  0.00    +0.000 A 
ATOM      7  C   UNL A   1     -24.073   1.647  26.940  0.00  0.00    +0.076 A 
ATOM      8  C   UNL A   1     -23.771   1.949  28.248  0.00  0.00    +0.006 A 
ATOM      9  C   UNL A   1     -23.850   0.952  29.204  0.00  0.00    +0.000 A 
ATOM     10  C   UNL A   1     -23.565   1.207  30.545  0.00  0.00    +0.000 A 
ENDROOT
BRANCH   4  11
ATOM     11  C   UNL A   1     -24.766  -2.774  29.483  0.00  0.00    +0.011 A 
ATOM     12  C   UNL A   1     -25.959  -3.122  29.804  0.00  0.00    +0.058 A 
ATOM     13  C   UNL A   1     -26.362  -4.467  29.722  0.00  0.00    +0.011 A 
ATOM     14  C   UNL A   1     -23.848  -3.617  28.912  0.00  0.00    +0.001 A 
ATOM     15  C   UNL A   1     -24.182  -4.958  28.685  0.00  0.00    +0.000 A 
ATOM     16  C   UNL A   1     -25.494  -5.369  29.011  0.00  0.00    +0.001 A 
ATOM     17 CL   UNL A   1     -27.155  -2.104  30.571  0.00  0.00    -0.082 Cl
ENDBRANCH   4  11
BRANCH   7  18
ATOM     18  C   UNL A   1     -23.985   2.711  25.871  0.00  0.00    +0.342 C 
ATOM     19  O   UNL A   1     -23.157   2.942  25.211  0.00  0.00    -0.245 OA
BRANCH  18  20
ATOM     20  O   UNL A   1     -25.195   3.073  25.403  0.00  0.00    -0.435 OA
BRANCH  20  21
ATOM     21  C   UNL A   1     -26.191   3.425  26.263  0.00  0.00    +0.293 C 
BRANCH  21  22
ATOM     22  C   UNL A   1     -27.336   2.901  25.958  0.00  0.00    +0.270 C 
ATOM     23  O   UNL A   1     -27.827   3.090  24.859  0.00  0.00    -0.271 OA
ATOM     24  N   UNL A   1     -28.102   2.230  26.910  0.00  0.00    -0.273 N 
ATOM     25  C   UNL A   1     -29.506   1.706  26.659  0.00  0.00    +0.115 C 
ATOM     26  C   UNL A   1     -27.597   1.971  28.204  0.00  0.00    +0.115 C 
ENDBRANCH  21  22
ENDBRANCH  20  21
ENDBRANCH  18  20
ENDBRANCH   7  18
TORSDOF 5
ENDMDL
ENDMDL
