REMARK  Name = No_1411-gen_results/8p0m/2024-11-26-14-13-15/
REMARK  6 active torsions:
REMARK  status: ('A' for Active; 'I' for Inactive)
REMARK    1  A    between atoms: C_1  and  C_2
REMARK    2  A    between atoms: C_4  and  C_19
REMARK    3  A    between atoms: C_12  and  C_16
REMARK    4  A    between atoms: C_14  and  C_23
REMARK    5  A    between atoms: C_23  and  C_24
REMARK    6  A    between atoms: C_23  and  C_30
REMARK                            x       y       z     vdW  Elec       q    Type
REMARK                         _______ _______ _______ _____ _____    ______ ____
ROOT
ATOM      1  C   UNL A   1     -28.016  -0.814  28.878  0.00  0.00    +0.249 C 
ATOM      2  N   UNL A   1     -29.188  -0.147  29.092  0.00  0.00    -0.276 N 
ATOM      3  C   UNL A   1     -29.601   0.163  30.327  0.00  0.00    +0.094 C 
ATOM      4  C   UNL A   1     -30.047   0.027  27.984  0.00  0.00    +0.105 C 
ATOM      5  C   UNL A   1     -31.034   0.966  28.207  0.00  0.00    +0.123 C 
ATOM      6  C   UNL A   1     -31.668   0.900  29.313  0.00  0.00    +0.015 C 
ATOM      7  C   UNL A   1     -31.264   0.295  30.269  0.00  0.00    +0.029 C 
ATOM      8  O   UNL A   1     -27.927  -1.988  29.427  0.00  0.00    -0.270 OA
ENDROOT
BRANCH   1   9
ATOM      9  C   UNL A   1     -27.064  -0.119  28.608  0.00  0.00    +0.054 A 
ATOM     10  C   UNL A   1     -25.792  -0.430  29.076  0.00  0.00    +0.009 A 
ATOM     11  C   UNL A   1     -24.546   0.349  28.823  0.00  0.00    +0.082 A 
ATOM     12  C   UNL A   1     -24.659   1.420  27.888  0.00  0.00    +0.062 A 
ATOM     13  C   UNL A   1     -25.947   1.681  27.379  0.00  0.00    +0.011 A 
ATOM     14  C   UNL A   1     -27.044   0.974  27.687  0.00  0.00    +0.005 A 
ATOM     15 CL   UNL A   1     -23.273   2.303  27.571  0.00  0.00    -0.082 Cl
BRANCH  11  16
ATOM     16  C   UNL A   1     -23.251  -0.100  29.335  0.00  0.00    +0.419 C 
ATOM     17  F   UNL A   1     -22.365   0.002  28.624  0.00  0.00    -0.166 F 
ATOM     18  F   UNL A   1     -23.467  -1.396  29.779  0.00  0.00    -0.166 F 
ATOM     19  F   UNL A   1     -23.099   0.581  30.563  0.00  0.00    -0.166 F 
ENDBRANCH  11  16
ENDBRANCH   1   9
BRANCH   5  20
ATOM     20  C   UNL A   1     -31.614   1.458  26.864  0.00  0.00    +0.366 C 
ATOM     21  O   UNL A   1     -32.374   2.243  26.833  0.00  0.00    -0.246 OA
ATOM     22  O   UNL A   1     -31.067   1.016  25.771  0.00  0.00    -0.246 OA
ENDBRANCH   5  20
BRANCH   7  23
ATOM     23  C   UNL A   1     -31.844   0.036  31.649  0.00  0.00    +0.046 C 
BRANCH  23  24
ATOM     24  C   UNL A   1     -31.634   0.838  32.671  0.00  0.00    -0.018 A 
ATOM     25  C   UNL A   1     -31.047   1.946  32.607  0.00  0.00    -0.004 A 
ATOM     26  C   UNL A   1     -30.832   2.832  33.768  0.00  0.00    -0.000 A 
ATOM     27  C   UNL A   1     -31.354   2.350  34.940  0.00  0.00    -0.000 A 
ATOM     28  C   UNL A   1     -31.976   1.181  35.053  0.00  0.00    -0.000 A 
ATOM     29  C   UNL A   1     -32.119   0.396  33.912  0.00  0.00    -0.004 A 
ENDBRANCH  23  24
BRANCH  23  30
ATOM     30  C   UNL A   1     -32.719  -1.096  31.509  0.00  0.00    -0.022 C 
ATOM     31  C   UNL A   1     -34.010  -0.953  31.404  0.00  0.00    -0.005 C 
ENDBRANCH  23  30
ENDBRANCH   7  23
TORSDOF 6
