MODEL 1411
MODEL 1
REMARK VINA RESULT:    -7.488      0.000      0.000
REMARK INTER + INTRA:         -11.654
REMARK INTER:                 -10.114
REMARK INTRA:                  -1.540
REMARK UNBOUND:                -1.540
REMARK  Name = No_1411-gen_results/8p0m/2024-11-26-14-13-15/
REMARK  6 active torsions:
REMARK  status: ('A' for Active; 'I' for Inactive)
REMARK    1  A    between atoms: C_1  and  C_2
REMARK    2  A    between atoms: C_4  and  C_19
REMARK    3  A    between atoms: C_12  and  C_16
REMARK    4  A    between atoms: C_14  and  C_23
REMARK    5  A    between atoms: C_23  and  C_24
REMARK    6  A    between atoms: C_23  and  C_30
REMARK                            x       y       z     vdW  Elec       q    Type
REMARK                         _______ _______ _______ _____ _____    ______ ____
ROOT
ATOM      1  C   UNL A   1     -13.489   3.967  37.349  0.00  0.00    +0.249 C 
ATOM      2  N   UNL A   1     -13.035   2.890  36.643  0.00  0.00    -0.276 N 
ATOM      3  C   UNL A   1     -12.447   1.852  37.251  0.00  0.00    +0.094 C 
ATOM      4  C   UNL A   1     -13.023   2.996  35.235  0.00  0.00    +0.105 C 
ATOM      5  C   UNL A   1     -12.858   1.780  34.602  0.00  0.00    +0.123 C 
ATOM      6  C   UNL A   1     -11.941   1.009  35.043  0.00  0.00    +0.015 C 
ATOM      7  C   UNL A   1     -11.443   1.131  36.130  0.00  0.00    +0.029 C 
ATOM      8  O   UNL A   1     -12.593   4.609  38.036  0.00  0.00    -0.270 OA
ENDROOT
BRANCH   1   9
ATOM      9  C   UNL A   1     -14.667   3.951  37.621  0.00  0.00    +0.054 A 
ATOM     10  C   UNL A   1     -15.129   3.339  38.781  0.00  0.00    +0.009 A 
ATOM     11  C   UNL A   1     -16.551   3.243  39.220  0.00  0.00    +0.082 A 
ATOM     12  C   UNL A   1     -17.493   3.985  38.449  0.00  0.00    +0.062 A 
ATOM     13  C   UNL A   1     -16.994   4.648  37.309  0.00  0.00    +0.011 A 
ATOM     14  C   UNL A   1     -15.706   4.654  36.936  0.00  0.00    +0.005 A 
ATOM     15 CL   UNL A   1     -19.095   3.911  38.927  0.00  0.00    -0.082 Cl
BRANCH  11  16
ATOM     16  C   UNL A   1     -16.914   2.608  40.487  0.00  0.00    +0.419 C 
ATOM     17  F   UNL A   1     -17.460   3.266  41.242  0.00  0.00    -0.166 F 
ATOM     18  F   UNL A   1     -15.735   2.062  40.970  0.00  0.00    -0.166 F 
ATOM     19  F   UNL A   1     -17.615   1.441  40.111  0.00  0.00    -0.166 F 
ENDBRANCH  11  16
ENDBRANCH   1   9
BRANCH   5  20
ATOM     20  C   UNL A   1     -13.326   1.875  33.135  0.00  0.00    +0.366 C 
ATOM     21  O   UNL A   1     -14.110   2.578  32.839  0.00  0.00    -0.246 OA
ATOM     22  O   UNL A   1     -12.662   1.203  32.243  0.00  0.00    -0.246 OA
ENDBRANCH   5  20
BRANCH   7  23
ATOM     23  C   UNL A   1     -10.330   0.386  36.846  0.00  0.00    +0.046 C 
BRANCH  23  24
ATOM     24  C   UNL A   1     -10.554  -0.427  37.857  0.00  0.00    -0.018 A 
ATOM     25  C   UNL A   1     -10.060  -0.301  39.004  0.00  0.00    -0.004 A 
ATOM     26  C   UNL A   1     -10.335  -1.221  40.125  0.00  0.00    -0.000 A 
ATOM     27  C   UNL A   1     -11.207  -2.231  39.814  0.00  0.00    -0.000 A 
ATOM     28  C   UNL A   1     -11.748  -2.405  38.613  0.00  0.00    -0.000 A 
ATOM     29  C   UNL A   1     -11.420  -1.503  37.604  0.00  0.00    -0.004 A 
ENDBRANCH  23  24
BRANCH  23  30
ATOM     30  C   UNL A   1      -9.130   0.646  36.100  0.00  0.00    -0.022 C 
ATOM     31  C   UNL A   1      -8.363  -0.321  35.680  0.00  0.00    -0.005 C 
ENDBRANCH  23  30
ENDBRANCH   7  23
TORSDOF 6
ENDMDL
ENDMDL
