REMARK  Name = No_1412-gen_results/8p0m/2024-11-26-14-13-15/
REMARK  2 active torsions:
REMARK  status: ('A' for Active; 'I' for Inactive)
REMARK    1  A    between atoms: C_6  and  C_7
REMARK    2  A    between atoms: N_8  and  C_10
REMARK                            x       y       z     vdW  Elec       q    Type
REMARK                         _______ _______ _______ _____ _____    ______ ____
ROOT
ATOM      1  C   UNL A   1     -28.016  -0.814  28.878  0.00  0.00    +0.005 A 
ATOM      2  C   UNL A   1     -27.064  -0.119  28.608  0.00  0.00    +0.011 A 
ATOM      3  C   UNL A   1     -25.765  -0.390  29.036  0.00  0.00    +0.058 A 
ATOM      4  C   UNL A   1     -25.530  -1.530  29.901  0.00  0.00    +0.011 A 
ATOM      5  C   UNL A   1     -26.689  -2.289  30.181  0.00  0.00    +0.005 A 
ATOM      6  C   UNL A   1     -27.873  -1.951  29.737  0.00  0.00    +0.055 A 
ATOM      7 CL   UNL A   1     -24.371   0.564  28.615  0.00  0.00    -0.082 Cl
ENDROOT
BRANCH   6   8
ATOM      8  C   UNL A   1     -28.875  -2.910  30.250  0.00  0.00    +0.269 C 
ATOM      9  N   UNL A   1     -30.069  -2.572  30.270  0.00  0.00    -0.174 NA
ATOM     10  O   UNL A   1     -28.557  -4.090  30.573  0.00  0.00    -0.268 OA
BRANCH   9  11
ATOM     11  C   UNL A   1     -31.188  -3.470  30.640  0.00  0.00    +0.084 C 
ATOM     12  C   UNL A   1     -31.228  -4.344  31.241  0.00  0.00    -0.008 C 
ATOM     13  C   UNL A   1     -30.091  -4.717  32.015  0.00  0.00    +0.032 C 
ENDBRANCH   9  11
ENDBRANCH   6   8
TORSDOF 2
