MODEL 1412
MODEL 1
REMARK VINA RESULT:    -5.661      0.000      0.000
REMARK INTER + INTRA:          -6.557
REMARK INTER:                  -6.323
REMARK INTRA:                  -0.234
REMARK UNBOUND:                -0.234
REMARK  Name = No_1412-gen_results/8p0m/2024-11-26-14-13-15/
REMARK  2 active torsions:
REMARK  status: ('A' for Active; 'I' for Inactive)
REMARK    1  A    between atoms: C_6  and  C_7
REMARK    2  A    between atoms: N_8  and  C_10
REMARK                            x       y       z     vdW  Elec       q    Type
REMARK                         _______ _______ _______ _____ _____    ______ ____
ROOT
ATOM      1  C   UNL A   1     -23.844  -3.253  28.913  0.00  0.00    +0.005 A 
ATOM      2  C   UNL A   1     -24.793  -3.964  29.151  0.00  0.00    +0.011 A 
ATOM      3  C   UNL A   1     -25.973  -3.504  29.735  0.00  0.00    +0.058 A 
ATOM      4  C   UNL A   1     -26.067  -2.115  30.140  0.00  0.00    +0.011 A 
ATOM      5  C   UNL A   1     -24.917  -1.349  29.839  0.00  0.00    +0.005 A 
ATOM      6  C   UNL A   1     -23.849  -1.872  29.293  0.00  0.00    +0.055 A 
ATOM      7 CL   UNL A   1     -27.373  -4.495  30.036  0.00  0.00    -0.082 Cl
ENDROOT
BRANCH   6   8
ATOM      8  C   UNL A   1     -22.810  -0.828  29.163  0.00  0.00    +0.269 C 
ATOM      9  N   UNL A   1     -22.828  -0.089  28.166  0.00  0.00    -0.174 NA
ATOM     10  O   UNL A   1     -21.972  -0.610  30.084  0.00  0.00    -0.268 OA
BRANCH   9  11
ATOM     11  C   UNL A   1     -21.928   1.071  27.967  0.00  0.00    +0.084 C 
ATOM     12  C   UNL A   1     -21.934   1.861  27.258  0.00  0.00    -0.008 C 
ATOM     13  C   UNL A   1     -23.060   2.025  26.399  0.00  0.00    +0.032 C 
ENDBRANCH   9  11
ENDBRANCH   6   8
TORSDOF 2
ENDMDL
ENDMDL
