MODEL 1413
MODEL 1
REMARK VINA RESULT:    -5.223      0.000      0.000
REMARK INTER + INTRA:          -5.223
REMARK INTER:                  -5.223
REMARK INTRA:                   0.000
REMARK UNBOUND:                 0.000
REMARK  Name = No_1413-gen_results/8p0m/2024-11-26-14-13-15/
REMARK  0 active torsions:
REMARK  status: ('A' for Active; 'I' for Inactive)
REMARK                            x       y       z     vdW  Elec       q    Type
REMARK                         _______ _______ _______ _____ _____    ______ ____
ROOT
ATOM      1  C   UNL A   1      -9.506 -10.024  18.011  0.00  0.00    -0.026 C 
ATOM      2  C   UNL A   1      -9.953 -10.584  17.238  0.00  0.00    +0.097 C 
ATOM      3  C   UNL A   1     -10.376  -9.602  19.072  0.00  0.00    +0.023 C 
ATOM      4  C   UNL A   1      -9.831  -8.995  20.304  0.00  0.00    +0.004 C 
ATOM      5  C   UNL A   1      -8.542  -9.361  20.735  0.00  0.00    +0.001 C 
ATOM      6  C   UNL A   1      -7.736 -10.145  19.885  0.00  0.00    +0.004 C 
ATOM      7  C   UNL A   1      -8.194 -10.558  18.689  0.00  0.00    +0.023 C 
ATOM      8  N   UNL A   1     -11.056 -10.461  16.691  0.00  0.00    -0.127 NA
ENDROOT
TORSDOF 0
ENDMDL
ENDMDL
