MODEL 1414
MODEL 1
REMARK VINA RESULT:    -6.457      0.000      0.000
REMARK INTER + INTRA:          -8.090
REMARK INTER:                  -7.589
REMARK INTRA:                  -0.501
REMARK UNBOUND:                -0.501
REMARK  Name = No_1414-gen_results/8p0m/2024-11-26-14-13-15/
REMARK  3 active torsions:
REMARK  status: ('A' for Active; 'I' for Inactive)
REMARK    1  A    between atoms: C_11  and  O_12
REMARK    2  A    between atoms: O_12  and  C_13
REMARK    3  A    between atoms: C_14  and  C_15
REMARK                            x       y       z     vdW  Elec       q    Type
REMARK                         _______ _______ _______ _____ _____    ______ ____
ROOT
ATOM      1  F   UNL A   1     -29.601  -3.787  30.727  0.00  0.00    -0.204 F 
ATOM      2  C   UNL A   1     -28.498  -3.484  30.670  0.00  0.00    +0.140 A 
ATOM      3  C   UNL A   1     -28.063  -2.309  30.773  0.00  0.00    +0.030 A 
ATOM      4  C   UNL A   1     -27.544  -4.522  30.057  0.00  0.00    +0.030 A 
ATOM      5  C   UNL A   1     -26.169  -4.185  29.837  0.00  0.00    +0.005 A 
ATOM      6  C   UNL A   1     -26.648  -1.928  30.528  0.00  0.00    +0.005 A 
ATOM      7  C   UNL A   1     -25.209  -5.166  29.368  0.00  0.00    +0.000 A 
ATOM      8  C   UNL A   1     -25.731  -2.844  30.062  0.00  0.00    +0.035 A 
ATOM      9  C   UNL A   1     -24.232  -4.725  28.484  0.00  0.00    +0.003 A 
ATOM     10  C   UNL A   1     -23.828  -3.254  28.617  0.00  0.00    +0.038 A 
ATOM     11  C   UNL A   1     -24.551  -2.437  29.374  0.00  0.00    +0.148 A 
ENDROOT
BRANCH  11  12
ATOM     12  O   UNL A   1     -24.115  -1.145  29.386  0.00  0.00    -0.429 OA
BRANCH  12  13
ATOM     13  C   UNL A   1     -23.966  -0.460  28.239  0.00  0.00    +0.288 C 
ATOM     14  C   UNL A   1     -25.153  -0.391  27.445  0.00  0.00    +0.069 C 
ATOM     15  F   UNL A   1     -22.947   0.082  27.720  0.00  0.00    -0.163 F 
BRANCH  14  16
ATOM     16  C   UNL A   1     -25.051   0.364  26.190  0.00  0.00    +0.006 C 
ATOM     17  C   UNL A   1     -25.545  -0.243  25.010  0.00  0.00    +0.000 C 
ENDBRANCH  14  16
ENDBRANCH  12  13
ENDBRANCH  11  12
TORSDOF 3
ENDMDL
ENDMDL
