REMARK  Name = No_1414-gen_results/8p0m/2024-11-26-14-13-15/
REMARK  3 active torsions:
REMARK  status: ('A' for Active; 'I' for Inactive)
REMARK    1  A    between atoms: C_11  and  O_12
REMARK    2  A    between atoms: O_12  and  C_13
REMARK    3  A    between atoms: C_14  and  C_15
REMARK                            x       y       z     vdW  Elec       q    Type
REMARK                         _______ _______ _______ _____ _____    ______ ____
ROOT
ATOM      1  F   UNL A   1     -28.073  -1.254  28.532  0.00  0.00    -0.204 F 
ATOM      2  C   UNL A   1     -27.359  -0.379  28.722  0.00  0.00    +0.140 A 
ATOM      3  C   UNL A   1     -27.701   0.761  29.125  0.00  0.00    +0.030 A 
ATOM      4  C   UNL A   1     -25.964  -0.496  28.085  0.00  0.00    +0.030 A 
ATOM      5  C   UNL A   1     -25.047   0.602  28.169  0.00  0.00    +0.005 A 
ATOM      6  C   UNL A   1     -26.777   1.922  29.201  0.00  0.00    +0.005 A 
ATOM      7  C   UNL A   1     -23.684   0.495  27.684  0.00  0.00    +0.000 A 
ATOM      8  C   UNL A   1     -25.487   1.842  28.724  0.00  0.00    +0.035 A 
ATOM      9  C   UNL A   1     -23.137   1.621  27.081  0.00  0.00    +0.003 A 
ATOM     10  C   UNL A   1     -23.679   2.968  27.566  0.00  0.00    +0.038 A 
ATOM     11  C   UNL A   1     -24.759   3.005  28.337  0.00  0.00    +0.148 A 
ENDROOT
BRANCH  11  12
ATOM     12  O   UNL A   1     -25.168   4.261  28.677  0.00  0.00    -0.429 OA
BRANCH  12  13
ATOM     13  C   UNL A   1     -25.607   4.526  29.920  0.00  0.00    +0.288 C 
ATOM     14  C   UNL A   1     -24.954   5.635  30.543  0.00  0.00    +0.069 C 
ATOM     15  F   UNL A   1     -26.455   3.931  30.647  0.00  0.00    -0.163 F 
BRANCH  14  16
ATOM     16  C   UNL A   1     -25.411   5.981  31.895  0.00  0.00    +0.006 C 
ATOM     17  C   UNL A   1     -26.408   5.167  32.485  0.00  0.00    +0.000 C 
ENDBRANCH  14  16
ENDBRANCH  12  13
ENDBRANCH  11  12
TORSDOF 3
