REMARK  Name = No_1415-gen_results/8p0m/2024-11-26-14-13-15/
REMARK  0 active torsions:
REMARK  status: ('A' for Active; 'I' for Inactive)
REMARK                            x       y       z     vdW  Elec       q    Type
REMARK                         _______ _______ _______ _____ _____    ______ ____
ROOT
ATOM      1  C   UNL A   1     -28.016  -0.814  28.878  0.00  0.00    +0.000 A 
ATOM      2  C   UNL A   1     -28.469  -0.785  29.829  0.00  0.00    +0.000 A 
ATOM      3  C   UNL A   1     -27.087   0.290  28.638  0.00  0.00    +0.000 A 
ATOM      4  C   UNL A   1     -26.809   1.283  29.542  0.00  0.00    +0.000 A 
ATOM      5  C   UNL A   1     -28.430   0.095  31.023  0.00  0.00    +0.000 A 
ATOM      6  C   UNL A   1     -27.531   1.170  30.797  0.00  0.00    +0.000 A 
ENDROOT
TORSDOF 0
