REMARK  Name = No_1416-gen_results/8p0m/2024-11-26-14-13-15/
REMARK  0 active torsions:
REMARK  status: ('A' for Active; 'I' for Inactive)
REMARK                            x       y       z     vdW  Elec       q    Type
REMARK                         _______ _______ _______ _____ _____    ______ ____
ROOT
ATOM      1  O   UNL A   1     -28.123  -1.335  28.487  0.00  0.00    -0.249 OA
ATOM      2  C   UNL A   1     -27.064  -0.824  28.869  0.00  0.00    +0.344 C 
ATOM      3  N   UNL A   1     -25.977  -1.138  28.814  0.00  0.00    -0.161 NA
ATOM      4  C   UNL A   1     -24.767  -0.346  29.163  0.00  0.00    +0.073 A 
ATOM      5  N   UNL A   1     -27.207   0.562  29.556  0.00  0.00    -0.182 NA
ATOM      6  C   UNL A   1     -25.047   0.841  29.736  0.00  0.00    +0.015 A 
ATOM      7  C   UNL A   1     -26.284   1.286  29.883  0.00  0.00    +0.144 C 
ATOM      8  C   UNL A   1     -23.419  -0.877  28.987  0.00  0.00    +0.016 A 
ATOM      9  C   UNL A   1     -22.500  -0.418  29.287  0.00  0.00    +0.001 A 
ATOM     10  C   UNL A   1     -22.550   1.042  29.764  0.00  0.00    -0.000 A 
ATOM     11  C   UNL A   1     -23.766   1.550  30.087  0.00  0.00    -0.001 A 
ENDROOT
TORSDOF 0
