MODEL 1416
MODEL 1
REMARK VINA RESULT:    -5.007      0.000      0.000
REMARK INTER + INTRA:          -5.007
REMARK INTER:                  -5.007
REMARK INTRA:                   0.000
REMARK UNBOUND:                 0.000
REMARK  Name = No_1416-gen_results/8p0m/2024-11-26-14-13-15/
REMARK  0 active torsions:
REMARK  status: ('A' for Active; 'I' for Inactive)
REMARK                            x       y       z     vdW  Elec       q    Type
REMARK                         _______ _______ _______ _____ _____    ______ ____
ROOT
ATOM      1  O   UNL A   1     -24.053  -2.329  30.326  0.00  0.00    -0.249 OA
ATOM      2  C   UNL A   1     -23.704  -1.473  29.504  0.00  0.00    +0.344 C 
ATOM      3  N   UNL A   1     -24.174  -1.050  28.565  0.00  0.00    -0.161 NA
ATOM      4  C   UNL A   1     -23.726   0.111  27.749  0.00  0.00    +0.073 A 
ATOM      5  N   UNL A   1     -22.343  -0.785  29.802  0.00  0.00    -0.182 NA
ATOM      6  C   UNL A   1     -22.537   0.614  28.134  0.00  0.00    +0.015 A 
ATOM      7  C   UNL A   1     -21.886   0.166  29.195  0.00  0.00    +0.144 C 
ATOM      8  C   UNL A   1     -24.475   0.570  26.583  0.00  0.00    +0.016 A 
ATOM      9  C   UNL A   1     -24.188   1.335  25.892  0.00  0.00    +0.001 A 
ATOM     10  C   UNL A   1     -22.973   2.206  26.250  0.00  0.00    -0.000 A 
ATOM     11  C   UNL A   1     -22.151   1.754  27.231  0.00  0.00    -0.001 A 
ENDROOT
TORSDOF 0
ENDMDL
ENDMDL
