MODEL 1417
MODEL 1
REMARK VINA RESULT:    -7.352      0.000      0.000
REMARK INTER + INTRA:          -7.352
REMARK INTER:                  -7.352
REMARK INTRA:                   0.000
REMARK UNBOUND:                 0.000
REMARK  Name = No_1417-gen_results/8p0m/2024-11-26-14-13-15/
REMARK  0 active torsions:
REMARK  status: ('A' for Active; 'I' for Inactive)
REMARK                            x       y       z     vdW  Elec       q    Type
REMARK                         _______ _______ _______ _____ _____    ______ ____
ROOT
ATOM      1  C   UNL A   1     -17.127 -21.478   7.049  0.00  0.00    +0.104 C 
ATOM      2  C   UNL A   1     -18.289 -21.144   7.032  0.00  0.00    +0.083 C 
ATOM      3  C   UNL A   1     -18.789 -20.031   6.378  0.00  0.00    +0.174 C 
ATOM      4  C   UNL A   1     -20.154 -19.565   6.407  0.00  0.00    +0.035 A 
ATOM      5  C   UNL A   1     -20.874 -19.991   7.102  0.00  0.00    +0.020 A 
ATOM      6  C   UNL A   1     -22.352 -19.627   7.221  0.00  0.00    +0.144 A 
ATOM      7  N   UNL A   1     -22.489 -18.456   6.542  0.00  0.00    -0.228 NA
ATOM      8  C   UNL A   1     -19.296 -21.982   7.781  0.00  0.00    +0.022 C 
ATOM      9  C   UNL A   1     -20.738 -21.339   7.878  0.00  0.00    +0.085 C 
ATOM     10  N   UNL A   1     -23.273 -20.052   8.064  0.00  0.00    -0.212 NA
ATOM     11  N   UNL A   1     -16.912 -22.724   7.650  0.00  0.00    -0.252 N 
ATOM     12  C   UNL A   1     -18.809 -23.105   8.308  0.00  0.00    +0.023 C 
ATOM     13  C   UNL A   1     -17.656 -23.512   8.343  0.00  0.00    +0.096 C 
ATOM     14  C   UNL A   1     -15.345 -23.183   7.581  0.00  0.00    +0.393 C 
ATOM     15  O   UNL A   1     -14.756 -23.326   8.610  0.00  0.00    -0.236 OA
ATOM     16  F   UNL A   1     -14.874 -23.234   6.517  0.00  0.00    -0.143 F 
ATOM     17  C   UNL A   1     -20.449 -18.359   5.728  0.00  0.00    +0.023 A 
ATOM     18  C   UNL A   1     -21.751 -17.862   5.725  0.00  0.00    +0.100 A 
ATOM     19  O   UNL A   1     -17.882 -19.359   5.661  0.00  0.00    -0.291 OA
ATOM     20  C   UNL A   1     -23.161 -20.944   9.041  0.00  0.00    +0.178 C 
ATOM     21  C   UNL A   1     -21.635 -22.003   8.815  0.00  0.00    +0.176 C 
ATOM     22  O   UNL A   1     -21.650 -22.971   9.455  0.00  0.00    -0.294 OA
ENDROOT
TORSDOF 0
ENDMDL
ENDMDL
