REMARK  Name = No_1417-gen_results/8p0m/2024-11-26-14-13-15/
REMARK  0 active torsions:
REMARK  status: ('A' for Active; 'I' for Inactive)
REMARK                            x       y       z     vdW  Elec       q    Type
REMARK                         _______ _______ _______ _____ _____    ______ ____
ROOT
ATOM      1  C   UNL A   1     -28.016  -0.814  28.878  0.00  0.00    +0.104 C 
ATOM      2  C   UNL A   1     -27.064  -0.119  28.608  0.00  0.00    +0.083 C 
ATOM      3  C   UNL A   1     -26.972   0.714  27.506  0.00  0.00    +0.174 C 
ATOM      4  C   UNL A   1     -25.820   1.491  27.116  0.00  0.00    +0.035 A 
ATOM      5  C   UNL A   1     -24.858   1.342  27.601  0.00  0.00    +0.020 A 
ATOM      6  C   UNL A   1     -23.569   2.111  27.321  0.00  0.00    +0.144 A 
ATOM      7  N   UNL A   1     -23.782   2.754  26.141  0.00  0.00    -0.228 NA
ATOM      8  C   UNL A   1     -25.862  -0.148  29.520  0.00  0.00    +0.022 C 
ATOM      9  C   UNL A   1     -24.598   0.620  28.960  0.00  0.00    +0.085 C 
ATOM     10  N   UNL A   1     -22.357   1.960  27.820  0.00  0.00    -0.212 NA
ATOM     11  N   UNL A   1     -27.916  -1.439  30.127  0.00  0.00    -0.252 N 
ATOM     12  C   UNL A   1     -26.018  -0.870  30.629  0.00  0.00    +0.023 C 
ATOM     13  C   UNL A   1     -26.957  -1.575  30.973  0.00  0.00    +0.096 C 
ATOM     14  C   UNL A   1     -29.253  -2.301  30.497  0.00  0.00    +0.393 C 
ATOM     15  O   UNL A   1     -29.140  -3.482  30.636  0.00  0.00    -0.236 OA
ATOM     16  F   UNL A   1     -30.258  -1.712  30.493  0.00  0.00    -0.143 F 
ATOM     17  C   UNL A   1     -25.904   2.226  25.910  0.00  0.00    +0.023 A 
ATOM     18  C   UNL A   1     -24.820   2.992  25.485  0.00  0.00    +0.100 A 
ATOM     19  O   UNL A   1     -28.084   0.773  26.766  0.00  0.00    -0.291 OA
ATOM     20  C   UNL A   1     -21.933   1.093  28.731  0.00  0.00    +0.178 C 
ATOM     21  C   UNL A   1     -23.365   0.377  29.698  0.00  0.00    +0.176 C 
ATOM     22  O   UNL A   1     -23.039  -0.143  30.683  0.00  0.00    -0.294 OA
ENDROOT
TORSDOF 0
