REMARK  Name = No_1418-gen_results/8p0m/2024-11-26-14-13-15/
REMARK  7 active torsions:
REMARK  status: ('A' for Active; 'I' for Inactive)
REMARK    1  A    between atoms: C_1  and  C_2
REMARK    2  A    between atoms: C_1  and  N_8
REMARK    3  A    between atoms: C_5  and  C_12
REMARK    4  A    between atoms: N_8  and  C_9
REMARK    5  A    between atoms: C_9  and  C_15
REMARK    6  A    between atoms: C_15  and  C_16
REMARK    7  A    between atoms: C_15  and  C_17
REMARK                            x       y       z     vdW  Elec       q    Type
REMARK                         _______ _______ _______ _____ _____    ______ ____
ROOT
ATOM      1  C   UNL A   1     -28.016  -0.814  28.878  0.00  0.00    +0.120 C 
ENDROOT
BRANCH   1   2
ATOM      2  C   UNL A   1     -27.064  -0.119  28.608  0.00  0.00    -0.005 A 
ATOM      3  C   UNL A   1     -25.792  -0.430  29.076  0.00  0.00    -0.003 A 
ATOM      4  C   UNL A   1     -24.546   0.349  28.823  0.00  0.00    -0.001 A 
ATOM      5  C   UNL A   1     -24.659   1.420  27.888  0.00  0.00    +0.025 A 
ATOM      6  C   UNL A   1     -25.947   1.681  27.379  0.00  0.00    -0.001 A 
ATOM      7  C   UNL A   1     -27.044   0.974  27.687  0.00  0.00    -0.003 A 
BRANCH   5   8
ATOM      8  C   UNL A   1     -23.471   2.185  27.588  0.00  0.00    +0.262 C 
ATOM      9 CL   UNL A   1     -22.482   1.727  27.312  0.00  0.00    -0.072 Cl
ATOM     10  F   UNL A   1     -23.864   3.498  27.389  0.00  0.00    -0.214 F 
ENDBRANCH   5   8
ENDBRANCH   1   2
BRANCH   1  11
ATOM     11  N   UNL A   1     -28.657  -0.553  30.096  0.00  0.00    -0.159 NA
BRANCH  11  12
ATOM     12  C   UNL A   1     -29.565  -0.526  30.535  0.00  0.00    +0.323 C 
ATOM     13  F   UNL A   1     -30.533  -0.819  29.813  0.00  0.00    -0.187 F 
ATOM     14  O   UNL A   1     -29.959   0.619  31.221  0.00  0.00    -0.171 OA
BRANCH  12  15
ATOM     15  C   UNL A   1     -29.714  -1.668  31.720  0.00  0.00    +0.098 C 
BRANCH  15  16
ATOM     16  C   UNL A   1     -29.200  -1.487  32.807  0.00  0.00    -0.020 C 
ATOM     17  C   UNL A   1     -28.989  -2.596  33.769  0.00  0.00    -0.005 C 
ENDBRANCH  15  16
BRANCH  15  18
ATOM     18  C   UNL A   1     -30.269  -2.921  31.333  0.00  0.00    +0.011 C 
ATOM     19  C   UNL A   1     -29.699  -4.061  31.827  0.00  0.00    +0.001 C 
ENDBRANCH  15  18
ENDBRANCH  12  15
ENDBRANCH  11  12
ENDBRANCH   1  11
TORSDOF 7
