MODEL 1418
MODEL 1
REMARK VINA RESULT:    -6.557      0.000      0.000
REMARK INTER + INTRA:         -10.260
REMARK INTER:                  -9.240
REMARK INTRA:                  -1.020
REMARK UNBOUND:                -1.020
REMARK  Name = No_1418-gen_results/8p0m/2024-11-26-14-13-15/
REMARK  7 active torsions:
REMARK  status: ('A' for Active; 'I' for Inactive)
REMARK    1  A    between atoms: C_1  and  C_2
REMARK    2  A    between atoms: C_1  and  N_8
REMARK    3  A    between atoms: C_5  and  C_12
REMARK    4  A    between atoms: N_8  and  C_9
REMARK    5  A    between atoms: C_9  and  C_15
REMARK    6  A    between atoms: C_15  and  C_16
REMARK    7  A    between atoms: C_15  and  C_17
REMARK                            x       y       z     vdW  Elec       q    Type
REMARK                         _______ _______ _______ _____ _____    ______ ____
ROOT
ATOM      1  C   UNL A   1     -22.874  -0.170  29.457  0.00  0.00    +0.120 C 
ENDROOT
BRANCH   1   2
ATOM      2  C   UNL A   1     -23.662  -1.086  29.497  0.00  0.00    -0.005 A 
ATOM      3  C   UNL A   1     -23.373  -2.309  28.902  0.00  0.00    -0.003 A 
ATOM      4  C   UNL A   1     -24.261  -3.506  28.874  0.00  0.00    -0.001 A 
ATOM      5  C   UNL A   1     -25.445  -3.423  29.665  0.00  0.00    +0.025 A 
ATOM      6  C   UNL A   1     -25.690  -2.194  30.309  0.00  0.00    -0.001 A 
ATOM      7  C   UNL A   1     -24.874  -1.131  30.253  0.00  0.00    -0.003 A 
BRANCH   5   8
ATOM      8  C   UNL A   1     -26.323  -4.570  29.692  0.00  0.00    +0.262 C 
ATOM      9 CL   UNL A   1     -27.395  -4.533  30.030  0.00  0.00    -0.072 Cl
ATOM     10  F   UNL A   1     -25.719  -5.571  28.949  0.00  0.00    -0.214 F 
ENDBRANCH   5   8
ENDBRANCH   1   2
BRANCH   1  11
ATOM     11  N   UNL A   1     -22.664   0.421  28.204  0.00  0.00    -0.159 NA
BRANCH  11  12
ATOM     12  C   UNL A   1     -22.594   1.315  27.740  0.00  0.00    +0.323 C 
ATOM     13  F   UNL A   1     -21.546   1.523  27.105  0.00  0.00    -0.187 F 
ATOM     14  O   UNL A   1     -22.815   2.481  28.466  0.00  0.00    -0.171 OA
BRANCH  12  15
ATOM     15  C   UNL A   1     -23.715   1.477  26.537  0.00  0.00    +0.098 C 
BRANCH  15  16
ATOM     16  C   UNL A   1     -24.585   0.639  26.400  0.00  0.00    -0.020 C 
ATOM     17  C   UNL A   1     -24.947   0.094  25.069  0.00  0.00    -0.005 C 
ENDBRANCH  15  16
BRANCH  15  18
ATOM     18  C   UNL A   1     -23.475   2.498  25.574  0.00  0.00    +0.011 C 
ATOM     19  C   UNL A   1     -24.217   3.644  25.648  0.00  0.00    +0.001 C 
ENDBRANCH  15  18
ENDBRANCH  12  15
ENDBRANCH  11  12
ENDBRANCH   1  11
TORSDOF 7
ENDMDL
ENDMDL
