REMARK  Name = No_1419-gen_results/8p0m/2024-11-26-14-13-15/
REMARK  2 active torsions:
REMARK  status: ('A' for Active; 'I' for Inactive)
REMARK    1  A    between atoms: C_3  and  C_4
REMARK    2  A    between atoms: C_10  and  C_13
REMARK                            x       y       z     vdW  Elec       q    Type
REMARK                         _______ _______ _______ _____ _____    ______ ____
ROOT
ATOM      1  C   UNL A   1     -28.016  -0.814  28.878  0.00  0.00    +0.006 A 
ATOM      2  C   UNL A   1     -27.064  -0.119  28.608  0.00  0.00    +0.000 A 
ATOM      3  C   UNL A   1     -25.765  -0.390  29.036  0.00  0.00    +0.000 A 
ATOM      4  C   UNL A   1     -27.906  -1.877  29.867  0.00  0.00    +0.068 A 
ATOM      5  C   UNL A   1     -26.665  -2.332  30.289  0.00  0.00    +0.006 A 
ATOM      6  C   UNL A   1     -25.548  -1.561  29.918  0.00  0.00    +0.000 A 
ENDROOT
BRANCH   3   7
ATOM      7  C   UNL A   1     -24.552   0.406  28.765  0.00  0.00    +0.003 A 
ATOM      8  C   UNL A   1     -24.696   1.448  27.799  0.00  0.00    +0.042 A 
ATOM      9  C   UNL A   1     -23.582   2.217  27.463  0.00  0.00    +0.196 A 
ATOM     10  C   UNL A   1     -22.329   1.843  27.966  0.00  0.00    +0.042 A 
ATOM     11  C   UNL A   1     -22.181   0.828  28.881  0.00  0.00    +0.003 A 
ATOM     12  C   UNL A   1     -23.319   0.077  29.247  0.00  0.00    +0.000 A 
ATOM     13  O   UNL A   1     -23.688   3.180  26.544  0.00  0.00    -0.287 OA
ENDBRANCH   3   7
BRANCH   4  14
ATOM     14  C   UNL A   1     -29.081  -2.697  30.251  0.00  0.00    +0.333 C 
ATOM     15  O   UNL A   1     -28.986  -3.901  30.309  0.00  0.00    -0.254 OA
ATOM     16  F   UNL A   1     -30.135  -2.150  30.494  0.00  0.00    -0.159 F 
ENDBRANCH   4  14
TORSDOF 2
