MODEL 1419
MODEL 1
REMARK VINA RESULT:    -6.915      0.000      0.000
REMARK INTER + INTRA:          -8.138
REMARK INTER:                  -7.724
REMARK INTRA:                  -0.414
REMARK UNBOUND:                -0.414
REMARK  Name = No_1419-gen_results/8p0m/2024-11-26-14-13-15/
REMARK  2 active torsions:
REMARK  status: ('A' for Active; 'I' for Inactive)
REMARK    1  A    between atoms: C_3  and  C_4
REMARK    2  A    between atoms: C_10  and  C_13
REMARK                            x       y       z     vdW  Elec       q    Type
REMARK                         _______ _______ _______ _____ _____    ______ ____
ROOT
ATOM      1  C   UNL A   1     -24.237   0.363  27.263  0.00  0.00    +0.006 A 
ATOM      2  C   UNL A   1     -24.749  -0.711  27.478  0.00  0.00    +0.000 A 
ATOM      3  C   UNL A   1     -24.279  -1.613  28.432  0.00  0.00    +0.000 A 
ATOM      4  C   UNL A   1     -22.943   0.700  27.839  0.00  0.00    +0.068 A 
ATOM      5  C   UNL A   1     -22.413  -0.043  28.885  0.00  0.00    +0.006 A 
ATOM      6  C   UNL A   1     -23.050  -1.262  29.182  0.00  0.00    +0.000 A 
ENDROOT
BRANCH   3   7
ATOM      7  C   UNL A   1     -24.833  -2.943  28.752  0.00  0.00    +0.003 A 
ATOM      8  C   UNL A   1     -26.079  -2.946  29.449  0.00  0.00    +0.042 A 
ATOM      9  C   UNL A   1     -26.644  -4.166  29.819  0.00  0.00    +0.196 A 
ATOM     10  C   UNL A   1     -25.898  -5.338  29.633  0.00  0.00    +0.042 A 
ATOM     11  C   UNL A   1     -24.689  -5.339  28.980  0.00  0.00    +0.003 A 
ATOM     12  C   UNL A   1     -24.139  -4.104  28.573  0.00  0.00    +0.000 A 
ATOM     13  O   UNL A   1     -27.796  -4.192  30.493  0.00  0.00    -0.287 OA
ENDBRANCH   3   7
BRANCH   4  14
ATOM     14  C   UNL A   1     -22.275   1.989  27.535  0.00  0.00    +0.333 C 
ATOM     15  O   UNL A   1     -22.932   2.998  27.420  0.00  0.00    -0.254 OA
ATOM     16  F   UNL A   1     -21.072   2.018  27.391  0.00  0.00    -0.159 F 
ENDBRANCH   4  14
TORSDOF 2
ENDMDL
ENDMDL
