MODEL 1420
MODEL 1
REMARK VINA RESULT:    -6.632      0.000      0.000
REMARK INTER + INTRA:          -8.478
REMARK INTER:                  -7.796
REMARK INTRA:                  -0.683
REMARK UNBOUND:                -0.683
REMARK  Name = No_1420-gen_results/8p0m/2024-11-26-14-13-15/
REMARK  3 active torsions:
REMARK  status: ('A' for Active; 'I' for Inactive)
REMARK    1  A    between atoms: C_3  and  C_4
REMARK    2  A    between atoms: C_4  and  C_8
REMARK    3  A    between atoms: C_4  and  C_14
REMARK                            x       y       z     vdW  Elec       q    Type
REMARK                         _______ _______ _______ _____ _____    ______ ____
ROOT
ATOM      1  C   UNL A   1     -24.217  -1.230  29.568  0.00  0.00    +0.109 C 
ENDROOT
BRANCH   1   4
ATOM      2  C   UNL A   1     -24.901  -0.153  27.309  0.00  0.00    -0.004 A 
ATOM      3  C   UNL A   1     -24.610   0.596  26.628  0.00  0.00    -0.000 A 
ATOM      4  C   UNL A   1     -23.974  -0.317  28.429  0.00  0.00    -0.011 A 
ATOM      5  C   UNL A   1     -23.490   1.523  26.531  0.00  0.00    -0.000 A 
ATOM      6  C   UNL A   1     -22.586   1.389  27.565  0.00  0.00    -0.000 A 
ATOM      7  C   UNL A   1     -22.830   0.513  28.556  0.00  0.00    -0.004 A 
ENDBRANCH   1   4
BRANCH   1   8
ATOM      8  C   UNL A   1     -24.759  -2.381  29.362  0.00  0.00    -0.011 A 
ATOM      9  C   UNL A   1     -25.859  -2.977  29.992  0.00  0.00    -0.004 A 
ATOM     10  C   UNL A   1     -26.245  -4.307  29.723  0.00  0.00    -0.000 A 
ATOM     11  C   UNL A   1     -25.335  -5.212  29.130  0.00  0.00    -0.000 A 
ATOM     12  C   UNL A   1     -24.116  -4.720  28.614  0.00  0.00    -0.000 A 
ATOM     13  C   UNL A   1     -23.789  -3.328  28.749  0.00  0.00    -0.004 A 
ENDBRANCH   1   8
BRANCH   1  14
ATOM     14  C   UNL A   1     -23.542  -0.911  30.775  0.00  0.00    +0.216 C 
ATOM     15  O   UNL A   1     -23.381  -1.449  31.797  0.00  0.00    -0.288 OA
ENDBRANCH   1  14
TORSDOF 3
ENDMDL
ENDMDL
