MODEL 1421
MODEL 1
REMARK VINA RESULT:    -6.362      0.000      0.000
REMARK INTER + INTRA:         -11.585
REMARK INTER:                  -9.338
REMARK INTRA:                  -2.247
REMARK UNBOUND:                -2.247
REMARK  Name = No_1421-gen_results/8p0m/2024-11-26-14-13-15/
REMARK  8 active torsions:
REMARK  status: ('A' for Active; 'I' for Inactive)
REMARK    1  A    between atoms: C_3  and  O_16
REMARK    2  A    between atoms: C_5  and  C_22
REMARK    3  A    between atoms: C_7  and  C_8
REMARK    4  A    between atoms: C_13  and  O_14
REMARK    5  A    between atoms: O_14  and  C_15
REMARK    6  A    between atoms: O_16  and  C_17
REMARK    7  A    between atoms: C_17  and  C_18
REMARK    8  A    between atoms: C_33  and  C_34
REMARK                            x       y       z     vdW  Elec       q    Type
REMARK                         _______ _______ _______ _____ _____    ______ ____
ROOT
ATOM      1  F   UNL A   1      -8.862   1.534  34.192  0.00  0.00    -0.201 F 
ATOM      2  C   UNL A   1      -9.339   1.004  35.004  0.00  0.00    +0.174 A 
ATOM      3  C   UNL A   1     -10.580   1.180  35.299  0.00  0.00    +0.166 A 
ATOM      4  C   UNL A   1     -11.220   0.466  36.369  0.00  0.00    +0.044 A 
ATOM      5  C   UNL A   1     -10.410  -0.418  37.110  0.00  0.00    +0.057 A 
ATOM      6  C   UNL A   1      -9.060  -0.650  36.804  0.00  0.00    +0.007 A 
ATOM      7  C   UNL A   1      -8.523   0.011  35.761  0.00  0.00    +0.034 A 
ENDROOT
BRANCH   5   8
ATOM      8  C   UNL A   1     -10.989  -1.206  38.257  0.00  0.00    +0.249 C 
ATOM      9  O   UNL A   1     -12.029  -1.600  38.329  0.00  0.00    -0.270 OA
ATOM     10  N   UNL A   1     -10.169  -1.153  39.409  0.00  0.00    -0.273 N 
ATOM     11  C   UNL A   1     -10.613  -1.904  40.620  0.00  0.00    +0.097 C 
ATOM     12  C   UNL A   1      -9.736  -1.638  41.661  0.00  0.00    +0.057 C 
ATOM     13  C   UNL A   1      -9.443  -0.353  42.055  0.00  0.00    +0.186 C 
ATOM     14  C   UNL A   1      -9.130   0.475  40.878  0.00  0.00    +0.202 C 
ATOM     15  C   UNL A   1      -9.948   0.301  39.745  0.00  0.00    +0.129 C 
ATOM     16  O   UNL A   1      -7.783   0.263  40.531  0.00  0.00    -0.219 OA
ATOM     17  O   UNL A   1      -8.348  -0.201  43.065  0.00  0.00    -0.220 OA
ENDBRANCH   5   8
BRANCH   7  18
ATOM     18  C   UNL A   1      -7.138  -0.215  35.440  0.00  0.00    +0.038 A 
ATOM     19  C   UNL A   1      -6.616  -0.955  34.921  0.00  0.00    +0.015 A 
ATOM     20  C   UNL A   1      -5.183  -1.188  34.653  0.00  0.00    +0.058 A 
ATOM     21  C   UNL A   1      -4.390  -0.226  35.330  0.00  0.00    +0.015 A 
ATOM     22  C   UNL A   1      -4.929   0.781  36.037  0.00  0.00    +0.038 A 
ATOM     23  C   UNL A   1      -6.285   0.897  36.103  0.00  0.00    +0.145 A 
ATOM     24 CL   UNL A   1      -4.495  -2.455  33.809  0.00  0.00    -0.082 Cl
BRANCH  23  25
ATOM     25  O   UNL A   1      -6.676   1.966  36.598  0.00  0.00    -0.450 OA
BRANCH  25  26
ATOM     26  C   UNL A   1      -6.949   2.515  37.755  0.00  0.00    +0.179 C 
ATOM     27  C   UNL A   1      -8.240   3.205  37.991  0.00  0.00    +0.041 C 
BRANCH  27  28
ATOM     28  C   UNL A   1      -8.405   3.831  39.251  0.00  0.00    +0.003 C 
ATOM     29  C   UNL A   1      -9.764   4.000  39.610  0.00  0.00    +0.000 C 
ENDBRANCH  27  28
ENDBRANCH  25  26
ENDBRANCH  23  25
ENDBRANCH   7  18
BRANCH   3  30
ATOM     30  O   UNL A   1     -11.312   2.004  34.638  0.00  0.00    -0.465 OA
BRANCH  30  31
ATOM     31  C   UNL A   1     -12.678   1.875  34.442  0.00  0.00    +0.306 C 
BRANCH  31  32
ATOM     32  C   UNL A   1     -12.996   1.452  33.173  0.00  0.00    +0.430 C 
ATOM     33  O   UNL A   1     -13.727   2.032  32.421  0.00  0.00    -0.152 OA
ATOM     34  F   UNL A   1     -12.048   0.930  32.438  0.00  0.00    -0.168 F 
ATOM     35  F   UNL A   1     -13.849   0.293  33.361  0.00  0.00    -0.168 F 
ENDBRANCH  31  32
ENDBRANCH  30  31
ENDBRANCH   3  30
TORSDOF 8
ENDMDL
ENDMDL
