REMARK  Name = No_1421-gen_results/8p0m/2024-11-26-14-13-15/
REMARK  8 active torsions:
REMARK  status: ('A' for Active; 'I' for Inactive)
REMARK    1  A    between atoms: C_3  and  O_16
REMARK    2  A    between atoms: C_5  and  C_22
REMARK    3  A    between atoms: C_7  and  C_8
REMARK    4  A    between atoms: C_13  and  O_14
REMARK    5  A    between atoms: O_14  and  C_15
REMARK    6  A    between atoms: O_16  and  C_17
REMARK    7  A    between atoms: C_17  and  C_18
REMARK    8  A    between atoms: C_33  and  C_34
REMARK                            x       y       z     vdW  Elec       q    Type
REMARK                         _______ _______ _______ _____ _____    ______ ____
ROOT
ATOM      1  F   UNL A   1     -28.073  -1.254  28.532  0.00  0.00    -0.201 F 
ATOM      2  C   UNL A   1     -28.266  -0.421  29.193  0.00  0.00    +0.174 A 
ATOM      3  C   UNL A   1     -29.445   0.076  29.339  0.00  0.00    +0.166 A 
ATOM      4  C   UNL A   1     -29.707   1.174  30.228  0.00  0.00    +0.044 A 
ATOM      5  C   UNL A   1     -28.597   1.711  30.911  0.00  0.00    +0.057 A 
ATOM      6  C   UNL A   1     -27.302   1.182  30.791  0.00  0.00    +0.007 A 
ATOM      7  C   UNL A   1     -27.122   0.122  29.980  0.00  0.00    +0.034 A 
ENDROOT
BRANCH   5   8
ATOM      8  C   UNL A   1     -28.769   2.870  31.859  0.00  0.00    +0.249 C 
ATOM      9  O   UNL A   1     -29.729   3.374  32.118  0.00  0.00    -0.270 OA
ATOM     10  N   UNL A   1     -27.536   3.484  32.181  0.00  0.00    -0.273 N 
ATOM     11  C   UNL A   1     -27.554   4.640  33.125  0.00  0.00    +0.097 C 
ATOM     12  C   UNL A   1     -26.273   5.161  33.224  0.00  0.00    +0.057 C 
ATOM     13  C   UNL A   1     -25.556   5.544  32.114  0.00  0.00    +0.186 C 
ATOM     14  C   UNL A   1     -25.619   4.492  31.086  0.00  0.00    +0.202 C 
ATOM     15  C   UNL A   1     -26.869   3.876  30.885  0.00  0.00    +0.129 C 
ATOM     16  O   UNL A   1     -24.650   3.517  31.388  0.00  0.00    -0.219 OA
ATOM     17  O   UNL A   1     -24.125   5.918  32.345  0.00  0.00    -0.220 OA
ENDBRANCH   5   8
BRANCH   7  18
ATOM     18  C   UNL A   1     -25.798  -0.426  29.845  0.00  0.00    +0.038 A 
ATOM     19  C   UNL A   1     -24.835  -0.077  30.045  0.00  0.00    +0.015 A 
ATOM     20  C   UNL A   1     -23.487  -0.645  29.845  0.00  0.00    +0.058 A 
ATOM     21  C   UNL A   1     -23.569  -1.886  29.163  0.00  0.00    +0.015 A 
ATOM     22  C   UNL A   1     -24.743  -2.453  28.841  0.00  0.00    +0.038 A 
ATOM     23  C   UNL A   1     -25.903  -1.826  29.187  0.00  0.00    +0.145 A 
ATOM     24 CL   UNL A   1     -22.017   0.063  30.206  0.00  0.00    -0.082 Cl
BRANCH  23  25
ATOM     25  O   UNL A   1     -26.918  -2.523  29.033  0.00  0.00    -0.450 OA
BRANCH  25  26
ATOM     26  C   UNL A   1     -27.498  -3.599  29.503  0.00  0.00    +0.179 C 
ATOM     27  C   UNL A   1     -28.741  -3.511  30.307  0.00  0.00    +0.041 C 
BRANCH  27  28
ATOM     28  C   UNL A   1     -29.245  -4.726  30.832  0.00  0.00    +0.003 C 
ATOM     29  C   UNL A   1     -30.483  -5.105  30.258  0.00  0.00    +0.000 C 
ENDBRANCH  27  28
ENDBRANCH  25  26
ENDBRANCH  23  25
ENDBRANCH   7  18
BRANCH   3  30
ATOM     30  O   UNL A   1     -30.453  -0.399  28.698  0.00  0.00    -0.465 OA
BRANCH  30  31
ATOM     31  C   UNL A   1     -31.762   0.036  28.838  0.00  0.00    +0.306 C 
BRANCH  31  32
ATOM     32  C   UNL A   1     -32.665  -0.783  28.201  0.00  0.00    +0.430 C 
ATOM     33  O   UNL A   1     -32.389  -1.819  27.665  0.00  0.00    -0.152 OA
ATOM     34  F   UNL A   1     -33.842  -0.949  28.745  0.00  0.00    -0.168 F 
ATOM     35  F   UNL A   1     -33.034  -0.072  26.991  0.00  0.00    -0.168 F 
ENDBRANCH  31  32
ENDBRANCH  30  31
ENDBRANCH   3  30
TORSDOF 8
