MODEL 1422
MODEL 1
REMARK VINA RESULT:    -5.446      0.000      0.000
REMARK INTER + INTRA:          -5.841
REMARK INTER:                  -5.764
REMARK INTRA:                  -0.076
REMARK UNBOUND:                -0.076
REMARK  Name = No_1422-gen_results/8p0m/2024-11-26-14-13-15/
REMARK  1 active torsions:
REMARK  status: ('A' for Active; 'I' for Inactive)
REMARK    1  A    between atoms: C_3  and  C_8
REMARK                            x       y       z     vdW  Elec       q    Type
REMARK                         _______ _______ _______ _____ _____    ______ ____
ROOT
ATOM      1  C   UNL A   1     -25.997  -1.801  30.107  0.00  0.00    +0.024 A 
ATOM      2  C   UNL A   1     -25.047  -1.103  29.838  0.00  0.00    +0.062 A 
ATOM      3  C   UNL A   1     -23.898  -1.471  29.345  0.00  0.00    +0.083 A 
ATOM      4  C   UNL A   1     -23.692  -2.861  29.090  0.00  0.00    +0.017 A 
ATOM      5  C   UNL A   1     -25.904  -3.209  29.768  0.00  0.00    +0.069 A 
ATOM      6  C   UNL A   1     -24.755  -3.672  29.277  0.00  0.00    +0.068 A 
ATOM      7 CL   UNL A   1     -27.288  -4.166  30.044  0.00  0.00    -0.081 Cl
ATOM      8 CL   UNL A   1     -24.728  -5.340  28.857  0.00  0.00    -0.081 Cl
ATOM      9 CL   UNL A   1     -25.217   0.717  30.256  0.00  0.00    -0.082 Cl
ENDROOT
BRANCH   3  10
ATOM     10  C   UNL A   1     -22.734  -0.494  29.121  0.00  0.00    +0.419 C 
ATOM     11  F   UNL A   1     -22.417   0.302  30.037  0.00  0.00    -0.166 F 
ATOM     12  F   UNL A   1     -22.998   0.281  28.004  0.00  0.00    -0.166 F 
ATOM     13  F   UNL A   1     -21.607  -1.216  28.827  0.00  0.00    -0.166 F 
ENDBRANCH   3  10
TORSDOF 1
ENDMDL
ENDMDL
