REMARK  Name = No_1422-gen_results/8p0m/2024-11-26-14-13-15/
REMARK  1 active torsions:
REMARK  status: ('A' for Active; 'I' for Inactive)
REMARK    1  A    between atoms: C_3  and  C_8
REMARK                            x       y       z     vdW  Elec       q    Type
REMARK                         _______ _______ _______ _____ _____    ______ ____
ROOT
ATOM      1  C   UNL A   1     -28.016  -0.814  28.878  0.00  0.00    +0.024 A 
ATOM      2  C   UNL A   1     -27.064  -0.119  28.608  0.00  0.00    +0.062 A 
ATOM      3  C   UNL A   1     -26.876   1.133  28.913  0.00  0.00    +0.083 A 
ATOM      4  C   UNL A   1     -27.901   1.807  29.644  0.00  0.00    +0.017 A 
ATOM      5  C   UNL A   1     -29.046  -0.232  29.718  0.00  0.00    +0.069 A 
ATOM      6  C   UNL A   1     -28.940   1.052  30.060  0.00  0.00    +0.068 A 
ATOM      7 CL   UNL A   1     -30.329  -1.251  30.191  0.00  0.00    -0.081 Cl
ATOM      8 CL   UNL A   1     -30.173   1.665  31.091  0.00  0.00    -0.081 Cl
ATOM      9 CL   UNL A   1     -25.735  -0.917  27.552  0.00  0.00    -0.082 Cl
ENDROOT
BRANCH   3  10
ATOM     10  C   UNL A   1     -25.653   1.934  28.440  0.00  0.00    +0.419 C 
ATOM     11  F   UNL A   1     -25.403   3.042  28.973  0.00  0.00    -0.166 F 
ATOM     12  F   UNL A   1     -25.761   2.171  27.080  0.00  0.00    -0.166 F 
ATOM     13  F   UNL A   1     -24.533   1.163  28.606  0.00  0.00    -0.166 F 
ENDBRANCH   3  10
TORSDOF 1
