REMARK  Name = No_1423-gen_results/8p0m/2024-11-26-14-13-15/
REMARK  7 active torsions:
REMARK  status: ('A' for Active; 'I' for Inactive)
REMARK    1  A    between atoms: C_2  and  C_7
REMARK    2  A    between atoms: C_3  and  C_14
REMARK    3  A    between atoms: C_12  and  C_28
REMARK    4  A    between atoms: C_14  and  N_15
REMARK    5  A    between atoms: C_16  and  N_21
REMARK    6  A    between atoms: N_21  and  C_22
REMARK    7  A    between atoms: C_25  and  C_34
REMARK                            x       y       z     vdW  Elec       q    Type
REMARK                         _______ _______ _______ _____ _____    ______ ____
ROOT
ATOM      1  C   UNL A   1     -28.016  -0.814  28.878  0.00  0.00    +0.002 A 
ATOM      2  C   UNL A   1     -28.469  -0.785  29.829  0.00  0.00    +0.056 A 
ATOM      3  C   UNL A   1     -26.546  -0.876  28.850  0.00  0.00    -0.006 A 
ATOM      4  C   UNL A   1     -25.804  -1.032  30.057  0.00  0.00    -0.003 A 
ATOM      5  C   UNL A   1     -27.944  -0.987  31.207  0.00  0.00    +0.005 A 
ATOM      6  C   UNL A   1     -26.582  -1.039  31.223  0.00  0.00    -0.000 A 
ENDROOT
BRANCH   2   7
ATOM      7  C   UNL A   1     -30.061  -0.737  29.902  0.00  0.00    +0.265 C 
ATOM      8  O   UNL A   1     -30.725  -1.554  30.270  0.00  0.00    -0.267 OA
ATOM      9  N   UNL A   1     -30.524   0.566  29.697  0.00  0.00    -0.272 N 
ATOM     10  C   UNL A   1     -31.543   0.916  29.444  0.00  0.00    +0.083 A 
ATOM     11  C   UNL A   1     -31.706   2.188  29.159  0.00  0.00    +0.022 A 
ATOM     12  C   UNL A   1     -30.494   2.867  29.132  0.00  0.00    +0.037 A 
ATOM     13  C   UNL A   1     -29.564   1.727  29.493  0.00  0.00    +0.085 A 
BRANCH  12  14
ATOM     14  C   UNL A   1     -30.059   4.180  28.990  0.00  0.00    +0.083 A 
ATOM     15  N   UNL A   1     -30.493   4.822  27.936  0.00  0.00    -0.244 NA
ATOM     16  C   UNL A   1     -29.983   6.102  27.689  0.00  0.00    +0.099 A 
ATOM     17  C   UNL A   1     -28.591   4.458  29.236  0.00  0.00    +0.019 A 
ATOM     18  C   UNL A   1     -28.108   5.806  29.061  0.00  0.00    +0.003 A 
ATOM     19  C   UNL A   1     -28.823   6.503  28.422  0.00  0.00    +0.021 A 
ENDBRANCH  12  14
ENDBRANCH   2   7
BRANCH   3  20
ATOM     20  C   UNL A   1     -25.698  -0.764  27.603  0.00  0.00    +0.100 C 
BRANCH  20  21
ATOM     21  N   UNL A   1     -25.299   0.485  27.288  0.00  0.00    -0.253 NA
ATOM     22  C   UNL A   1     -25.598   1.002  26.103  0.00  0.00    +0.152 C 
ATOM     23  C   UNL A   1     -24.511   1.323  28.107  0.00  0.00    +0.074 C 
ATOM     24  C   UNL A   1     -23.989   2.458  27.632  0.00  0.00    +0.018 C 
ATOM     25  C   UNL A   1     -25.177   2.176  25.612  0.00  0.00    +0.038 C 
ATOM     26  C   UNL A   1     -24.274   2.934  26.409  0.00  0.00    +0.005 C 
BRANCH  22  27
ATOM     27  N   UNL A   1     -26.396   0.299  25.304  0.00  0.00    -0.223 NA
BRANCH  27  28
ATOM     28  C   UNL A   1     -27.550   0.745  24.759  0.00  0.00    +0.067 A 
ATOM     29  C   UNL A   1     -28.478  -0.110  24.148  0.00  0.00    +0.016 A 
ATOM     30  C   UNL A   1     -29.626  -0.267  24.763  0.00  0.00    -0.002 A 
ATOM     31  C   UNL A   1     -30.273   0.803  25.539  0.00  0.00    -0.003 A 
ATOM     32  C   UNL A   1     -29.342   1.789  26.018  0.00  0.00    -0.002 A 
ATOM     33  C   UNL A   1     -27.962   1.719  25.776  0.00  0.00    +0.016 A 
BRANCH  31  34
ATOM     34  C   UNL A   1     -31.626   0.727  25.918  0.00  0.00    +0.136 C 
ATOM     35  N   UNL A   1     -32.207  -0.405  26.256  0.00  0.00    -0.126 NA
ENDBRANCH  31  34
ENDBRANCH  27  28
ENDBRANCH  22  27
ENDBRANCH  20  21
ENDBRANCH   3  20
TORSDOF 7
