MODEL 1423
MODEL 1
REMARK VINA RESULT:    -7.418      0.000      0.000
REMARK INTER + INTRA:         -12.927
REMARK INTER:                 -10.453
REMARK INTRA:                  -2.473
REMARK UNBOUND:                -2.473
REMARK  Name = No_1423-gen_results/8p0m/2024-11-26-14-13-15/
REMARK  7 active torsions:
REMARK  status: ('A' for Active; 'I' for Inactive)
REMARK    1  A    between atoms: C_2  and  C_7
REMARK    2  A    between atoms: C_3  and  C_14
REMARK    3  A    between atoms: C_12  and  C_28
REMARK    4  A    between atoms: C_14  and  N_15
REMARK    5  A    between atoms: C_16  and  N_21
REMARK    6  A    between atoms: N_21  and  C_22
REMARK    7  A    between atoms: C_25  and  C_34
REMARK                            x       y       z     vdW  Elec       q    Type
REMARK                         _______ _______ _______ _____ _____    ______ ____
ROOT
ATOM      1  C   UNL A   1     -23.453   1.319  29.677  0.00  0.00    +0.002 A 
ATOM      2  C   UNL A   1     -22.715   0.863  29.078  0.00  0.00    +0.056 A 
ATOM      3  C   UNL A   1     -23.863   0.588  30.886  0.00  0.00    -0.006 A 
ATOM      4  C   UNL A   1     -23.183  -0.601  31.281  0.00  0.00    -0.003 A 
ATOM      5  C   UNL A   1     -21.826  -0.312  29.286  0.00  0.00    +0.005 A 
ATOM      6  C   UNL A   1     -22.183  -1.022  30.393  0.00  0.00    -0.000 A 
ENDROOT
BRANCH   2   7
ATOM      7  C   UNL A   1     -22.229   1.633  27.769  0.00  0.00    +0.265 C 
ATOM      8  O   UNL A   1     -21.174   1.731  27.421  0.00  0.00    -0.267 OA
ATOM      9  N   UNL A   1     -23.318   1.951  26.953  0.00  0.00    -0.272 N 
ATOM     10  C   UNL A   1     -23.379   2.674  26.117  0.00  0.00    +0.083 A 
ATOM     11  C   UNL A   1     -24.558   2.905  25.586  0.00  0.00    +0.022 A 
ATOM     12  C   UNL A   1     -25.568   2.241  26.271  0.00  0.00    +0.037 A 
ATOM     13  C   UNL A   1     -24.733   1.533  27.317  0.00  0.00    +0.085 A 
BRANCH  12  14
ATOM     14  C   UNL A   1     -26.936   2.034  26.130  0.00  0.00    +0.083 A 
ATOM     15  N   UNL A   1     -27.351   0.800  26.262  0.00  0.00    -0.244 NA
ATOM     16  C   UNL A   1     -28.700   0.529  26.006  0.00  0.00    +0.099 A 
ATOM     17  C   UNL A   1     -27.630   2.725  24.975  0.00  0.00    +0.019 A 
ATOM     18  C   UNL A   1     -29.042   2.498  24.787  0.00  0.00    +0.003 A 
ATOM     19  C   UNL A   1     -29.462   1.539  25.342  0.00  0.00    +0.021 A 
ENDBRANCH  12  14
ENDBRANCH   2   7
BRANCH   3  20
ATOM     20  C   UNL A   1     -25.010   0.982  31.789  0.00  0.00    +0.100 C 
BRANCH  20  21
ATOM     21  N   UNL A   1     -26.084   1.504  31.162  0.00  0.00    -0.253 NA
ATOM     22  C   UNL A   1     -26.961   0.706  30.566  0.00  0.00    +0.152 C 
ATOM     23  C   UNL A   1     -26.359   2.882  31.020  0.00  0.00    +0.074 C 
ATOM     24  C   UNL A   1     -27.329   3.310  30.207  0.00  0.00    +0.018 C 
ATOM     25  C   UNL A   1     -28.006   1.083  29.815  0.00  0.00    +0.038 C 
ATOM     26  C   UNL A   1     -28.175   2.476  29.580  0.00  0.00    +0.005 C 
BRANCH  22  27
ATOM     27  N   UNL A   1     -26.807  -0.606  30.716  0.00  0.00    -0.223 NA
BRANCH  27  28
ATOM     28  C   UNL A   1     -26.812  -1.516  29.716  0.00  0.00    +0.067 A 
ATOM     29  C   UNL A   1     -25.761  -1.635  28.796  0.00  0.00    +0.016 A 
ATOM     30  C   UNL A   1     -25.039  -2.729  28.867  0.00  0.00    -0.002 A 
ATOM     31  C   UNL A   1     -25.598  -4.034  29.256  0.00  0.00    -0.003 A 
ATOM     32  C   UNL A   1     -26.789  -3.918  30.053  0.00  0.00    -0.002 A 
ATOM     33  C   UNL A   1     -27.343  -2.685  30.426  0.00  0.00    +0.016 A 
BRANCH  31  34
ATOM     34  C   UNL A   1     -24.902  -5.234  29.023  0.00  0.00    +0.136 C 
ATOM     35  N   UNL A   1     -23.780  -5.284  28.336  0.00  0.00    -0.126 NA
ENDBRANCH  31  34
ENDBRANCH  27  28
ENDBRANCH  22  27
ENDBRANCH  20  21
ENDBRANCH   3  20
TORSDOF 7
ENDMDL
ENDMDL
