REMARK  Name = No_1424-gen_results/8p0m/2024-11-26-14-13-15/
REMARK  5 active torsions:
REMARK  status: ('A' for Active; 'I' for Inactive)
REMARK    1  A    between atoms: C_2  and  O_17
REMARK    2  A    between atoms: C_3  and  C_4
REMARK    3  A    between atoms: C_6  and  C_13
REMARK    4  A    between atoms: O_17  and  C_18
REMARK    5  A    between atoms: C_19  and  C_20
REMARK                            x       y       z     vdW  Elec       q    Type
REMARK                         _______ _______ _______ _____ _____    ______ ____
ROOT
ATOM      1  C   UNL A   1     -28.016  -0.814  28.878  0.00  0.00    +0.044 A 
ATOM      2  C   UNL A   1     -27.064  -0.119  28.608  0.00  0.00    +0.146 A 
ATOM      3  C   UNL A   1     -25.792  -0.430  29.076  0.00  0.00    +0.035 A 
ATOM      4  C   UNL A   1     -27.882  -1.899  29.863  0.00  0.00    +0.083 A 
ATOM      5  C   UNL A   1     -26.671  -2.327  30.321  0.00  0.00    +0.007 A 
ATOM      6  C   UNL A   1     -25.543  -1.585  29.932  0.00  0.00    +0.003 A 
ENDROOT
BRANCH   3   7
ATOM      7  C   UNL A   1     -24.546   0.349  28.823  0.00  0.00    +0.003 A 
ATOM      8  C   UNL A   1     -23.241   0.022  29.332  0.00  0.00    +0.000 A 
ATOM      9  C   UNL A   1     -22.192   0.830  29.000  0.00  0.00    +0.001 A 
ATOM     10  C   UNL A   1     -22.147   1.778  28.029  0.00  0.00    +0.007 A 
ATOM     11  C   UNL A   1     -24.532   1.399  27.816  0.00  0.00    +0.007 A 
ATOM     12  C   UNL A   1     -23.362   2.069  27.461  0.00  0.00    +0.035 A 
ATOM     13 BR   UNL A   1     -23.539   3.387  26.099  0.00  0.00    -0.049 Br
ENDBRANCH   3   7
BRANCH   4  14
ATOM     14  C   UNL A   1     -29.062  -2.725  30.300  0.00  0.00    +0.388 C 
ATOM     15  O   UNL A   1     -30.120  -2.357  30.151  0.00  0.00    -0.241 OA
ATOM     16  O   UNL A   1     -28.776  -3.843  30.929  0.00  0.00    -0.241 OA
ENDBRANCH   4  14
BRANCH   2  17
ATOM     17  O   UNL A   1     -27.154   0.868  27.723  0.00  0.00    -0.450 OA
BRANCH  17  18
ATOM     18  C   UNL A   1     -27.800   1.985  28.201  0.00  0.00    +0.179 C 
ATOM     19  C   UNL A   1     -28.064   2.891  27.161  0.00  0.00    +0.040 C 
BRANCH  19  20
ATOM     20  C   UNL A   1     -27.898   2.587  25.920  0.00  0.00    -0.001 C 
ATOM     21  C   UNL A   1     -28.444   3.363  24.840  0.00  0.00    -0.026 C 
ATOM     22  C   UNL A   1     -29.119   4.570  25.200  0.00  0.00    +0.031 C 
ENDBRANCH  19  20
ENDBRANCH  17  18
ENDBRANCH   2  17
TORSDOF 5
