MODEL 1425
MODEL 1
REMARK VINA RESULT:    -6.602      0.000      0.000
REMARK INTER + INTRA:          -9.571
REMARK INTER:                  -8.917
REMARK INTRA:                  -0.653
REMARK UNBOUND:                -0.653
REMARK  Name = No_1425-gen_results/8p0m/2024-11-26-14-13-15/
REMARK  6 active torsions:
REMARK  status: ('A' for Active; 'I' for Inactive)
REMARK    1  A    between atoms: C_2  and  C_3
REMARK    2  A    between atoms: C_3  and  C_4
REMARK    3  A    between atoms: C_4  and  C_10
REMARK    4  A    between atoms: C_5  and  C_6
REMARK    5  A    between atoms: C_5  and  C_11
REMARK    6  A    between atoms: C_10  and  C_12
REMARK                            x       y       z     vdW  Elec       q    Type
REMARK                         _______ _______ _______ _____ _____    ______ ____
ROOT
ATOM      1  C   UNL A   1     -23.313  -0.682  29.716  0.00  0.00    -0.021 C 
ATOM      2  C   UNL A   1     -23.325   0.208  28.900  0.00  0.00    +0.043 C 
ENDROOT
BRANCH   2   3
ATOM      3  C   UNL A   1     -24.438   1.037  28.717  0.00  0.00    -0.005 C 
ATOM      4  C   UNL A   1     -25.457   0.783  28.120  0.00  0.00    -0.043 C 
ATOM      5  C   UNL A   1     -26.587   1.722  28.003  0.00  0.00    +0.026 C 
ATOM      6  C   UNL A   1     -25.111   0.041  26.970  0.00  0.00    +0.026 C 
ENDBRANCH   2   3
BRANCH   2   7
ATOM      7  C   UNL A   1     -22.106   0.627  28.191  0.00  0.00    +0.253 C 
ATOM      8 CL   UNL A   1     -21.905   1.536  27.359  0.00  0.00    -0.038 Cl
ATOM      9  O   UNL A   1     -21.009  -0.123  28.614  0.00  0.00    -0.274 OA
ENDBRANCH   2   7
BRANCH   1  10
ATOM     10  C   UNL A   1     -23.222  -1.006  31.077  0.00  0.00    +0.128 C 
BRANCH  10  12
ATOM     11  N   UNL A   1     -23.510  -1.228  33.150  0.00  0.00    -0.196 NA
ATOM     12  C   UNL A   1     -23.171  -1.098  32.150  0.00  0.00    +0.078 C 
ENDBRANCH  10  12
ENDBRANCH   1  10
BRANCH   1  13
ATOM     13  C   UNL A   1     -23.423  -2.139  28.951  0.00  0.00    +0.050 C 
BRANCH  13  14
ATOM     14  C   UNL A   1     -24.216  -2.954  29.432  0.00  0.00    -0.018 A 
ATOM     15  C   UNL A   1     -25.631  -2.583  29.679  0.00  0.00    -0.004 A 
ATOM     16  C   UNL A   1     -26.615  -3.466  29.997  0.00  0.00    -0.000 A 
ATOM     17  C   UNL A   1     -26.343  -4.748  29.518  0.00  0.00    -0.000 A 
ATOM     18  C   UNL A   1     -25.098  -5.187  29.087  0.00  0.00    -0.000 A 
ATOM     19  C   UNL A   1     -24.070  -4.338  28.991  0.00  0.00    -0.004 A 
ENDBRANCH  13  14
ENDBRANCH   1  13
TORSDOF 6
ENDMDL
ENDMDL
