REMARK  Name = No_1425-gen_results/8p0m/2024-11-26-14-13-15/
REMARK  6 active torsions:
REMARK  status: ('A' for Active; 'I' for Inactive)
REMARK    1  A    between atoms: C_2  and  C_3
REMARK    2  A    between atoms: C_3  and  C_4
REMARK    3  A    between atoms: C_4  and  C_10
REMARK    4  A    between atoms: C_5  and  C_6
REMARK    5  A    between atoms: C_5  and  C_11
REMARK    6  A    between atoms: C_10  and  C_12
REMARK                            x       y       z     vdW  Elec       q    Type
REMARK                         _______ _______ _______ _____ _____    ______ ____
ROOT
ATOM      1  C   UNL A   1     -26.133   1.799  29.128  0.00  0.00    -0.021 C 
ATOM      2  C   UNL A   1     -25.109   2.209  28.638  0.00  0.00    +0.043 C 
ENDROOT
BRANCH   2   3
ATOM      3  C   UNL A   1     -23.867   1.618  28.902  0.00  0.00    -0.005 C 
ATOM      4  C   UNL A   1     -23.211   0.920  28.167  0.00  0.00    -0.043 C 
ATOM      5  C   UNL A   1     -21.897   0.362  28.534  0.00  0.00    +0.026 C 
ATOM      6  C   UNL A   1     -24.098   0.077  27.464  0.00  0.00    +0.026 C 
ENDBRANCH   2   3
BRANCH   2   7
ATOM      7  C   UNL A   1     -25.110   3.217  27.567  0.00  0.00    +0.253 C 
ATOM      8 CL   UNL A   1     -26.044   3.736  26.921  0.00  0.00    -0.038 Cl
ATOM      9  O   UNL A   1     -23.816   3.676  27.323  0.00  0.00    -0.274 OA
ENDBRANCH   2   7
BRANCH   1  10
ATOM     10  C   UNL A   1     -27.107   0.791  29.105  0.00  0.00    +0.128 C 
BRANCH  10  12
ATOM     11  N   UNL A   1     -28.054  -1.050  28.725  0.00  0.00    -0.196 NA
ATOM     12  C   UNL A   1     -27.746  -0.073  29.010  0.00  0.00    +0.078 C 
ENDBRANCH  10  12
ENDBRANCH   1  10
BRANCH   1  13
ATOM     13  C   UNL A   1     -26.646   2.842  30.299  0.00  0.00    +0.050 C 
BRANCH  13  14
ATOM     14  C   UNL A   1     -26.078   2.764  31.392  0.00  0.00    -0.018 A 
ATOM     15  C   UNL A   1     -26.426   3.690  32.498  0.00  0.00    -0.004 A 
ATOM     16  C   UNL A   1     -26.016   3.541  33.786  0.00  0.00    -0.000 A 
ATOM     17  C   UNL A   1     -25.751   2.208  34.100  0.00  0.00    -0.000 A 
ATOM     18  C   UNL A   1     -25.571   1.193  33.169  0.00  0.00    -0.000 A 
ATOM     19  C   UNL A   1     -25.767   1.419  31.866  0.00  0.00    -0.004 A 
ENDBRANCH  13  14
ENDBRANCH   1  13
TORSDOF 6
