REMARK  Name = No_1426-gen_results/8p0m/2024-11-26-14-13-15/
REMARK  1 active torsions:
REMARK  status: ('A' for Active; 'I' for Inactive)
REMARK    1  A    between atoms: C_1  and  C_2
REMARK                            x       y       z     vdW  Elec       q    Type
REMARK                         _______ _______ _______ _____ _____    ______ ____
ROOT
ATOM      1  C   UNL A   1     -27.064  -0.119  28.608  0.00  0.00    +0.000 A 
ATOM      2  C   UNL A   1     -26.972   0.714  27.506  0.00  0.00    +0.001 A 
ATOM      3  C   UNL A   1     -25.820   1.491  27.116  0.00  0.00    +0.007 A 
ATOM      4  C   UNL A   1     -24.656   1.424  27.918  0.00  0.00    +0.035 A 
ATOM      5  C   UNL A   1     -24.711   0.542  29.051  0.00  0.00    +0.007 A 
ATOM      6  C   UNL A   1     -25.804  -0.206  29.388  0.00  0.00    +0.001 A 
ATOM      7 BR   UNL A   1     -23.135   2.387  27.496  0.00  0.00    -0.049 Br
ENDROOT
BRANCH   1   8
ATOM      8  C   UNL A   1     -28.016  -0.814  28.878  0.00  0.00    +0.000 A 
ATOM      9  C   UNL A   1     -28.031  -1.590  30.149  0.00  0.00    +0.000 A 
ATOM     10  C   UNL A   1     -29.171  -2.355  30.511  0.00  0.00    +0.000 A 
ATOM     11  C   UNL A   1     -30.332  -2.055  29.888  0.00  0.00    +0.000 A 
ATOM     12  C   UNL A   1     -30.407  -1.119  28.918  0.00  0.00    +0.000 A 
ATOM     13  C   UNL A   1     -29.311  -0.475  28.504  0.00  0.00    +0.000 A 
ENDBRANCH   1   8
TORSDOF 1
