MODEL 1426
MODEL 1
REMARK VINA RESULT:    -6.258      0.000      0.000
REMARK INTER + INTRA:          -7.012
REMARK INTER:                  -6.623
REMARK INTRA:                  -0.389
REMARK UNBOUND:                -0.389
REMARK  Name = No_1426-gen_results/8p0m/2024-11-26-14-13-15/
REMARK  1 active torsions:
REMARK  status: ('A' for Active; 'I' for Inactive)
REMARK    1  A    between atoms: C_1  and  C_2
REMARK                            x       y       z     vdW  Elec       q    Type
REMARK                         _______ _______ _______ _____ _____    ______ ____
ROOT
ATOM      1  C   UNL A   1     -24.417  -1.622  28.516  0.00  0.00    +0.000 A 
ATOM      2  C   UNL A   1     -25.156  -0.944  27.561  0.00  0.00    +0.001 A 
ATOM      3  C   UNL A   1     -24.831   0.336  26.980  0.00  0.00    +0.007 A 
ATOM      4  C   UNL A   1     -23.655   0.995  27.409  0.00  0.00    +0.035 A 
ATOM      5  C   UNL A   1     -22.850   0.301  28.377  0.00  0.00    +0.007 A 
ATOM      6  C   UNL A   1     -23.162  -0.925  28.895  0.00  0.00    +0.001 A 
ATOM      7 BR   UNL A   1     -23.162   2.639  26.722  0.00  0.00    -0.049 Br
ENDROOT
BRANCH   1   8
ATOM      8  C   UNL A   1     -24.671  -2.726  28.939  0.00  0.00    +0.000 A 
ATOM      9  C   UNL A   1     -26.056  -3.049  29.383  0.00  0.00    +0.000 A 
ATOM     10  C   UNL A   1     -26.384  -4.361  29.817  0.00  0.00    +0.000 A 
ATOM     11  C   UNL A   1     -25.540  -5.353  29.457  0.00  0.00    +0.000 A 
ATOM     12  C   UNL A   1     -24.400  -5.115  28.774  0.00  0.00    +0.000 A 
ATOM     13  C   UNL A   1     -24.039  -3.867  28.460  0.00  0.00    +0.000 A 
ENDBRANCH   1   8
TORSDOF 1
ENDMDL
ENDMDL
