MODEL 1427
MODEL 1
REMARK VINA RESULT:    -4.260      0.000      0.000
REMARK INTER + INTRA:          -4.260
REMARK INTER:                  -4.260
REMARK INTRA:                   0.000
REMARK UNBOUND:                 0.000
REMARK  Name = No_1427-gen_results/8p0m/2024-11-26-14-13-15/
REMARK  0 active torsions:
REMARK  status: ('A' for Active; 'I' for Inactive)
REMARK                            x       y       z     vdW  Elec       q    Type
REMARK                         _______ _______ _______ _____ _____    ______ ____
ROOT
ATOM      1  C   UNL A   1     -26.364  -3.781  29.794  0.00  0.00    +0.000 A 
ATOM      2  C   UNL A   1     -26.102  -4.789  29.631  0.00  0.00    +0.000 A 
ATOM      3  C   UNL A   1     -25.347  -2.773  29.453  0.00  0.00    +0.000 A 
ATOM      4  C   UNL A   1     -24.136  -3.155  28.806  0.00  0.00    +0.000 A 
ATOM      5  C   UNL A   1     -24.959  -5.438  28.933  0.00  0.00    +0.000 A 
ATOM      6  C   UNL A   1     -23.989  -4.535  28.610  0.00  0.00    +0.000 A 
ENDROOT
TORSDOF 0
ENDMDL
ENDMDL
