MODEL 1428
MODEL 1
REMARK VINA RESULT:    -5.086      0.000      0.000
REMARK INTER + INTRA:          -7.622
REMARK INTER:                  -6.870
REMARK INTRA:                  -0.752
REMARK UNBOUND:                -0.752
REMARK  Name = No_1428-gen_results/8p0m/2024-11-26-14-13-15/
REMARK  6 active torsions:
REMARK  status: ('A' for Active; 'I' for Inactive)
REMARK    1  A    between atoms: C_3  and  O_7
REMARK    2  A    between atoms: C_5  and  C_11
REMARK    3  A    between atoms: O_7  and  C_8
REMARK    4  A    between atoms: C_8  and  C_9
REMARK    5  A    between atoms: C_8  and  C_10
REMARK    6  A    between atoms: C_10  and  C_14
REMARK                            x       y       z     vdW  Elec       q    Type
REMARK                         _______ _______ _______ _____ _____    ______ ____
ROOT
ATOM      1  C   UNL A   1     -16.432 -23.081   5.538  0.00  0.00    +0.003 A 
ATOM      2  C   UNL A   1     -17.125 -22.125   5.279  0.00  0.00    +0.037 A 
ATOM      3  C   UNL A   1     -17.466 -21.122   6.171  0.00  0.00    +0.139 A 
ATOM      4  C   UNL A   1     -16.929 -21.216   7.489  0.00  0.00    +0.043 A 
ATOM      5  C   UNL A   1     -16.038 -22.197   7.704  0.00  0.00    +0.083 A 
ATOM      6  C   UNL A   1     -15.742 -23.074   6.788  0.00  0.00    +0.007 A 
ENDROOT
BRANCH   5   7
ATOM      7  C   UNL A   1     -15.430 -22.304   9.064  0.00  0.00    +0.388 C 
ATOM      8  O   UNL A   1     -14.341 -22.411   9.384  0.00  0.00    -0.241 OA
ATOM      9  O   UNL A   1     -16.227 -22.047  10.126  0.00  0.00    -0.241 OA
ENDBRANCH   5   7
BRANCH   3  10
ATOM     10  O   UNL A   1     -18.217 -19.984   6.021  0.00  0.00    -0.476 OA
BRANCH  10  11
ATOM     11  C   UNL A   1     -19.615 -20.203   5.664  0.00  0.00    +0.203 C 
BRANCH  11  12
ATOM     12  C   UNL A   1     -20.417 -19.054   5.554  0.00  0.00    +0.226 C 
ATOM     13  O   UNL A   1     -19.968 -18.008   5.685  0.00  0.00    -0.216 OA
ENDBRANCH  11  12
BRANCH  11  14
ATOM     14  C   UNL A   1     -20.354 -21.167   6.652  0.00  0.00    +0.072 C 
BRANCH  14  15
ATOM     15  C   UNL A   1     -20.838 -22.405   6.026  0.00  0.00    -0.022 C 
ATOM     16  C   UNL A   1     -20.465 -23.553   6.668  0.00  0.00    -0.005 C 
ENDBRANCH  14  15
ENDBRANCH  11  14
ENDBRANCH  10  11
ENDBRANCH   3  10
TORSDOF 6
ENDMDL
ENDMDL
