REMARK  Name = No_1428-gen_results/8p0m/2024-11-26-14-13-15/
REMARK  6 active torsions:
REMARK  status: ('A' for Active; 'I' for Inactive)
REMARK    1  A    between atoms: C_3  and  O_7
REMARK    2  A    between atoms: C_5  and  C_11
REMARK    3  A    between atoms: O_7  and  C_8
REMARK    4  A    between atoms: C_8  and  C_9
REMARK    5  A    between atoms: C_8  and  C_10
REMARK    6  A    between atoms: C_10  and  C_14
REMARK                            x       y       z     vdW  Elec       q    Type
REMARK                         _______ _______ _______ _____ _____    ______ ____
ROOT
ATOM      1  C   UNL A   1     -28.016  -0.814  28.878  0.00  0.00    +0.003 A 
ATOM      2  C   UNL A   1     -27.064  -0.119  28.608  0.00  0.00    +0.037 A 
ATOM      3  C   UNL A   1     -26.972   0.714  27.506  0.00  0.00    +0.139 A 
ATOM      4  C   UNL A   1     -28.105   0.774  26.642  0.00  0.00    +0.043 A 
ATOM      5  C   UNL A   1     -29.204   0.118  27.048  0.00  0.00    +0.083 A 
ATOM      6  C   UNL A   1     -29.213  -0.609  28.128  0.00  0.00    +0.007 A 
ENDROOT
BRANCH   5   7
ATOM      7  C   UNL A   1     -30.419   0.188  26.184  0.00  0.00    +0.388 C 
ATOM      8  O   UNL A   1     -31.212  -0.598  25.953  0.00  0.00    -0.241 OA
ATOM      9  O   UNL A   1     -30.794   1.406  25.730  0.00  0.00    -0.241 OA
ENDBRANCH   5   7
BRANCH   3  10
ATOM     10  O   UNL A   1     -25.980   1.562  27.084  0.00  0.00    -0.476 OA
BRANCH  10  11
ATOM     11  C   UNL A   1     -24.827   1.663  27.973  0.00  0.00    +0.203 C 
BRANCH  11  12
ATOM     12  C   UNL A   1     -24.073   2.846  27.884  0.00  0.00    +0.226 C 
ATOM     13  O   UNL A   1     -23.936   3.383  26.881  0.00  0.00    -0.216 OA
ENDBRANCH  11  12
BRANCH  11  14
ATOM     14  C   UNL A   1     -23.817   0.479  27.801  0.00  0.00    +0.072 C 
BRANCH  14  15
ATOM     15  C   UNL A   1     -22.979   0.234  28.982  0.00  0.00    -0.022 C 
ATOM     16  C   UNL A   1     -22.365  -0.987  29.003  0.00  0.00    -0.005 C 
ENDBRANCH  14  15
ENDBRANCH  11  14
ENDBRANCH  10  11
ENDBRANCH   3  10
TORSDOF 6
