MODEL 1429
MODEL 1
REMARK VINA RESULT:    -6.550      0.000      0.000
REMARK INTER + INTRA:          -7.829
REMARK INTER:                  -7.316
REMARK INTRA:                  -0.513
REMARK UNBOUND:                -0.513
REMARK  Name = No_1429-gen_results/8p0m/2024-11-26-14-13-15/
REMARK  2 active torsions:
REMARK  status: ('A' for Active; 'I' for Inactive)
REMARK    1  A    between atoms: C_4  and  C_7
REMARK    2  A    between atoms: C_7  and  C_8
REMARK                            x       y       z     vdW  Elec       q    Type
REMARK                         _______ _______ _______ _____ _____    ______ ____
ROOT
ATOM      1  C   UNL A   1     -26.211  -4.427  29.673  0.00  0.00    +0.029 A 
ATOM      2  C   UNL A   1     -25.476  -5.014  29.197  0.00  0.00    +0.002 A 
ATOM      3  C   UNL A   1     -25.853  -3.029  29.962  0.00  0.00    +0.137 A 
ATOM      4  C   UNL A   1     -24.626  -2.482  29.485  0.00  0.00    +0.010 A 
ATOM      5  C   UNL A   1     -23.795  -3.353  28.827  0.00  0.00    -0.002 A 
ATOM      6  C   UNL A   1     -24.163  -4.634  28.611  0.00  0.00    -0.000 A 
ATOM      7  F   UNL A   1     -26.644  -2.189  30.672  0.00  0.00    -0.204 F 
ENDROOT
BRANCH   4   8
ATOM      8  C   UNL A   1     -24.274  -1.099  29.751  0.00  0.00    +0.055 C 
BRANCH   8   9
ATOM      9  C   UNL A   1     -23.806  -0.347  28.652  0.00  0.00    -0.018 A 
ATOM     10  C   UNL A   1     -22.614   0.205  28.578  0.00  0.00    -0.004 A 
ATOM     11  C   UNL A   1     -24.694  -0.196  27.488  0.00  0.00    -0.004 A 
ATOM     12  C   UNL A   1     -24.584   0.860  26.601  0.00  0.00    -0.000 A 
ATOM     13  C   UNL A   1     -22.326   1.321  27.694  0.00  0.00    -0.000 A 
ATOM     14  C   UNL A   1     -23.303   1.559  26.623  0.00  0.00    -0.000 A 
ENDBRANCH   8   9
ENDBRANCH   4   8
TORSDOF 2
ENDMDL
ENDMDL
