MODEL 142
MODEL 1
REMARK VINA RESULT:    -5.345      0.000      0.000
REMARK INTER + INTRA:          -5.797
REMARK INTER:                  -5.658
REMARK INTRA:                  -0.140
REMARK UNBOUND:                -0.140
REMARK  Name = No_142-gen_results/8p0m/2024-11-26-14-13-15/
REMARK  1 active torsions:
REMARK  status: ('A' for Active; 'I' for Inactive)
REMARK    1  A    between atoms: C_4  and  C_7
REMARK                            x       y       z     vdW  Elec       q    Type
REMARK                         _______ _______ _______ _____ _____    ______ ____
ROOT
ATOM      1  C   UNL A   1     -24.638  -5.224  28.913  0.00  0.00    -0.000 A 
ATOM      2  C   UNL A   1     -25.618  -5.143  29.292  0.00  0.00    -0.000 A 
ATOM      3  C   UNL A   1     -23.923  -3.964  28.659  0.00  0.00    -0.000 A 
ATOM      4  C   UNL A   1     -24.492  -2.716  29.048  0.00  0.00    -0.000 A 
ATOM      5  C   UNL A   1     -25.753  -2.772  29.586  0.00  0.00    -0.000 A 
ATOM      6  C   UNL A   1     -26.375  -3.956  29.773  0.00  0.00    -0.000 A 
ENDROOT
BRANCH   4   7
ATOM      7  C   UNL A   1     -23.784  -1.470  28.817  0.00  0.00    -0.005 C 
ATOM      8  C   UNL A   1     -22.649  -1.162  29.210  0.00  0.00    -0.026 C 
ATOM      9  C   UNL A   1     -21.902   0.025  28.785  0.00  0.00    +0.031 C 
ENDBRANCH   4   7
TORSDOF 1
ENDMDL
ENDMDL
