REMARK  Name = No_143-gen_results/8p0m/2024-11-26-14-13-15/
REMARK  6 active torsions:
REMARK  status: ('A' for Active; 'I' for Inactive)
REMARK    1  A    between atoms: C_2  and  C_7
REMARK    2  A    between atoms: C_7  and  C_8
REMARK    3  A    between atoms: C_7  and  C_14
REMARK    4  A    between atoms: N_15  and  C_22
REMARK    5  A    between atoms: C_16  and  C_19
REMARK    6  A    between atoms: C_24  and  C_25
REMARK                            x       y       z     vdW  Elec       q    Type
REMARK                         _______ _______ _______ _____ _____    ______ ____
ROOT
ATOM      1  C   UNL A   1     -26.749   2.342  28.445  0.00  0.00    +0.303 C 
ATOM      2  N   UNL A   1     -27.343   3.156  28.760  0.00  0.00    -0.185 N 
ATOM      3  C   UNL A   1     -26.829   4.324  29.301  0.00  0.00    +0.317 C 
ATOM      4  N   UNL A   1     -25.381   2.515  28.453  0.00  0.00    -0.064 NA
ATOM      5  C   UNL A   1     -25.148   3.735  28.925  0.00  0.00    +0.321 C 
ENDROOT
BRANCH   2   6
ATOM      6  C   UNL A   1     -28.872   3.246  28.874  0.00  0.00    +0.179 C 
ATOM      7  C   UNL A   1     -29.485   2.598  29.916  0.00  0.00    -0.002 C 
ATOM      8  C   UNL A   1     -29.175   2.839  31.186  0.00  0.00    -0.005 C 
ATOM      9  C   UNL A   1     -31.036   2.698  29.785  0.00  0.00    +0.026 C 
ATOM     10  C   UNL A   1     -31.351   3.338  28.623  0.00  0.00    +0.008 C 
ATOM     11  C   UNL A   1     -29.809   3.191  27.711  0.00  0.00    +0.051 C 
ATOM     12  C   UNL A   1     -32.401   2.785  27.718  0.00  0.00    +0.001 C 
ATOM     13  C   UNL A   1     -31.513   4.862  28.779  0.00  0.00    +0.001 C 
BRANCH   8  14
ATOM     14  C   UNL A   1     -29.588   2.135  32.248  0.00  0.00    -0.001 A 
ATOM     15  C   UNL A   1     -29.057   2.239  33.574  0.00  0.00    -0.000 A 
ATOM     16  C   UNL A   1     -29.402   1.396  34.637  0.00  0.00    -0.000 A 
ATOM     17  C   UNL A   1     -30.319   0.362  34.333  0.00  0.00    -0.000 A 
ATOM     18  C   UNL A   1     -30.811   0.191  33.076  0.00  0.00    -0.000 A 
ATOM     19  C   UNL A   1     -30.409   0.987  32.058  0.00  0.00    -0.000 A 
ENDBRANCH   8  14
ENDBRANCH   2   6
BRANCH   3  20
ATOM     20  C   UNL A   1     -27.029   5.546  29.761  0.00  0.00    +0.411 C 
ATOM     21  O   UNL A   1     -27.674   5.685  30.666  0.00  0.00    -0.241 OA
ATOM     22  O   UNL A   1     -26.771   6.542  28.826  0.00  0.00    -0.241 OA
ENDBRANCH   3  20
BRANCH   1  23
ATOM     23  C   UNL A   1     -27.324   1.085  27.819  0.00  0.00    +0.150 C 
BRANCH  23  25
ATOM     24  C   UNL A   1     -28.016  -0.814  28.878  0.00  0.00    -0.003 A 
ATOM     25  C   UNL A   1     -27.064  -0.119  28.608  0.00  0.00    -0.007 A 
ATOM     26  C   UNL A   1     -25.792  -0.430  29.076  0.00  0.00    -0.003 A 
ATOM     27  C   UNL A   1     -25.576  -1.565  29.936  0.00  0.00    -0.000 A 
ATOM     28  C   UNL A   1     -26.735  -2.300  30.217  0.00  0.00    -0.000 A 
ATOM     29  C   UNL A   1     -27.918  -1.954  29.763  0.00  0.00    -0.000 A 
ENDBRANCH  23  25
BRANCH  23  30
ATOM     30  C   UNL A   1     -27.726   1.071  26.626  0.00  0.00    -0.007 A 
ATOM     31  C   UNL A   1     -28.136  -0.243  26.103  0.00  0.00    -0.003 A 
ATOM     32  C   UNL A   1     -28.640  -0.192  24.723  0.00  0.00    -0.000 A 
ATOM     33  C   UNL A   1     -28.760   1.016  24.067  0.00  0.00    -0.000 A 
ATOM     34  C   UNL A   1     -28.395   2.241  24.574  0.00  0.00    -0.000 A 
ATOM     35  C   UNL A   1     -27.891   2.291  25.854  0.00  0.00    -0.003 A 
ENDBRANCH  23  30
ENDBRANCH   1  23
TORSDOF 6
