MODEL 1430
MODEL 1
REMARK VINA RESULT:    -6.128      0.000      0.000
REMARK INTER + INTRA:          -6.773
REMARK INTER:                  -6.486
REMARK INTRA:                  -0.287
REMARK UNBOUND:                -0.287
REMARK  Name = No_1430-gen_results/8p0m/2024-11-26-14-13-15/
REMARK  1 active torsions:
REMARK  status: ('A' for Active; 'I' for Inactive)
REMARK    1  A    between atoms: C_2  and  N_7
REMARK                            x       y       z     vdW  Elec       q    Type
REMARK                         _______ _______ _______ _____ _____    ______ ____
ROOT
ATOM      1  C   UNL A   1     -23.843  -3.708  28.760  0.00  0.00    +0.015 A 
ATOM      2  C   UNL A   1     -24.305  -2.619  29.010  0.00  0.00    +0.048 A 
ATOM      3  C   UNL A   1     -25.573  -2.486  29.564  0.00  0.00    +0.015 A 
ATOM      4  C   UNL A   1     -26.397  -3.640  29.815  0.00  0.00    +0.001 A 
ATOM      5  C   UNL A   1     -25.794  -4.859  29.474  0.00  0.00    +0.000 A 
ATOM      6  C   UNL A   1     -24.598  -4.929  28.937  0.00  0.00    +0.001 A 
ENDROOT
BRANCH   2   7
ATOM      7  N   UNL A   1     -23.655  -1.400  28.794  0.00  0.00    -0.307 N 
ATOM      8  C   UNL A   1     -22.466  -1.123  29.178  0.00  0.00    +0.091 C 
ATOM      9  C   UNL A   1     -24.264  -0.422  27.957  0.00  0.00    +0.091 C 
ATOM     10  C   UNL A   1     -21.719  -0.263  28.933  0.00  0.00    +0.021 C 
ATOM     11  C   UNL A   1     -23.494   0.700  27.574  0.00  0.00    +0.021 C 
ATOM     12  C   UNL A   1     -22.244   0.854  28.084  0.00  0.00    +0.004 C 
ENDBRANCH   2   7
TORSDOF 1
ENDMDL
ENDMDL
