REMARK  Name = No_1430-gen_results/8p0m/2024-11-26-14-13-15/
REMARK  1 active torsions:
REMARK  status: ('A' for Active; 'I' for Inactive)
REMARK    1  A    between atoms: C_2  and  N_7
REMARK                            x       y       z     vdW  Elec       q    Type
REMARK                         _______ _______ _______ _____ _____    ______ ____
ROOT
ATOM      1  C   UNL A   1     -28.016  -0.814  28.878  0.00  0.00    +0.015 A 
ATOM      2  C   UNL A   1     -27.064  -0.119  28.608  0.00  0.00    +0.048 A 
ATOM      3  C   UNL A   1     -25.792  -0.430  29.076  0.00  0.00    +0.015 A 
ATOM      4  C   UNL A   1     -25.576  -1.565  29.936  0.00  0.00    +0.001 A 
ATOM      5  C   UNL A   1     -26.735  -2.300  30.217  0.00  0.00    +0.000 A 
ATOM      6  C   UNL A   1     -27.918  -1.954  29.763  0.00  0.00    +0.001 A 
ENDROOT
BRANCH   2   7
ATOM      7  N   UNL A   1     -27.106   1.034  27.819  0.00  0.00    -0.307 N 
ATOM      8  C   UNL A   1     -26.261   1.329  26.904  0.00  0.00    +0.091 C 
ATOM      9  C   UNL A   1     -28.239   1.893  27.897  0.00  0.00    +0.091 C 
ATOM     10  C   UNL A   1     -26.242   2.120  26.049  0.00  0.00    +0.021 C 
ATOM     11  C   UNL A   1     -28.363   2.922  26.936  0.00  0.00    +0.021 C 
ATOM     12  C   UNL A   1     -27.364   3.113  26.034  0.00  0.00    +0.004 C 
ENDBRANCH   2   7
TORSDOF 1
