REMARK  Name = No_1431-gen_results/8p0m/2024-11-26-14-13-15/
REMARK  1 active torsions:
REMARK  status: ('A' for Active; 'I' for Inactive)
REMARK    1  A    between atoms: C_3  and  C_16
REMARK                            x       y       z     vdW  Elec       q    Type
REMARK                         _______ _______ _______ _____ _____    ______ ____
ROOT
ATOM      1  C   UNL A   1     -28.016  -0.814  28.878  0.00  0.00    +0.071 A 
ATOM      2  C   UNL A   1     -28.469  -0.785  29.829  0.00  0.00    +0.069 A 
ATOM      3  C   UNL A   1     -26.546  -0.876  28.850  0.00  0.00    +0.015 A 
ATOM      4  C   UNL A   1     -25.804  -1.032  30.057  0.00  0.00    +0.001 A 
ATOM      5  C   UNL A   1     -27.944  -0.987  31.207  0.00  0.00    +0.006 A 
ATOM      6  C   UNL A   1     -26.582  -1.039  31.223  0.00  0.00    +0.000 A 
ATOM      7  C   UNL A   1     -30.028  -0.659  29.697  0.00  0.00    +0.251 C 
ATOM      8  N   UNL A   1     -30.492  -0.105  28.775  0.00  0.00    -0.260 N 
ATOM      9  O   UNL A   1     -30.794  -1.157  30.684  0.00  0.00    -0.270 OA
ATOM     10  C   UNL A   1     -31.921   0.014  28.468  0.00  0.00    +0.095 C 
ATOM     11  C   UNL A   1     -32.227   0.244  27.254  0.00  0.00    +0.022 C 
ATOM     12  C   UNL A   1     -31.259   0.585  26.244  0.00  0.00    +0.005 C 
ATOM     13  C   UNL A   1     -29.930   0.488  26.520  0.00  0.00    +0.042 C 
ATOM     14  C   UNL A   1     -29.563   0.072  27.709  0.00  0.00    +0.169 C 
ATOM     15  N   UNL A   1     -28.405  -0.225  27.723  0.00  0.00    -0.219 NA
ENDROOT
BRANCH   3  16
ATOM     16  C   UNL A   1     -25.619  -0.811  27.660  0.00  0.00    -0.003 C 
ATOM     17  C   UNL A   1     -24.273  -0.520  27.859  0.00  0.00    -0.026 C 
ATOM     18  C   UNL A   1     -23.628  -0.847  29.105  0.00  0.00    +0.031 C 
ENDBRANCH   3  16
TORSDOF 1
