MODEL 1432
MODEL 1
REMARK VINA RESULT:    -4.592      0.000      0.000
REMARK INTER + INTRA:          -4.592
REMARK INTER:                  -4.592
REMARK INTRA:                   0.000
REMARK UNBOUND:                 0.000
REMARK  Name = No_1432-gen_results/8p0m/2024-11-26-14-13-15/
REMARK  0 active torsions:
REMARK  status: ('A' for Active; 'I' for Inactive)
REMARK                            x       y       z     vdW  Elec       q    Type
REMARK                         _______ _______ _______ _____ _____    ______ ____
ROOT
ATOM      1  C   UNL A   1     -10.175  -9.755  18.317  0.00  0.00    +0.030 A 
ATOM      2  C   UNL A   1      -9.189 -10.372  17.985  0.00  0.00    +0.140 A 
ATOM      3  C   UNL A   1      -8.068 -10.475  18.743  0.00  0.00    +0.030 A 
ATOM      4  C   UNL A   1      -8.044  -9.826  19.992  0.00  0.00    +0.002 A 
ATOM      5  C   UNL A   1     -10.256  -9.147  19.621  0.00  0.00    +0.002 A 
ATOM      6  C   UNL A   1      -9.146  -9.197  20.409  0.00  0.00    +0.000 A 
ATOM      7  F   UNL A   1      -9.138 -11.024  16.795  0.00  0.00    -0.204 F 
ENDROOT
TORSDOF 0
ENDMDL
ENDMDL
