REMARK  Name = No_1433-gen_results/8p0m/2024-11-26-14-13-15/
REMARK  3 active torsions:
REMARK  status: ('A' for Active; 'I' for Inactive)
REMARK    1  A    between atoms: C_5  and  C_8
REMARK    2  A    between atoms: C_11  and  O_14
REMARK    3  A    between atoms: O_14  and  C_15
REMARK                            x       y       z     vdW  Elec       q    Type
REMARK                         _______ _______ _______ _____ _____    ______ ____
ROOT
ATOM      1  C   UNL A   1     -29.975  -0.086  31.810  0.00  0.00    +0.000 A 
ATOM      2  C   UNL A   1     -29.795   0.832  32.681  0.00  0.00    +0.003 A 
ATOM      3  C   UNL A   1     -30.607   0.807  33.862  0.00  0.00    +0.037 A 
ATOM      4  C   UNL A   1     -31.399  -0.344  34.061  0.00  0.00    +0.145 A 
ATOM      5  C   UNL A   1     -30.863  -1.149  31.999  0.00  0.00    +0.003 A 
ATOM      6  C   UNL A   1     -31.540  -1.274  33.137  0.00  0.00    +0.037 A 
ENDROOT
BRANCH   1  11
ATOM      7  C   UNL A   1     -28.016  -0.814  28.878  0.00  0.00    +0.030 A 
ATOM      8  C   UNL A   1     -28.469  -0.785  29.829  0.00  0.00    +0.002 A 
ATOM      9  C   UNL A   1     -28.182   0.428  28.113  0.00  0.00    +0.140 A 
ATOM     10  C   UNL A   1     -28.984   1.415  28.515  0.00  0.00    +0.030 A 
ATOM     11  C   UNL A   1     -29.380   0.138  30.461  0.00  0.00    +0.000 A 
ATOM     12  C   UNL A   1     -29.541   1.274  29.724  0.00  0.00    +0.002 A 
ATOM     13  F   UNL A   1     -27.535   0.453  26.902  0.00  0.00    -0.204 F 
ENDBRANCH   1  11
BRANCH   4  14
ATOM     14  O   UNL A   1     -32.102  -0.424  35.262  0.00  0.00    -0.451 OA
BRANCH  14  15
ATOM     15  C   UNL A   1     -31.856   0.423  36.239  0.00  0.00    +0.175 C 
ATOM     16  C   UNL A   1     -31.101   0.171  37.224  0.00  0.00    +0.015 C 
ATOM     17  C   UNL A   1     -30.785   1.082  38.294  0.00  0.00    +0.034 C 
ENDBRANCH  14  15
ENDBRANCH   4  14
TORSDOF 3
