MODEL 1433
MODEL 1
REMARK VINA RESULT:    -6.467      0.000      0.000
REMARK INTER + INTRA:          -8.177
REMARK INTER:                  -7.602
REMARK INTRA:                  -0.575
REMARK UNBOUND:                -0.575
REMARK  Name = No_1433-gen_results/8p0m/2024-11-26-14-13-15/
REMARK  3 active torsions:
REMARK  status: ('A' for Active; 'I' for Inactive)
REMARK    1  A    between atoms: C_5  and  C_8
REMARK    2  A    between atoms: C_11  and  O_14
REMARK    3  A    between atoms: O_14  and  C_15
REMARK                            x       y       z     vdW  Elec       q    Type
REMARK                         _______ _______ _______ _____ _____    ______ ____
ROOT
ATOM      1  C   UNL A   1     -24.253  -1.968  29.289  0.00  0.00    +0.000 A 
ATOM      2  C   UNL A   1     -25.328  -1.575  29.858  0.00  0.00    +0.003 A 
ATOM      3  C   UNL A   1     -26.394  -2.522  30.009  0.00  0.00    +0.037 A 
ATOM      4  C   UNL A   1     -26.095  -3.866  29.700  0.00  0.00    +0.145 A 
ATOM      5  C   UNL A   1     -24.045  -3.292  28.889  0.00  0.00    +0.003 A 
ATOM      6  C   UNL A   1     -24.962  -4.225  29.128  0.00  0.00    +0.037 A 
ENDROOT
BRANCH   1  11
ATOM      7  C   UNL A   1     -23.157   1.017  27.602  0.00  0.00    +0.030 A 
ATOM      8  C   UNL A   1     -23.672   0.171  27.960  0.00  0.00    +0.002 A 
ATOM      9  C   UNL A   1     -21.718   0.992  27.890  0.00  0.00    +0.140 A 
ATOM     10  C   UNL A   1     -21.163   0.077  28.687  0.00  0.00    +0.030 A 
ATOM     11  C   UNL A   1     -23.302  -0.911  28.839  0.00  0.00    +0.000 A 
ATOM     12  C   UNL A   1     -21.967  -0.904  29.116  0.00  0.00    +0.002 A 
ATOM     13  F   UNL A   1     -21.004   2.042  27.367  0.00  0.00    -0.204 F 
ENDBRANCH   1  11
BRANCH   4  14
ATOM     14  O   UNL A   1     -27.091  -4.806  29.953  0.00  0.00    -0.451 OA
BRANCH  14  15
ATOM     15  C   UNL A   1     -28.269  -4.429  30.404  0.00  0.00    +0.175 C 
ATOM     16  C   UNL A   1     -28.998  -5.132  31.164  0.00  0.00    +0.015 C 
ATOM     17  C   UNL A   1     -30.276  -4.740  31.700  0.00  0.00    +0.034 C 
ENDBRANCH  14  15
ENDBRANCH   4  14
TORSDOF 3
ENDMDL
ENDMDL
