MODEL 1434
MODEL 1
REMARK VINA RESULT:    -5.603      0.000      0.000
REMARK INTER + INTRA:         -12.163
REMARK INTER:                  -8.878
REMARK INTRA:                  -3.285
REMARK UNBOUND:                -3.285
REMARK  Name = No_1434-gen_results/8p0m/2024-11-26-14-13-15/
REMARK  10 active torsions:
REMARK  status: ('A' for Active; 'I' for Inactive)
REMARK    1  A    between atoms: C_2  and  C_5
REMARK    2  A    between atoms: C_5  and  N_6
REMARK    3  A    between atoms: C_7  and  C_8
REMARK    4  A    between atoms: C_9  and  O_14
REMARK    5  A    between atoms: O_14  and  C_15
REMARK    6  A    between atoms: C_15  and  C_17
REMARK    7  A    between atoms: C_17  and  C_18
REMARK    8  A    between atoms: C_18  and  C_19
REMARK    9  A    between atoms: C_20  and  C_21
REMARK   10  A    between atoms: C_21  and  C_22
REMARK                            x       y       z     vdW  Elec       q    Type
REMARK                         _______ _______ _______ _____ _____    ______ ____
ROOT
ATOM      1  C   UNL A   1     -31.002 -10.462   9.947  0.00  0.00    +0.051 A 
ATOM      2  C   UNL A   1     -31.650  -9.418   9.775  0.00  0.00    +0.140 A 
ATOM      3  C   UNL A   1     -32.099  -8.799   8.532  0.00  0.00    +0.037 A 
ATOM      4  C   UNL A   1     -31.678  -9.387   7.310  0.00  0.00    +0.003 A 
ATOM      5  C   UNL A   1     -30.982 -10.532   7.397  0.00  0.00    +0.000 A 
ATOM      6  C   UNL A   1     -30.621 -11.091   8.592  0.00  0.00    +0.004 A 
ENDROOT
BRANCH   1   8
ATOM      7  N   UNL A   1     -30.125 -12.496  10.904  0.00  0.00    -0.171 NA
ATOM      8  C   UNL A   1     -30.468 -11.162  11.038  0.00  0.00    +0.092 C 
BRANCH   7   9
ATOM      9  C   UNL A   1     -29.894 -13.192  11.602  0.00  0.00    +0.341 C 
ATOM     10  O   UNL A   1     -29.468 -12.741  12.813  0.00  0.00    -0.264 OA
BRANCH   9  12
ATOM     11  F   UNL A   1     -31.168 -15.063  11.252  0.00  0.00    -0.162 F 
ATOM     12  C   UNL A   1     -30.019 -14.696  11.524  0.00  0.00    +0.471 C 
ATOM     13  F   UNL A   1     -29.392 -15.195  10.848  0.00  0.00    -0.162 F 
ATOM     14  F   UNL A   1     -29.785 -15.097  12.844  0.00  0.00    -0.162 F 
ENDBRANCH   9  12
ENDBRANCH   7   9
ENDBRANCH   1   8
BRANCH   2  15
ATOM     15  O   UNL A   1     -32.092  -8.687  10.853  0.00  0.00    -0.475 OA
BRANCH  15  16
ATOM     16  C   UNL A   1     -32.646  -7.471  10.901  0.00  0.00    +0.206 C 
BRANCH  16  17
ATOM     17  C   UNL A   1     -31.624  -6.463  11.288  0.00  0.00    +0.052 C 
BRANCH  17  18
ATOM     18  C   UNL A   1     -31.292  -5.547  10.246  0.00  0.00    +0.029 C 
BRANCH  18  19
ATOM     19  C   UNL A   1     -30.234  -5.898   9.397  0.00  0.00    -0.030 C 
ATOM     20  C   UNL A   1     -29.151  -6.660   9.860  0.00  0.00    -0.026 C 
BRANCH  20  21
ATOM     21  C   UNL A   1     -28.186  -7.021   8.879  0.00  0.00    +0.052 C 
BRANCH  21  22
ATOM     22  C   UNL A   1     -27.939  -8.297   8.523  0.00  0.00    -0.018 A 
ATOM     23  C   UNL A   1     -27.559  -9.222   9.491  0.00  0.00    -0.004 A 
ATOM     24  C   UNL A   1     -26.728 -10.335   9.113  0.00  0.00    -0.000 A 
ATOM     25  C   UNL A   1     -26.742 -10.622   7.721  0.00  0.00    -0.000 A 
ATOM     26  C   UNL A   1     -27.314  -9.787   6.774  0.00  0.00    -0.000 A 
ATOM     27  C   UNL A   1     -27.817  -8.594   7.158  0.00  0.00    -0.004 A 
ENDBRANCH  21  22
ENDBRANCH  20  21
ENDBRANCH  18  19
ENDBRANCH  17  18
ENDBRANCH  16  17
ENDBRANCH  15  16
ENDBRANCH   2  15
TORSDOF 10
ENDMDL
ENDMDL
