REMARK  Name = No_1434-gen_results/8p0m/2024-11-26-14-13-15/
REMARK  10 active torsions:
REMARK  status: ('A' for Active; 'I' for Inactive)
REMARK    1  A    between atoms: C_2  and  C_5
REMARK    2  A    between atoms: C_5  and  N_6
REMARK    3  A    between atoms: C_7  and  C_8
REMARK    4  A    between atoms: C_9  and  O_14
REMARK    5  A    between atoms: O_14  and  C_15
REMARK    6  A    between atoms: C_15  and  C_17
REMARK    7  A    between atoms: C_17  and  C_18
REMARK    8  A    between atoms: C_18  and  C_19
REMARK    9  A    between atoms: C_20  and  C_21
REMARK   10  A    between atoms: C_21  and  C_22
REMARK                            x       y       z     vdW  Elec       q    Type
REMARK                         _______ _______ _______ _____ _____    ______ ____
ROOT
ATOM      1  C   UNL A   1     -26.353   3.559  28.243  0.00  0.00    +0.051 A 
ATOM      2  C   UNL A   1     -25.207   3.852  27.869  0.00  0.00    +0.140 A 
ATOM      3  C   UNL A   1     -24.556   5.157  27.809  0.00  0.00    +0.037 A 
ATOM      4  C   UNL A   1     -25.336   6.301  28.123  0.00  0.00    +0.003 A 
ATOM      5  C   UNL A   1     -26.589   6.080  28.553  0.00  0.00    +0.000 A 
ATOM      6  C   UNL A   1     -27.137   4.830  28.628  0.00  0.00    +0.004 A 
ENDROOT
BRANCH   1   8
ATOM      7  N   UNL A   1     -27.047   1.586  29.446  0.00  0.00    -0.171 NA
ATOM      8  C   UNL A   1     -27.132   2.396  28.328  0.00  0.00    +0.092 C 
BRANCH   7   9
ATOM      9  C   UNL A   1     -27.390   0.648  29.610  0.00  0.00    +0.341 C 
ATOM     10  O   UNL A   1     -28.328   0.490  30.584  0.00  0.00    -0.264 OA
BRANCH   9  12
ATOM     11  F   UNL A   1     -28.073  -1.254  28.532  0.00  0.00    -0.162 F 
ATOM     12  C   UNL A   1     -27.061  -0.629  28.872  0.00  0.00    +0.471 C 
ATOM     13  F   UNL A   1     -26.472  -0.547  28.009  0.00  0.00    -0.162 F 
ATOM     14  F   UNL A   1     -26.437  -1.405  29.855  0.00  0.00    -0.162 F 
ENDBRANCH   9  12
ENDBRANCH   7   9
ENDBRANCH   1   8
BRANCH   2  15
ATOM     15  O   UNL A   1     -24.331   2.869  27.474  0.00  0.00    -0.475 OA
BRANCH  15  16
ATOM     16  C   UNL A   1     -23.929   2.513  26.249  0.00  0.00    +0.206 C 
BRANCH  16  17
ATOM     17  C   UNL A   1     -24.111   1.050  26.061  0.00  0.00    +0.052 C 
BRANCH  17  18
ATOM     18  C   UNL A   1     -24.950   0.709  24.958  0.00  0.00    +0.029 C 
BRANCH  18  19
ATOM     19  C   UNL A   1     -26.230   0.222  25.253  0.00  0.00    -0.030 C 
ATOM     20  C   UNL A   1     -27.191   0.043  24.247  0.00  0.00    -0.026 C 
BRANCH  20  21
ATOM     21  C   UNL A   1     -28.421  -0.538  24.664  0.00  0.00    +0.052 C 
BRANCH  21  22
ATOM     22  C   UNL A   1     -29.544   0.179  24.863  0.00  0.00    -0.018 A 
ATOM     23  C   UNL A   1     -29.452   1.520  25.222  0.00  0.00    -0.004 A 
ATOM     24  C   UNL A   1     -30.502   2.112  26.010  0.00  0.00    -0.000 A 
ATOM     25  C   UNL A   1     -31.729   1.397  25.970  0.00  0.00    -0.000 A 
ATOM     26  C   UNL A   1     -31.860   0.133  25.416  0.00  0.00    -0.000 A 
ATOM     27  C   UNL A   1     -30.763  -0.509  24.959  0.00  0.00    -0.004 A 
ENDBRANCH  21  22
ENDBRANCH  20  21
ENDBRANCH  18  19
ENDBRANCH  17  18
ENDBRANCH  16  17
ENDBRANCH  15  16
ENDBRANCH   2  15
TORSDOF 10
