REMARK  Name = No_1435-gen_results/8p0m/2024-11-26-14-13-15/
REMARK  0 active torsions:
REMARK  status: ('A' for Active; 'I' for Inactive)
REMARK                            x       y       z     vdW  Elec       q    Type
REMARK                         _______ _______ _______ _____ _____    ______ ____
ROOT
ATOM      1  O   UNL A   1     -28.123  -1.335  28.487  0.00  0.00    -0.272 OA
ATOM      2  C   UNL A   1     -27.064  -0.824  28.869  0.00  0.00    +0.252 C 
ATOM      3  C   UNL A   1     -26.959   0.093  29.758  0.00  0.00    +0.135 C 
ATOM      4  N   UNL A   1     -25.847  -1.549  28.659  0.00  0.00    -0.205 NA
ATOM      5 BR   UNL A   1     -28.375   1.056  30.331  0.00  0.00    -0.072 Br
ATOM      6  C   UNL A   1     -24.555  -1.064  29.012  0.00  0.00    +0.115 C 
ATOM      7  C   UNL A   1     -24.493   0.060  29.730  0.00  0.00    +0.025 C 
ATOM      8  C   UNL A   1     -25.624   0.715  30.191  0.00  0.00    +0.022 C 
ENDROOT
TORSDOF 0
