MODEL 1435
MODEL 1
REMARK VINA RESULT:    -3.947      0.000      0.000
REMARK INTER + INTRA:          -3.947
REMARK INTER:                  -3.947
REMARK INTRA:                   0.000
REMARK UNBOUND:                 0.000
REMARK  Name = No_1435-gen_results/8p0m/2024-11-26-14-13-15/
REMARK  0 active torsions:
REMARK  status: ('A' for Active; 'I' for Inactive)
REMARK                            x       y       z     vdW  Elec       q    Type
REMARK                         _______ _______ _______ _____ _____    ______ ____
ROOT
ATOM      1  O   UNL A   1     -24.712  -1.186  29.894  0.00  0.00    -0.272 OA
ATOM      2  C   UNL A   1     -24.866  -2.398  29.710  0.00  0.00    +0.252 C 
ATOM      3  C   UNL A   1     -25.970  -3.036  29.841  0.00  0.00    +0.135 C 
ATOM      4  N   UNL A   1     -23.908  -3.088  28.899  0.00  0.00    -0.205 NA
ATOM      5 BR   UNL A   1     -27.404  -2.331  30.682  0.00  0.00    -0.072 Br
ATOM      6  C   UNL A   1     -23.940  -4.488  28.637  0.00  0.00    +0.115 C 
ATOM      7  C   UNL A   1     -25.020  -5.165  29.036  0.00  0.00    +0.025 C 
ATOM      8  C   UNL A   1     -26.115  -4.548  29.621  0.00  0.00    +0.022 C 
ENDROOT
TORSDOF 0
ENDMDL
ENDMDL
