REMARK  Name = No_1436-gen_results/8p0m/2024-11-26-14-13-15/
REMARK  4 active torsions:
REMARK  status: ('A' for Active; 'I' for Inactive)
REMARK    1  A    between atoms: C_2  and  C_20
REMARK    2  A    between atoms: C_3  and  C_4
REMARK    3  A    between atoms: C_4  and  C_8
REMARK    4  A    between atoms: C_12  and  C_13
REMARK                            x       y       z     vdW  Elec       q    Type
REMARK                         _______ _______ _______ _____ _____    ______ ____
ROOT
ATOM      1  C   UNL A   1     -25.232   0.579  27.329  0.00  0.00    -0.018 A 
ATOM      2  C   UNL A   1     -23.982   0.870  27.768  0.00  0.00    -0.004 A 
ATOM      3  C   UNL A   1     -23.392   1.721  27.716  0.00  0.00    -0.000 A 
ATOM      4  C   UNL A   1     -23.830   2.853  26.844  0.00  0.00    -0.000 A 
ATOM      5  C   UNL A   1     -25.859   1.423  26.463  0.00  0.00    -0.004 A 
ATOM      6  C   UNL A   1     -25.144   2.632  26.194  0.00  0.00    -0.000 A 
ENDROOT
BRANCH   5   7
ATOM      7  C   UNL A   1     -27.066   1.171  25.884  0.00  0.00    -0.000 A 
ATOM      8  C   UNL A   1     -28.080   2.021  25.887  0.00  0.00    -0.000 A 
ATOM      9  C   UNL A   1     -29.353   1.751  25.299  0.00  0.00    -0.000 A 
ATOM     10  C   UNL A   1     -29.525   0.519  24.707  0.00  0.00    -0.000 A 
ATOM     11  C   UNL A   1     -28.496  -0.389  24.605  0.00  0.00    -0.000 A 
ATOM     12  C   UNL A   1     -27.245  -0.045  25.166  0.00  0.00    -0.000 A 
ENDBRANCH   5   7
BRANCH   1  13
ATOM     13  C   UNL A   1     -25.683  -0.777  27.683  0.00  0.00    +0.053 C 
BRANCH  13  16
ATOM     14  C   UNL A   1     -28.016  -0.814  28.878  0.00  0.00    +0.003 A 
ATOM     15  C   UNL A   1     -28.469  -0.785  29.829  0.00  0.00    +0.080 A 
ATOM     16  C   UNL A   1     -26.546  -0.876  28.850  0.00  0.00    -0.018 A 
ATOM     17  C   UNL A   1     -27.918  -1.003  31.188  0.00  0.00    +0.007 A 
ATOM     18  C   UNL A   1     -26.531  -1.079  31.246  0.00  0.00    -0.000 A 
ATOM     19  C   UNL A   1     -25.780  -1.046  30.090  0.00  0.00    -0.004 A 
BRANCH  15  20
ATOM     20  C   UNL A   1     -30.072  -0.579  29.893  0.00  0.00    +0.388 C 
ATOM     21  O   UNL A   1     -30.668  -0.483  29.085  0.00  0.00    -0.241 OA
ATOM     22  O   UNL A   1     -30.647  -0.846  31.117  0.00  0.00    -0.241 OA
ENDBRANCH  15  20
ENDBRANCH  13  16
ENDBRANCH   1  13
TORSDOF 4
