MODEL 1436
MODEL 1
REMARK VINA RESULT:    -7.320      0.000      0.000
REMARK INTER + INTRA:         -11.016
REMARK INTER:                  -9.032
REMARK INTRA:                  -1.984
REMARK UNBOUND:                -1.984
REMARK  Name = No_1436-gen_results/8p0m/2024-11-26-14-13-15/
REMARK  4 active torsions:
REMARK  status: ('A' for Active; 'I' for Inactive)
REMARK    1  A    between atoms: C_2  and  C_20
REMARK    2  A    between atoms: C_3  and  C_4
REMARK    3  A    between atoms: C_4  and  C_8
REMARK    4  A    between atoms: C_12  and  C_13
REMARK                            x       y       z     vdW  Elec       q    Type
REMARK                         _______ _______ _______ _____ _____    ______ ____
ROOT
ATOM      1  C   UNL A   1     -23.292   0.322  28.730  0.00  0.00    -0.018 A 
ATOM      2  C   UNL A   1     -22.817   1.419  28.089  0.00  0.00    -0.004 A 
ATOM      3  C   UNL A   1     -23.095   1.907  27.218  0.00  0.00    -0.000 A 
ATOM      4  C   UNL A   1     -24.083   1.255  26.306  0.00  0.00    -0.000 A 
ATOM      5  C   UNL A   1     -24.178  -0.499  28.100  0.00  0.00    -0.004 A 
ATOM      6  C   UNL A   1     -24.616  -0.028  26.823  0.00  0.00    -0.000 A 
ENDROOT
BRANCH   5   7
ATOM      7  C   UNL A   1     -24.633  -1.676  28.614  0.00  0.00    -0.000 A 
ATOM      8  C   UNL A   1     -23.953  -2.811  28.579  0.00  0.00    -0.000 A 
ATOM      9  C   UNL A   1     -24.436  -4.050  29.098  0.00  0.00    -0.000 A 
ATOM     10  C   UNL A   1     -25.695  -4.052  29.655  0.00  0.00    -0.000 A 
ATOM     11  C   UNL A   1     -26.433  -2.898  29.789  0.00  0.00    -0.000 A 
ATOM     12  C   UNL A   1     -25.881  -1.693  29.297  0.00  0.00    -0.000 A 
ENDBRANCH   5   7
BRANCH   1  13
ATOM     13  C   UNL A   1     -22.593   0.024  29.991  0.00  0.00    +0.053 C 
BRANCH  13  16
ATOM     14  C   UNL A   1     -24.463   0.949  31.579  0.00  0.00    +0.003 A 
ATOM     15  C   UNL A   1     -24.883   0.824  32.537  0.00  0.00    +0.080 A 
ATOM     16  C   UNL A   1     -23.424  -0.016  31.184  0.00  0.00    -0.018 A 
ATOM     17  C   UNL A   1     -24.779  -0.280  33.521  0.00  0.00    +0.007 A 
ATOM     18  C   UNL A   1     -23.820  -1.239  33.217  0.00  0.00    -0.000 A 
ATOM     19  C   UNL A   1     -23.117  -1.174  32.032  0.00  0.00    -0.004 A 
BRANCH  15  20
ATOM     20  C   UNL A   1     -25.927   1.947  33.053  0.00  0.00    +0.388 C 
ATOM     21  O   UNL A   1     -25.664   2.868  33.370  0.00  0.00    -0.241 OA
ATOM     22  O   UNL A   1     -27.249   1.698  32.753  0.00  0.00    -0.241 OA
ENDBRANCH  15  20
ENDBRANCH  13  16
ENDBRANCH   1  13
TORSDOF 4
ENDMDL
ENDMDL
