REMARK  Name = No_1437-gen_results/8p0m/2024-11-26-14-13-15/
REMARK  3 active torsions:
REMARK  status: ('A' for Active; 'I' for Inactive)
REMARK    1  A    between atoms: C_2  and  C_12
REMARK    2  A    between atoms: C_7  and  O_15
REMARK    3  A    between atoms: O_15  and  C_16
REMARK                            x       y       z     vdW  Elec       q    Type
REMARK                         _______ _______ _______ _____ _____    ______ ____
ROOT
ATOM      1  C   UNL A   1     -28.016  -0.814  28.878  0.00  0.00    +0.008 A 
ATOM      2  C   UNL A   1     -28.469  -0.785  29.829  0.00  0.00    +0.083 A 
ATOM      3  C   UNL A   1     -28.182   0.428  28.113  0.00  0.00    +0.014 A 
ATOM      4  C   UNL A   1     -27.450   0.643  26.850  0.00  0.00    +0.058 A 
ATOM      5  C   UNL A   1     -27.860   1.457  25.908  0.00  0.00    +0.011 A 
ATOM      6  C   UNL A   1     -29.426   0.110  30.418  0.00  0.00    +0.044 A 
ATOM      7  C   UNL A   1     -29.623   1.220  29.735  0.00  0.00    +0.145 A 
ATOM      8  C   UNL A   1     -28.961   1.453  28.551  0.00  0.00    +0.035 A 
ATOM      9  C   UNL A   1     -28.787   2.547  26.317  0.00  0.00    +0.001 A 
ATOM     10  C   UNL A   1     -29.427   2.429  27.564  0.00  0.00    +0.003 A 
ATOM     11 CL   UNL A   1     -26.273  -0.517  26.340  0.00  0.00    -0.082 Cl
ENDROOT
BRANCH   2  12
ATOM     12  C   UNL A   1     -28.228  -2.133  30.809  0.00  0.00    +0.388 C 
ATOM     13  O   UNL A   1     -28.397  -3.080  30.461  0.00  0.00    -0.241 OA
ATOM     14  O   UNL A   1     -27.725  -1.789  32.025  0.00  0.00    -0.241 OA
ENDBRANCH   2  12
BRANCH   7  15
ATOM     15  O   UNL A   1     -30.524   2.139  30.196  0.00  0.00    -0.454 OA
BRANCH  15  16
ATOM     16  C   UNL A   1     -30.063   3.206  30.861  0.00  0.00    +0.145 A 
ATOM     17  C   UNL A   1     -30.738   3.500  32.045  0.00  0.00    +0.037 A 
ATOM     18  C   UNL A   1     -30.226   4.490  32.773  0.00  0.00    +0.003 A 
ATOM     19  C   UNL A   1     -28.945   3.948  30.532  0.00  0.00    +0.037 A 
ATOM     20  C   UNL A   1     -28.449   4.968  31.257  0.00  0.00    +0.003 A 
ATOM     21  C   UNL A   1     -29.141   5.294  32.450  0.00  0.00    +0.000 A 
ENDBRANCH  15  16
ENDBRANCH   7  15
TORSDOF 3
