MODEL 1437
MODEL 1
REMARK VINA RESULT:    -7.861      0.000      0.000
REMARK INTER + INTRA:          -9.928
REMARK INTER:                  -9.239
REMARK INTRA:                  -0.689
REMARK UNBOUND:                -0.689
REMARK  Name = No_1437-gen_results/8p0m/2024-11-26-14-13-15/
REMARK  3 active torsions:
REMARK  status: ('A' for Active; 'I' for Inactive)
REMARK    1  A    between atoms: C_2  and  C_12
REMARK    2  A    between atoms: C_7  and  O_15
REMARK    3  A    between atoms: O_15  and  C_16
REMARK                            x       y       z     vdW  Elec       q    Type
REMARK                         _______ _______ _______ _____ _____    ______ ____
ROOT
ATOM      1  C   UNL A   1     -25.183   1.189  26.210  0.00  0.00    +0.008 A 
ATOM      2  C   UNL A   1     -25.973   0.570  26.532  0.00  0.00    +0.083 A 
ATOM      3  C   UNL A   1     -23.911   0.915  26.890  0.00  0.00    +0.014 A 
ATOM      4  C   UNL A   1     -22.656   1.541  26.431  0.00  0.00    +0.058 A 
ATOM      5  C   UNL A   1     -21.617   1.727  27.207  0.00  0.00    +0.011 A 
ATOM      6  C   UNL A   1     -26.123  -0.294  27.670  0.00  0.00    +0.044 A 
ATOM      7  C   UNL A   1     -25.003  -0.530  28.323  0.00  0.00    +0.145 A 
ATOM      8  C   UNL A   1     -23.815   0.039  27.926  0.00  0.00    +0.035 A 
ATOM      9  C   UNL A   1     -21.507   0.853  28.407  0.00  0.00    +0.001 A 
ATOM     10  C   UNL A   1     -22.659   0.156  28.817  0.00  0.00    +0.003 A 
ATOM     11 CL   UNL A   1     -22.658   2.492  24.986  0.00  0.00    -0.082 Cl
ENDROOT
BRANCH   2  12
ATOM     12  C   UNL A   1     -27.437   0.750  25.719  0.00  0.00    +0.388 C 
ATOM     13  O   UNL A   1     -27.487   1.218  24.811  0.00  0.00    -0.241 OA
ATOM     14  O   UNL A   1     -28.458   0.140  26.379  0.00  0.00    -0.241 OA
ENDBRANCH   2  12
BRANCH   7  15
ATOM     15  O   UNL A   1     -25.031  -1.329  29.432  0.00  0.00    -0.454 OA
BRANCH  15  16
ATOM     16  C   UNL A   1     -25.116  -2.655  29.261  0.00  0.00    +0.145 A 
ATOM     17  C   UNL A   1     -24.015  -3.240  28.636  0.00  0.00    +0.037 A 
ATOM     18  C   UNL A   1     -24.034  -4.569  28.555  0.00  0.00    +0.003 A 
ATOM     19  C   UNL A   1     -26.124  -3.473  29.733  0.00  0.00    +0.037 A 
ATOM     20  C   UNL A   1     -26.152  -4.814  29.622  0.00  0.00    +0.003 A 
ATOM     21  C   UNL A   1     -25.052  -5.420  28.966  0.00  0.00    +0.000 A 
ENDBRANCH  15  16
ENDBRANCH   7  15
TORSDOF 3
ENDMDL
ENDMDL
