REMARK  Name = No_1438-gen_results/8p0m/2024-11-26-14-13-15/
REMARK  1 active torsions:
REMARK  status: ('A' for Active; 'I' for Inactive)
REMARK    1  A    between atoms: N_18  and  C_20
REMARK                            x       y       z     vdW  Elec       q    Type
REMARK                         _______ _______ _______ _____ _____    ______ ____
ROOT
ATOM      1  C   UNL A   1     -28.016  -0.814  28.878  0.00  0.00    -0.019 A 
ATOM      2  C   UNL A   1     -28.469  -0.785  29.829  0.00  0.00    -0.004 A 
ATOM      3  C   UNL A   1     -28.196   0.348  28.055  0.00  0.00    +0.065 C 
ATOM      4  C   UNL A   1     -27.442   0.510  26.795  0.00  0.00    +0.034 C 
ATOM      5  C   UNL A   1     -26.439   0.833  26.614  0.00  0.00    +0.044 C 
ATOM      6  C   UNL A   1     -25.214   0.662  26.702  0.00  0.00    +0.032 C 
ATOM      7  C   UNL A   1     -24.398   0.043  27.700  0.00  0.00    -0.024 A 
ATOM      8  C   UNL A   1     -24.910  -0.842  28.550  0.00  0.00    -0.005 A 
ATOM      9  C   UNL A   1     -28.212  -1.927  30.919  0.00  0.00    -0.000 A 
ATOM     10  C   UNL A   1     -24.085  -1.517  29.496  0.00  0.00    -0.003 A 
ATOM     11  C   UNL A   1     -22.874  -0.958  29.714  0.00  0.00    -0.000 A 
ATOM     12  C   UNL A   1     -22.286   0.076  28.934  0.00  0.00    -0.000 A 
ATOM     13  C   UNL A   1     -23.129   0.562  27.917  0.00  0.00    -0.004 A 
ATOM     14  C   UNL A   1     -27.531  -2.997  30.374  0.00  0.00    -0.000 A 
ATOM     15  C   UNL A   1     -26.812  -2.920  29.249  0.00  0.00    -0.003 A 
ATOM     16  C   UNL A   1     -26.932  -1.758  28.502  0.00  0.00    -0.004 A 
ATOM     17  C   UNL A   1     -26.060  -1.304  28.299  0.00  0.00    +0.136 C 
ATOM     18  N   UNL A   1     -28.356  -0.037  25.892  0.00  0.00    -0.188 NA
ATOM     19  N   UNL A   1     -26.083  -1.529  26.956  0.00  0.00    -0.123 NA
ENDROOT
BRANCH  18  20
ATOM     20  C   UNL A   1     -29.338   0.641  25.306  0.00  0.00    +0.245 C 
ATOM     21  C   UNL A   1     -29.403   1.952  25.522  0.00  0.00    +0.097 C 
ATOM     22  O   UNL A   1     -30.035   0.004  24.476  0.00  0.00    -0.273 OA
ENDBRANCH  18  20
TORSDOF 1
