MODEL 1439
MODEL 1
REMARK VINA RESULT:    -6.339      0.000      0.000
REMARK INTER + INTRA:          -8.168
REMARK INTER:                  -7.450
REMARK INTRA:                  -0.718
REMARK UNBOUND:                -0.718
REMARK  Name = No_1439-gen_results/8p0m/2024-11-26-14-13-15/
REMARK  3 active torsions:
REMARK  status: ('A' for Active; 'I' for Inactive)
REMARK    1  A    between atoms: C_6  and  O_11
REMARK    2  A    between atoms: O_11  and  C_12
REMARK    3  A    between atoms: C_12  and  C_13
REMARK                            x       y       z     vdW  Elec       q    Type
REMARK                         _______ _______ _______ _____ _____    ______ ____
ROOT
ATOM      1  C   UNL A   1     -24.308   1.939  25.566  0.00  0.00    +0.044 A 
ATOM      2  C   UNL A   1     -25.035   1.697  26.290  0.00  0.00    +0.073 A 
ATOM      3  C   UNL A   1     -22.954   2.031  26.033  0.00  0.00    +0.171 A 
ATOM      4  C   UNL A   1     -22.624   1.985  27.327  0.00  0.00    +0.202 A 
ATOM      5  C   UNL A   1     -24.909   1.621  27.739  0.00  0.00    +0.104 A 
ATOM      6  C   UNL A   1     -23.666   1.727  28.189  0.00  0.00    +0.180 A 
ATOM      7  F   UNL A   1     -21.998   2.273  25.069  0.00  0.00    -0.202 F 
ATOM      8 CL   UNL A   1     -26.294   1.301  28.750  0.00  0.00    -0.078 Cl
ATOM      9  F   UNL A   1     -21.390   2.105  27.693  0.00  0.00    -0.199 F 
ATOM     10 CL   UNL A   1     -26.853   1.526  25.743  0.00  0.00    -0.081 Cl
ENDROOT
BRANCH   6  11
ATOM     11  O   UNL A   1     -23.390   1.671  29.539  0.00  0.00    -0.462 OA
BRANCH  11  12
ATOM     12  C   UNL A   1     -22.937   0.592  30.083  0.00  0.00    +0.290 C 
BRANCH  12  13
ATOM     13  C   UNL A   1     -23.773  -0.194  30.730  0.00  0.00    +0.270 C 
ATOM     14  O   UNL A   1     -24.414   0.246  31.690  0.00  0.00    -0.271 OA
ATOM     15  N   UNL A   1     -24.090  -1.420  30.265  0.00  0.00    -0.277 N 
ATOM     16  C   UNL A   1     -23.410  -2.062  29.156  0.00  0.00    +0.093 C 
ATOM     17  C   UNL A   1     -24.080  -3.192  28.655  0.00  0.00    +0.022 C 
ATOM     18  C   UNL A   1     -25.214  -3.562  29.163  0.00  0.00    +0.004 C 
ATOM     19  C   UNL A   1     -25.897  -2.909  30.197  0.00  0.00    +0.022 C 
ATOM     20  C   UNL A   1     -25.419  -1.533  30.585  0.00  0.00    +0.093 C 
ENDBRANCH  12  13
ENDBRANCH  11  12
ENDBRANCH   6  11
TORSDOF 3
ENDMDL
ENDMDL
