REMARK  Name = No_1439-gen_results/8p0m/2024-11-26-14-13-15/
REMARK  3 active torsions:
REMARK  status: ('A' for Active; 'I' for Inactive)
REMARK    1  A    between atoms: C_6  and  O_11
REMARK    2  A    between atoms: O_11  and  C_12
REMARK    3  A    between atoms: C_12  and  C_13
REMARK                            x       y       z     vdW  Elec       q    Type
REMARK                         _______ _______ _______ _____ _____    ______ ____
ROOT
ATOM      1  C   UNL A   1     -28.016  -0.814  28.878  0.00  0.00    +0.044 A 
ATOM      2  C   UNL A   1     -28.469  -0.785  29.829  0.00  0.00    +0.073 A 
ATOM      3  C   UNL A   1     -28.196   0.348  28.055  0.00  0.00    +0.171 A 
ATOM      4  C   UNL A   1     -29.019   1.350  28.378  0.00  0.00    +0.202 A 
ATOM      5  C   UNL A   1     -29.411   0.180  30.378  0.00  0.00    +0.104 A 
ATOM      6  C   UNL A   1     -29.606   1.250  29.619  0.00  0.00    +0.180 A 
ATOM      7  F   UNL A   1     -27.540   0.337  26.842  0.00  0.00    -0.202 F 
ATOM      8 CL   UNL A   1     -30.113  -0.042  31.959  0.00  0.00    -0.078 Cl
ATOM      9  F   UNL A   1     -29.166   2.359  27.583  0.00  0.00    -0.199 F 
ATOM     10 CL   UNL A   1     -28.250  -2.279  30.994  0.00  0.00    -0.081 Cl
ENDROOT
BRANCH   6  11
ATOM     11  O   UNL A   1     -30.470   2.252  30.009  0.00  0.00    -0.462 OA
BRANCH  11  12
ATOM     12  C   UNL A   1     -31.748   2.105  29.913  0.00  0.00    +0.290 C 
BRANCH  12  13
ATOM     13  C   UNL A   1     -32.327   2.317  28.749  0.00  0.00    +0.270 C 
ATOM     14  O   UNL A   1     -32.124   3.374  28.144  0.00  0.00    -0.271 OA
ATOM     15  N   UNL A   1     -32.997   1.337  28.107  0.00  0.00    -0.277 N 
ATOM     16  C   UNL A   1     -33.316   0.055  28.704  0.00  0.00    +0.093 C 
ATOM     17  C   UNL A   1     -33.751  -0.911  27.779  0.00  0.00    +0.022 C 
ATOM     18  C   UNL A   1     -33.815  -0.628  26.515  0.00  0.00    +0.004 C 
ATOM     19  C   UNL A   1     -33.453   0.594  25.933  0.00  0.00    +0.022 C 
ATOM     20  C   UNL A   1     -32.694   1.574  26.790  0.00  0.00    +0.093 C 
ENDBRANCH  12  13
ENDBRANCH  11  12
ENDBRANCH   6  11
TORSDOF 3
