MODEL 143
MODEL 1
REMARK VINA RESULT:    -6.976      0.000      0.000
REMARK INTER + INTRA:         -12.526
REMARK INTER:                  -9.423
REMARK INTRA:                  -3.103
REMARK UNBOUND:                -3.103
REMARK  Name = No_143-gen_results/8p0m/2024-11-26-14-13-15/
REMARK  6 active torsions:
REMARK  status: ('A' for Active; 'I' for Inactive)
REMARK    1  A    between atoms: C_2  and  C_7
REMARK    2  A    between atoms: C_7  and  C_8
REMARK    3  A    between atoms: C_7  and  C_14
REMARK    4  A    between atoms: N_15  and  C_22
REMARK    5  A    between atoms: C_16  and  C_19
REMARK    6  A    between atoms: C_24  and  C_25
REMARK                            x       y       z     vdW  Elec       q    Type
REMARK                         _______ _______ _______ _____ _____    ______ ____
ROOT
ATOM      1  C   UNL A   1      -9.749   1.873  38.709  0.00  0.00    +0.303 C 
ATOM      2  N   UNL A   1      -8.960   2.192  38.083  0.00  0.00    -0.185 N 
ATOM      3  C   UNL A   1      -7.783   2.755  38.550  0.00  0.00    +0.317 C 
ATOM      4  N   UNL A   1      -9.529   1.900  40.070  0.00  0.00    -0.064 NA
ATOM      5  C   UNL A   1      -8.308   2.391  40.255  0.00  0.00    +0.321 C 
ENDROOT
BRANCH   2   6
ATOM      6  C   UNL A   1      -8.925   2.289  36.551  0.00  0.00    +0.179 C 
ATOM      7  C   UNL A   1      -7.942   1.607  35.879  0.00  0.00    -0.002 C 
ATOM      8  C   UNL A   1      -7.775   0.294  36.001  0.00  0.00    -0.005 C 
ATOM      9  C   UNL A   1      -7.994   1.934  34.355  0.00  0.00    +0.026 C 
ATOM     10  C   UNL A   1      -8.958   2.871  34.127  0.00  0.00    +0.008 C 
ATOM     11  C   UNL A   1      -9.198   3.539  35.778  0.00  0.00    +0.051 C 
ATOM     12  C   UNL A   1      -8.671   4.052  33.260  0.00  0.00    +0.001 C 
ATOM     13  C   UNL A   1     -10.338   2.273  33.794  0.00  0.00    +0.001 C 
BRANCH   8  14
ATOM     14  C   UNL A   1      -6.744  -0.419  35.530  0.00  0.00    -0.001 A 
ATOM     15  C   UNL A   1      -5.370  -0.013  35.554  0.00  0.00    -0.000 A 
ATOM     16  C   UNL A   1      -4.326  -0.705  34.931  0.00  0.00    -0.000 A 
ATOM     17  C   UNL A   1      -4.697  -1.865  34.210  0.00  0.00    -0.000 A 
ATOM     18  C   UNL A   1      -5.995  -2.262  34.115  0.00  0.00    -0.000 A 
ATOM     19  C   UNL A   1      -6.987  -1.535  34.680  0.00  0.00    -0.000 A 
ENDBRANCH   8  14
ENDBRANCH   2   6
BRANCH   3  20
ATOM     20  C   UNL A   1      -6.575   3.229  38.302  0.00  0.00    +0.411 C 
ATOM     21  O   UNL A   1      -6.474   4.268  37.896  0.00  0.00    -0.241 OA
ATOM     22  O   UNL A   1      -5.606   2.241  38.169  0.00  0.00    -0.241 OA
ENDBRANCH   3  20
BRANCH   1  23
ATOM     23  C   UNL A   1     -11.016   1.224  38.185  0.00  0.00    +0.150 C 
BRANCH  23  25
ATOM     24  C   UNL A   1     -12.574   2.003  36.711  0.00  0.00    -0.003 A 
ATOM     25  C   UNL A   1     -12.030   2.194  37.774  0.00  0.00    -0.007 A 
ATOM     26  C   UNL A   1     -12.325   3.318  38.539  0.00  0.00    -0.003 A 
ATOM     27  C   UNL A   1     -13.253   4.313  38.068  0.00  0.00    -0.000 A 
ATOM     28  C   UNL A   1     -13.817   4.024  36.818  0.00  0.00    -0.000 A 
ATOM     29  C   UNL A   1     -13.492   2.956  36.127  0.00  0.00    -0.000 A 
ENDBRANCH  23  25
BRANCH  23  30
ATOM     30  C   UNL A   1     -11.245  -0.002  38.359  0.00  0.00    -0.007 A 
ATOM     31  C   UNL A   1     -11.976  -0.350  39.589  0.00  0.00    -0.003 A 
ATOM     32  C   UNL A   1     -12.256  -1.787  39.717  0.00  0.00    -0.000 A 
ATOM     33  C   UNL A   1     -11.906  -2.660  38.707  0.00  0.00    -0.000 A 
ATOM     34  C   UNL A   1     -11.243  -2.320  37.550  0.00  0.00    -0.000 A 
ATOM     35  C   UNL A   1     -10.918  -0.997  37.352  0.00  0.00    -0.003 A 
ENDBRANCH  23  30
ENDBRANCH   1  23
TORSDOF 6
ENDMDL
ENDMDL
