REMARK  Name = No_144-gen_results/8p0m/2024-11-26-14-13-15/
REMARK  2 active torsions:
REMARK  status: ('A' for Active; 'I' for Inactive)
REMARK    1  A    between atoms: C_2  and  C_7
REMARK    2  A    between atoms: N_9  and  C_10
REMARK                            x       y       z     vdW  Elec       q    Type
REMARK                         _______ _______ _______ _____ _____    ______ ____
ROOT
ATOM      1  C   UNL A   1     -30.061  -0.737  29.902  0.00  0.00    +0.269 C 
ATOM      2  O   UNL A   1     -30.725  -1.554  30.270  0.00  0.00    -0.268 OA
ATOM      3  N   UNL A   1     -30.553   0.235  28.947  0.00  0.00    -0.175 NA
ENDROOT
BRANCH   1   5
ATOM      4  C   UNL A   1     -28.016  -0.814  28.878  0.00  0.00    +0.005 A 
ATOM      5  C   UNL A   1     -28.469  -0.785  29.829  0.00  0.00    +0.055 A 
ATOM      6  C   UNL A   1     -26.546  -0.876  28.850  0.00  0.00    +0.000 A 
ATOM      7  C   UNL A   1     -25.804  -1.032  30.057  0.00  0.00    +0.000 A 
ATOM      8  C   UNL A   1     -27.944  -0.987  31.207  0.00  0.00    +0.005 A 
ATOM      9  C   UNL A   1     -26.582  -1.039  31.223  0.00  0.00    +0.000 A 
ENDBRANCH   1   5
BRANCH   3  10
ATOM     10  C   UNL A   1     -29.841   1.271  28.392  0.00  0.00    +0.074 A 
ATOM     11  C   UNL A   1     -30.335   2.071  27.563  0.00  0.00    +0.017 A 
ATOM     12  C   UNL A   1     -29.594   3.162  26.918  0.00  0.00    +0.001 A 
ATOM     13  C   UNL A   1     -28.591   3.228  27.043  0.00  0.00    +0.000 A 
ATOM     14  C   UNL A   1     -27.728   2.394  27.864  0.00  0.00    +0.001 A 
ATOM     15  C   UNL A   1     -28.437   1.350  28.628  0.00  0.00    +0.017 A 
ENDBRANCH   3  10
TORSDOF 2
