MODEL 1440
MODEL 1
REMARK VINA RESULT:    -5.269      0.000      0.000
REMARK INTER + INTRA:          -5.728
REMARK INTER:                  -5.577
REMARK INTRA:                  -0.151
REMARK UNBOUND:                -0.151
REMARK  Name = No_1440-gen_results/8p0m/2024-11-26-14-13-15/
REMARK  1 active torsions:
REMARK  status: ('A' for Active; 'I' for Inactive)
REMARK    1  A    between atoms: C_4  and  C_6
REMARK                            x       y       z     vdW  Elec       q    Type
REMARK                         _______ _______ _______ _____ _____    ______ ____
ROOT
ATOM      1  C   UNL A   1     -26.617  -3.902  29.970  0.00  0.00    -0.000 A 
ATOM      2  C   UNL A   1     -26.171  -4.815  29.689  0.00  0.00    -0.000 A 
ATOM      3  C   UNL A   1     -25.798  -2.691  29.807  0.00  0.00    +0.004 A 
ATOM      4  C   UNL A   1     -24.526  -2.757  29.167  0.00  0.00    +0.071 A 
ATOM      5  C   UNL A   1     -24.915  -5.146  28.962  0.00  0.00    -0.000 A 
ATOM      6  C   UNL A   1     -24.120  -4.028  28.764  0.00  0.00    +0.004 A 
ENDROOT
BRANCH   4   7
ATOM      7  C   UNL A   1     -23.697  -1.637  28.982  0.00  0.00    +0.419 C 
ATOM      8  F   UNL A   1     -22.585  -1.879  28.951  0.00  0.00    -0.166 F 
ATOM      9  F   UNL A   1     -23.894  -0.720  30.025  0.00  0.00    -0.166 F 
ATOM     10  F   UNL A   1     -24.058  -0.872  27.888  0.00  0.00    -0.166 F 
ENDBRANCH   4   7
TORSDOF 1
ENDMDL
ENDMDL
