REMARK  Name = No_1440-gen_results/8p0m/2024-11-26-14-13-15/
REMARK  1 active torsions:
REMARK  status: ('A' for Active; 'I' for Inactive)
REMARK    1  A    between atoms: C_4  and  C_6
REMARK                            x       y       z     vdW  Elec       q    Type
REMARK                         _______ _______ _______ _____ _____    ______ ____
ROOT
ATOM      1  C   UNL A   1     -28.016  -0.814  28.878  0.00  0.00    -0.000 A 
ATOM      2  C   UNL A   1     -28.469  -0.785  29.829  0.00  0.00    -0.000 A 
ATOM      3  C   UNL A   1     -26.546  -0.876  28.850  0.00  0.00    +0.004 A 
ATOM      4  C   UNL A   1     -25.804  -1.032  30.057  0.00  0.00    +0.071 A 
ATOM      5  C   UNL A   1     -27.944  -0.987  31.207  0.00  0.00    -0.000 A 
ATOM      6  C   UNL A   1     -26.561  -1.075  31.227  0.00  0.00    +0.004 A 
ENDROOT
BRANCH   4   7
ATOM      7  C   UNL A   1     -24.401  -1.097  30.096  0.00  0.00    +0.419 C 
ATOM      8  F   UNL A   1     -23.990  -1.914  30.774  0.00  0.00    -0.166 F 
ATOM      9  F   UNL A   1     -23.879   0.122  30.551  0.00  0.00    -0.166 F 
ATOM     10  F   UNL A   1     -23.828  -1.176  28.840  0.00  0.00    -0.166 F 
ENDBRANCH   4   7
TORSDOF 1
