MODEL 1441
MODEL 1
REMARK VINA RESULT:    -4.187      0.000      0.000
REMARK INTER + INTRA:          -4.187
REMARK INTER:                  -4.187
REMARK INTRA:                   0.000
REMARK UNBOUND:                 0.000
REMARK  Name = No_1441-gen_results/8p0m/2024-11-26-14-13-15/
REMARK  0 active torsions:
REMARK  status: ('A' for Active; 'I' for Inactive)
REMARK                            x       y       z     vdW  Elec       q    Type
REMARK                         _______ _______ _______ _____ _____    ______ ____
ROOT
ATOM      1  C   UNL A   1     -25.312  -5.319  29.253  0.00  0.00    +0.000 A 
ATOM      2  C   UNL A   1     -26.180  -4.589  29.675  0.00  0.00    +0.000 A 
ATOM      3  C   UNL A   1     -26.041  -3.219  29.783  0.00  0.00    +0.000 A 
ATOM      4  C   UNL A   1     -24.824  -2.635  29.335  0.00  0.00    +0.000 A 
ATOM      5  C   UNL A   1     -23.956  -3.468  28.716  0.00  0.00    +0.000 A 
ATOM      6  C   UNL A   1     -24.190  -4.763  28.621  0.00  0.00    +0.000 A 
ENDROOT
TORSDOF 0
ENDMDL
ENDMDL
