REMARK  Name = No_1443-gen_results/8p0m/2024-11-26-14-13-15/
REMARK  2 active torsions:
REMARK  status: ('A' for Active; 'I' for Inactive)
REMARK    1  A    between atoms: C_7  and  C_17
REMARK    2  A    between atoms: C_19  and  C_20
REMARK                            x       y       z     vdW  Elec       q    Type
REMARK                         _______ _______ _______ _____ _____    ______ ____
ROOT
ATOM      1  C   UNL A   1     -28.016  -0.814  28.878  0.00  0.00    +0.068 A 
ATOM      2  C   UNL A   1     -28.469  -0.785  29.829  0.00  0.00    +0.016 A 
ATOM      3  C   UNL A   1     -28.196   0.348  28.055  0.00  0.00    +0.013 A 
ATOM      4  C   UNL A   1     -29.019   1.350  28.378  0.00  0.00    -0.001 A 
ATOM      5  C   UNL A   1     -29.411   0.180  30.378  0.00  0.00    +0.001 A 
ATOM      6  C   UNL A   1     -29.606   1.250  29.619  0.00  0.00    -0.000 A 
ATOM      7  C   UNL A   1     -27.543   0.522  26.683  0.00  0.00    +0.096 C 
ATOM      8  N   UNL A   1     -26.225   0.395  26.695  0.00  0.00    -0.303 N 
ATOM      9  C   UNL A   1     -25.495  -0.027  27.702  0.00  0.00    +0.064 A 
ATOM     10  C   UNL A   1     -24.140   0.556  27.859  0.00  0.00    +0.016 A 
ATOM     11  C   UNL A   1     -23.260   0.286  28.920  0.00  0.00    +0.001 A 
ATOM     12  C   UNL A   1     -23.609  -0.926  29.644  0.00  0.00    +0.001 A 
ATOM     13  C   UNL A   1     -24.800  -1.527  29.486  0.00  0.00    +0.018 A 
ATOM     14  C   UNL A   1     -25.678  -1.118  28.552  0.00  0.00    +0.084 A 
ATOM     15  N   UNL A   1     -26.682  -1.345  28.848  0.00  0.00    -0.211 NA
ATOM     16  C   UNL A   1     -25.583   1.238  25.742  0.00  0.00    +0.091 C 
ATOM     17  C   UNL A   1     -27.937   1.945  26.201  0.00  0.00    +0.025 C 
ATOM     18  C   UNL A   1     -27.057   2.413  25.248  0.00  0.00    +0.004 C 
ATOM     19  C   UNL A   1     -25.702   2.155  25.322  0.00  0.00    +0.021 C 
ATOM     20  C   UNL A   1     -29.177   2.439  26.669  0.00  0.00    +0.002 C 
ENDROOT
BRANCH   7  21
ATOM     21  C   UNL A   1     -28.125  -0.433  25.723  0.00  0.00    -0.009 C 
ATOM     22  C   UNL A   1     -29.357  -0.106  25.053  0.00  0.00    -0.029 C 
BRANCH  22  23
ATOM     23  C   UNL A   1     -29.968  -1.134  24.379  0.00  0.00    +0.026 C 
ATOM     24  C   UNL A   1     -29.447  -2.448  24.512  0.00  0.00    +0.005 C 
ENDBRANCH  22  23
ENDBRANCH   7  21
TORSDOF 2
