MODEL 1443
MODEL 1
REMARK VINA RESULT:    -8.095      0.000      0.000
REMARK INTER + INTRA:          -9.372
REMARK INTER:                  -9.042
REMARK INTRA:                  -0.330
REMARK UNBOUND:                -0.330
REMARK  Name = No_1443-gen_results/8p0m/2024-11-26-14-13-15/
REMARK  2 active torsions:
REMARK  status: ('A' for Active; 'I' for Inactive)
REMARK    1  A    between atoms: C_7  and  C_17
REMARK    2  A    between atoms: C_19  and  C_20
REMARK                            x       y       z     vdW  Elec       q    Type
REMARK                         _______ _______ _______ _____ _____    ______ ____
ROOT
ATOM      1  C   UNL A   1     -24.896   0.008  27.017  0.00  0.00    +0.068 A 
ATOM      2  C   UNL A   1     -24.852   0.740  26.261  0.00  0.00    +0.016 A 
ATOM      3  C   UNL A   1     -23.845   0.042  27.994  0.00  0.00    +0.013 A 
ATOM      4  C   UNL A   1     -22.774   0.832  27.885  0.00  0.00    -0.001 A 
ATOM      5  C   UNL A   1     -23.785   1.678  25.940  0.00  0.00    +0.001 A 
ATOM      6  C   UNL A   1     -22.795   1.705  26.821  0.00  0.00    -0.000 A 
ATOM      7  C   UNL A   1     -23.790  -0.885  29.210  0.00  0.00    +0.096 C 
ATOM      8  N   UNL A   1     -24.874  -0.840  29.970  0.00  0.00    -0.303 N 
ATOM      9  C   UNL A   1     -26.002  -0.234  29.678  0.00  0.00    +0.064 A 
ATOM     10  C   UNL A   1     -26.773   0.358  30.798  0.00  0.00    +0.016 A 
ATOM     11  C   UNL A   1     -27.951   1.111  30.662  0.00  0.00    +0.001 A 
ATOM     12  C   UNL A   1     -28.591   0.923  29.370  0.00  0.00    +0.001 A 
ATOM     13  C   UNL A   1     -27.955   0.333  28.344  0.00  0.00    +0.018 A 
ATOM     14  C   UNL A   1     -26.745  -0.235  28.497  0.00  0.00    +0.084 A 
ATOM     15  N   UNL A   1     -26.199  -0.223  27.575  0.00  0.00    -0.211 NA
ATOM     16  C   UNL A   1     -24.584  -1.031  31.352  0.00  0.00    +0.091 C 
ATOM     17  C   UNL A   1     -22.546  -0.442  30.028  0.00  0.00    +0.025 C 
ATOM     18  C   UNL A   1     -22.645  -0.839  31.344  0.00  0.00    +0.004 C 
ATOM     19  C   UNL A   1     -23.849  -0.821  32.021  0.00  0.00    +0.021 C 
ATOM     20  C   UNL A   1     -21.482   0.122  29.285  0.00  0.00    +0.002 C 
ENDROOT
BRANCH   7  21
ATOM     21  C   UNL A   1     -23.546  -2.272  28.775  0.00  0.00    -0.009 C 
ATOM     22  C   UNL A   1     -24.635  -3.215  28.762  0.00  0.00    -0.029 C 
BRANCH  22  23
ATOM     23  C   UNL A   1     -24.289  -4.533  28.597  0.00  0.00    +0.026 C 
ATOM     24  C   UNL A   1     -25.065  -5.532  29.241  0.00  0.00    +0.005 C 
ENDBRANCH  22  23
ENDBRANCH   7  21
TORSDOF 2
ENDMDL
ENDMDL
