MODEL 1444
MODEL 1
REMARK VINA RESULT:    -5.400      0.000      0.000
REMARK INTER + INTRA:          -6.477
REMARK INTER:                  -6.347
REMARK INTRA:                  -0.130
REMARK UNBOUND:                -0.130
REMARK  Name = No_1444-gen_results/8p0m/2024-11-26-14-13-15/
REMARK  3 active torsions:
REMARK  status: ('A' for Active; 'I' for Inactive)
REMARK    1  A    between atoms: C_2  and  O_7
REMARK    2  A    between atoms: O_7  and  C_8
REMARK    3  A    between atoms: C_8  and  C_9
REMARK                            x       y       z     vdW  Elec       q    Type
REMARK                         _______ _______ _______ _____ _____    ______ ____
ROOT
ATOM      1  C   UNL A   1     -24.142  -4.166  28.672  0.00  0.00    +0.037 A 
ATOM      2  C   UNL A   1     -24.082  -3.248  29.185  0.00  0.00    +0.139 A 
ATOM      3  C   UNL A   1     -25.091  -5.183  29.266  0.00  0.00    +0.003 A 
ATOM      4  C   UNL A   1     -26.387  -4.778  29.545  0.00  0.00    +0.000 A 
ATOM      5  C   UNL A   1     -25.314  -2.470  29.674  0.00  0.00    +0.037 A 
ATOM      6  C   UNL A   1     -26.400  -3.332  30.002  0.00  0.00    +0.003 A 
ENDROOT
BRANCH   2   7
ATOM      7  O   UNL A   1     -23.076  -2.268  28.877  0.00  0.00    -0.466 OA
BRANCH   7   8
ATOM      8  C   UNL A   1     -22.876  -1.262  29.171  0.00  0.00    +0.293 C 
BRANCH   8   9
ATOM      9  C   UNL A   1     -21.735  -0.482  28.775  0.00  0.00    +0.305 C 
ATOM     10  O   UNL A   1     -20.650  -1.036  28.817  0.00  0.00    -0.268 OA
ATOM     11  N   UNL A   1     -21.803   0.782  28.225  0.00  0.00    -0.085 NA
ENDBRANCH   8   9
ENDBRANCH   7   8
ENDBRANCH   2   7
TORSDOF 3
ENDMDL
ENDMDL
