REMARK  Name = No_1444-gen_results/8p0m/2024-11-26-14-13-15/
REMARK  3 active torsions:
REMARK  status: ('A' for Active; 'I' for Inactive)
REMARK    1  A    between atoms: C_2  and  O_7
REMARK    2  A    between atoms: O_7  and  C_8
REMARK    3  A    between atoms: C_8  and  C_9
REMARK                            x       y       z     vdW  Elec       q    Type
REMARK                         _______ _______ _______ _____ _____    ______ ____
ROOT
ATOM      1  C   UNL A   1     -28.016  -0.814  28.878  0.00  0.00    +0.037 A 
ATOM      2  C   UNL A   1     -28.469  -0.785  29.829  0.00  0.00    +0.139 A 
ATOM      3  C   UNL A   1     -26.504  -0.778  28.877  0.00  0.00    +0.003 A 
ATOM      4  C   UNL A   1     -25.831  -1.681  29.685  0.00  0.00    +0.000 A 
ATOM      5  C   UNL A   1     -28.006  -1.647  31.014  0.00  0.00    +0.037 A 
ATOM      6  C   UNL A   1     -26.609  -1.924  30.964  0.00  0.00    +0.003 A 
ENDROOT
BRANCH   2   7
ATOM      7  O   UNL A   1     -29.885  -0.594  29.991  0.00  0.00    -0.466 OA
BRANCH   7   8
ATOM      8  C   UNL A   1     -30.611  -0.862  30.726  0.00  0.00    +0.293 C 
BRANCH   8   9
ATOM      9  C   UNL A   1     -31.988  -1.184  30.467  0.00  0.00    +0.305 C 
ATOM     10  O   UNL A   1     -32.514  -0.625  29.520  0.00  0.00    -0.268 OA
ATOM     11  N   UNL A   1     -32.698  -2.171  31.120  0.00  0.00    -0.085 NA
ENDBRANCH   8   9
ENDBRANCH   7   8
ENDBRANCH   2   7
TORSDOF 3
