REMARK  Name = No_1445-gen_results/8p0m/2024-11-26-14-13-15/
REMARK  1 active torsions:
REMARK  status: ('A' for Active; 'I' for Inactive)
REMARK    1  A    between atoms: C_5  and  C_6
REMARK                            x       y       z     vdW  Elec       q    Type
REMARK                         _______ _______ _______ _____ _____    ______ ____
ROOT
ATOM      1  C   UNL A   1     -28.016  -0.814  28.878  0.00  0.00    -0.009 C 
ATOM      2  C   UNL A   1     -27.064  -0.119  28.608  0.00  0.00    -0.044 C 
ATOM      3  C   UNL A   1     -26.972   0.714  27.506  0.00  0.00    +0.022 C 
ATOM      4  C   UNL A   1     -25.820   1.491  27.116  0.00  0.00    +0.010 C 
ATOM      5  C   UNL A   1     -24.656   1.424  27.918  0.00  0.00    +0.044 C 
ATOM      6  C   UNL A   1     -25.866  -0.143  29.548  0.00  0.00    +0.022 C 
ATOM      7  C   UNL A   1     -24.618   0.613  29.159  0.00  0.00    +0.010 C 
ENDROOT
BRANCH   5   8
ATOM      8  C   UNL A   1     -23.460   2.116  27.616  0.00  0.00    +0.095 C 
ATOM      9  N   UNL A   1     -22.423   1.940  28.414  0.00  0.00    -0.151 NA
ENDBRANCH   5   8
TORSDOF 1
