MODEL 1445
MODEL 1
REMARK VINA RESULT:    -4.612      0.000      0.000
REMARK INTER + INTRA:          -4.903
REMARK INTER:                  -4.881
REMARK INTRA:                  -0.022
REMARK UNBOUND:                -0.022
REMARK  Name = No_1445-gen_results/8p0m/2024-11-26-14-13-15/
REMARK  1 active torsions:
REMARK  status: ('A' for Active; 'I' for Inactive)
REMARK    1  A    between atoms: C_5  and  C_6
REMARK                            x       y       z     vdW  Elec       q    Type
REMARK                         _______ _______ _______ _____ _____    ______ ____
ROOT
ATOM      1  C   UNL A   1     -30.321 -10.658  28.832  0.00  0.00    -0.009 C 
ATOM      2  C   UNL A   1     -29.702 -10.828  29.857  0.00  0.00    -0.044 C 
ATOM      3  C   UNL A   1     -28.711 -11.776  30.042  0.00  0.00    +0.022 C 
ATOM      4  C   UNL A   1     -28.014 -12.054  31.275  0.00  0.00    +0.010 C 
ATOM      5  C   UNL A   1     -28.346 -11.299  32.425  0.00  0.00    +0.044 C 
ATOM      6  C   UNL A   1     -30.019  -9.930  31.046  0.00  0.00    +0.022 C 
ATOM      7  C   UNL A   1     -29.354 -10.213  32.372  0.00  0.00    +0.010 C 
ENDROOT
BRANCH   5   8
ATOM      8  C   UNL A   1     -27.751 -11.506  33.691  0.00  0.00    +0.095 C 
ATOM      9  N   UNL A   1     -26.880 -12.490  33.815  0.00  0.00    -0.151 NA
ENDBRANCH   5   8
TORSDOF 1
ENDMDL
ENDMDL
