MODEL 1446
MODEL 1
REMARK VINA RESULT:    -6.447      0.000      0.000
REMARK INTER + INTRA:          -7.538
REMARK INTER:                  -7.200
REMARK INTRA:                  -0.338
REMARK UNBOUND:                -0.338
REMARK  Name = No_1446-gen_results/8p0m/2024-11-26-14-13-15/
REMARK  2 active torsions:
REMARK  status: ('A' for Active; 'I' for Inactive)
REMARK    1  A    between atoms: C_4  and  C_8
REMARK    2  A    between atoms: C_8  and  C_9
REMARK                            x       y       z     vdW  Elec       q    Type
REMARK                         _______ _______ _______ _____ _____    ______ ____
ROOT
ATOM      1  C   UNL A   1     -26.360  -2.486  30.328  0.00  0.00    +0.011 A 
ATOM      2  C   UNL A   1     -26.293  -3.484  29.996  0.00  0.00    +0.058 A 
ATOM      3  C   UNL A   1     -25.138  -1.632  30.071  0.00  0.00    -0.003 A 
ATOM      4  C   UNL A   1     -24.078  -2.156  29.302  0.00  0.00    -0.018 A 
ATOM      5  C   UNL A   1     -25.343  -4.253  29.161  0.00  0.00    +0.011 A 
ATOM      6  C   UNL A   1     -24.209  -3.498  28.899  0.00  0.00    -0.003 A 
ATOM      7 CL   UNL A   1     -27.769  -4.515  30.296  0.00  0.00    -0.082 Cl
ENDROOT
BRANCH   4   8
ATOM      8  C   UNL A   1     -22.899  -1.371  29.038  0.00  0.00    +0.053 C 
BRANCH   8   9
ATOM      9  C   UNL A   1     -22.963  -0.144  28.465  0.00  0.00    -0.018 A 
ATOM     10  C   UNL A   1     -23.975   0.102  27.451  0.00  0.00    -0.004 A 
ATOM     11  C   UNL A   1     -24.011   1.038  26.707  0.00  0.00    -0.000 A 
ATOM     12  C   UNL A   1     -22.874   1.986  26.623  0.00  0.00    -0.000 A 
ATOM     13  C   UNL A   1     -21.783   1.744  27.442  0.00  0.00    -0.000 A 
ATOM     14  C   UNL A   1     -21.779   0.645  28.247  0.00  0.00    -0.004 A 
ENDBRANCH   8   9
ENDBRANCH   4   8
TORSDOF 2
ENDMDL
ENDMDL
