REMARK  Name = No_1447-gen_results/8p0m/2024-11-26-14-13-15/
REMARK  3 active torsions:
REMARK  status: ('A' for Active; 'I' for Inactive)
REMARK    1  A    between atoms: N_1  and  C_10
REMARK    2  A    between atoms: C_2  and  C_3
REMARK    3  A    between atoms: C_10  and  C_11
REMARK                            x       y       z     vdW  Elec       q    Type
REMARK                         _______ _______ _______ _____ _____    ______ ____
ROOT
ATOM      1  N   UNL A   1     -28.054  -1.050  28.725  0.00  0.00    -0.159 NA
ATOM      2  C   UNL A   1     -27.746  -0.073  29.010  0.00  0.00    +0.268 C 
ATOM      3  O   UNL A   1     -27.797   0.346  30.285  0.00  0.00    -0.268 OA
ENDROOT
BRANCH   2   4
ATOM      4  C   UNL A   1     -27.174   0.756  28.107  0.00  0.00    +0.057 A 
ATOM      5  C   UNL A   1     -27.370   0.601  26.857  0.00  0.00    +0.005 A 
ATOM      6  C   UNL A   1     -26.678   1.365  25.826  0.00  0.00    +0.003 A 
ATOM      7  C   UNL A   1     -25.748   2.338  26.215  0.00  0.00    +0.030 A 
ATOM      8  C   UNL A   1     -25.529   2.583  27.569  0.00  0.00    +0.140 A 
ATOM      9  C   UNL A   1     -26.162   1.819  28.442  0.00  0.00    +0.034 A 
ATOM     10  F   UNL A   1     -24.702   3.519  27.922  0.00  0.00    -0.204 F 
ENDBRANCH   2   4
BRANCH   1  11
ATOM     11  C   UNL A   1     -28.609  -2.134  29.712  0.00  0.00    +0.359 C 
ATOM     12  F   UNL A   1     -29.673  -2.029  30.150  0.00  0.00    -0.200 F 
BRANCH  11  13
ATOM     13  C   UNL A   1     -27.685  -3.259  29.924  0.00  0.00    +0.418 C 
ATOM     14  O   UNL A   1     -28.151  -4.400  30.290  0.00  0.00    -0.240 OA
ATOM     15  O   UNL A   1     -26.410  -3.138  29.712  0.00  0.00    -0.240 OA
ENDBRANCH  11  13
ENDBRANCH   1  11
TORSDOF 3
