MODEL 1447
MODEL 1
REMARK VINA RESULT:    -6.404      0.000      0.000
REMARK INTER + INTRA:          -7.865
REMARK INTER:                  -7.527
REMARK INTRA:                  -0.338
REMARK UNBOUND:                -0.338
REMARK  Name = No_1447-gen_results/8p0m/2024-11-26-14-13-15/
REMARK  3 active torsions:
REMARK  status: ('A' for Active; 'I' for Inactive)
REMARK    1  A    between atoms: N_1  and  C_10
REMARK    2  A    between atoms: C_2  and  C_3
REMARK    3  A    between atoms: C_10  and  C_11
REMARK                            x       y       z     vdW  Elec       q    Type
REMARK                         _______ _______ _______ _____ _____    ______ ____
ROOT
ATOM      1  N   UNL A   1     -22.974  -1.341  28.860  0.00  0.00    -0.159 NA
ATOM      2  C   UNL A   1     -23.518  -1.652  29.719  0.00  0.00    +0.268 C 
ATOM      3  O   UNL A   1     -23.378  -1.046  30.909  0.00  0.00    -0.268 OA
ENDROOT
BRANCH   2   4
ATOM      4  C   UNL A   1     -24.471  -2.607  29.618  0.00  0.00    +0.057 A 
ATOM      5  C   UNL A   1     -25.644  -2.416  30.079  0.00  0.00    +0.005 A 
ATOM      6  C   UNL A   1     -26.674  -3.446  30.131  0.00  0.00    +0.003 A 
ATOM      7  C   UNL A   1     -26.378  -4.724  29.639  0.00  0.00    +0.030 A 
ATOM      8  C   UNL A   1     -25.127  -4.977  29.080  0.00  0.00    +0.140 A 
ATOM      9  C   UNL A   1     -24.233  -4.004  29.110  0.00  0.00    +0.034 A 
ATOM     10  F   UNL A   1     -24.876  -6.149  28.582  0.00  0.00    -0.204 F 
ENDBRANCH   2   4
BRANCH   1  11
ATOM     11  C   UNL A   1     -21.942  -0.162  28.837  0.00  0.00    +0.359 C 
ATOM     12  F   UNL A   1     -20.835  -0.354  29.106  0.00  0.00    -0.200 F 
BRANCH  11  13
ATOM     13  C   UNL A   1     -22.521   1.112  28.382  0.00  0.00    +0.418 C 
ATOM     14  O   UNL A   1     -22.363   1.478  27.160  0.00  0.00    -0.240 OA
ATOM     15  O   UNL A   1     -23.223   1.860  29.178  0.00  0.00    -0.240 OA
ENDBRANCH  11  13
ENDBRANCH   1  11
TORSDOF 3
ENDMDL
ENDMDL
