MODEL 1448
MODEL 1
REMARK VINA RESULT:    -4.125      0.000      0.000
REMARK INTER + INTRA:          -4.125
REMARK INTER:                  -4.125
REMARK INTRA:                   0.000
REMARK UNBOUND:                 0.000
REMARK  Name = No_1448-gen_results/8p0m/2024-11-26-14-13-15/
REMARK  0 active torsions:
REMARK  status: ('A' for Active; 'I' for Inactive)
REMARK                            x       y       z     vdW  Elec       q    Type
REMARK                         _______ _______ _______ _____ _____    ______ ____
ROOT
ATOM      1  O   UNL A   1     -11.323  -8.403  19.476  0.00  0.00    -0.273 OA
ATOM      2  C   UNL A   1     -10.341  -9.119  19.246  0.00  0.00    +0.241 C 
ATOM      3  C   UNL A   1     -10.194  -9.871  18.219  0.00  0.00    +0.087 C 
ATOM      4  N   UNL A   1      -9.181  -9.043  20.112  0.00  0.00    -0.205 NA
ATOM      5  C   UNL A   1      -9.068 -10.735  17.934  0.00  0.00    +0.011 C 
ATOM      6  C   UNL A   1      -8.029  -9.786  19.916  0.00  0.00    +0.115 C 
ATOM      7  C   UNL A   1      -7.942 -10.643  18.856  0.00  0.00    +0.024 C 
ENDROOT
TORSDOF 0
ENDMDL
ENDMDL
