REMARK  Name = No_1449-gen_results/8p0m/2024-11-26-14-13-15/
REMARK  4 active torsions:
REMARK  status: ('A' for Active; 'I' for Inactive)
REMARK    1  A    between atoms: C_4  and  C_8
REMARK    2  A    between atoms: C_8  and  C_9
REMARK    3  A    between atoms: C_9  and  C_10
REMARK    4  A    between atoms: C_9  and  C_11
REMARK                            x       y       z     vdW  Elec       q    Type
REMARK                         _______ _______ _______ _____ _____    ______ ____
ROOT
ATOM      1  C   UNL A   1     -28.016  -0.814  28.878  0.00  0.00    +0.006 A 
ATOM      2  C   UNL A   1     -28.469  -0.785  29.829  0.00  0.00    +0.035 A 
ATOM      3  C   UNL A   1     -26.546  -0.876  28.850  0.00  0.00    -0.004 A 
ATOM      4  C   UNL A   1     -25.804  -1.032  30.057  0.00  0.00    -0.021 A 
ATOM      5  C   UNL A   1     -27.944  -0.987  31.207  0.00  0.00    +0.006 A 
ATOM      6  C   UNL A   1     -26.582  -1.039  31.223  0.00  0.00    -0.004 A 
ATOM      7 BR   UNL A   1     -30.450  -0.713  29.890  0.00  0.00    -0.049 Br
ENDROOT
BRANCH   4   8
ATOM      8  C   UNL A   1     -24.361  -1.119  30.063  0.00  0.00    +0.047 C 
BRANCH   8   9
ATOM      9  C   UNL A   1     -23.687   0.137  30.027  0.00  0.00    +0.190 C 
BRANCH   9  10
ATOM     10  C   UNL A   1     -22.422   0.246  29.365  0.00  0.00    +0.461 C 
ATOM     11  N   UNL A   1     -22.174   1.341  28.679  0.00  0.00    +0.200 NA
ATOM     12  N   UNL A   1     -21.559  -0.751  29.346  0.00  0.00    +0.200 NA
ENDBRANCH   9  10
BRANCH   9  13
ATOM     13  C   UNL A   1     -24.216   1.310  30.674  0.00  0.00    +0.220 C 
ATOM     14  O   UNL A   1     -24.669   1.402  31.720  0.00  0.00    -0.288 OA
ENDBRANCH   9  13
ENDBRANCH   8   9
ENDBRANCH   4   8
TORSDOF 4
