MODEL 144
MODEL 1
REMARK VINA RESULT:    -6.067      0.000      0.000
REMARK INTER + INTRA:          -7.014
REMARK INTER:                  -6.776
REMARK INTRA:                  -0.237
REMARK UNBOUND:                -0.237
REMARK  Name = No_144-gen_results/8p0m/2024-11-26-14-13-15/
REMARK  2 active torsions:
REMARK  status: ('A' for Active; 'I' for Inactive)
REMARK    1  A    between atoms: C_2  and  C_7
REMARK    2  A    between atoms: N_9  and  C_10
REMARK                            x       y       z     vdW  Elec       q    Type
REMARK                         _______ _______ _______ _____ _____    ______ ____
ROOT
ATOM      1  C   UNL A   1     -29.772 -14.938  12.383  0.00  0.00    +0.269 C 
ATOM      2  O   UNL A   1     -29.633 -15.698  13.188  0.00  0.00    -0.268 OA
ATOM      3  N   UNL A   1     -29.798 -13.525  12.705  0.00  0.00    -0.175 NA
ENDROOT
BRANCH   1   5
ATOM      4  C   UNL A   1     -31.559 -15.098  10.964  0.00  0.00    +0.005 A 
ATOM      5  C   UNL A   1     -30.508 -15.173  10.989  0.00  0.00    +0.055 A 
ATOM      6  C   UNL A   1     -32.206 -15.338   9.664  0.00  0.00    +0.000 A 
ATOM      7  C   UNL A   1     -31.442 -15.788   8.547  0.00  0.00    +0.000 A 
ATOM      8  C   UNL A   1     -29.505 -15.669  10.008  0.00  0.00    +0.005 A 
ATOM      9  C   UNL A   1     -30.065 -15.894   8.786  0.00  0.00    +0.000 A 
ENDBRANCH   1   5
BRANCH   3  10
ATOM     10  C   UNL A   1     -29.986 -12.488  11.823  0.00  0.00    +0.074 A 
ATOM     11  C   UNL A   1     -29.113 -12.125  11.000  0.00  0.00    +0.017 A 
ATOM     12  C   UNL A   1     -29.262 -10.996  10.074  0.00  0.00    +0.001 A 
ATOM     13  C   UNL A   1     -30.063 -10.382  10.158  0.00  0.00    +0.000 A 
ATOM     14  C   UNL A   1     -31.189 -10.490  11.072  0.00  0.00    +0.001 A 
ATOM     15  C   UNL A   1     -31.150 -11.674  11.951  0.00  0.00    +0.017 A 
ENDBRANCH   3  10
TORSDOF 2
ENDMDL
ENDMDL
