REMARK  Name = No_1450-gen_results/8p0m/2024-11-26-14-13-15/
REMARK  7 active torsions:
REMARK  status: ('A' for Active; 'I' for Inactive)
REMARK    1  A    between atoms: C_2  and  C_3
REMARK    2  A    between atoms: N_4  and  C_10
REMARK    3  A    between atoms: C_6  and  C_12
REMARK    4  A    between atoms: C_10  and  C_15
REMARK    5  A    between atoms: C_10  and  N_17
REMARK    6  A    between atoms: C_23  and  C_25
REMARK    7  A    between atoms: C_23  and  C_27
REMARK                            x       y       z     vdW  Elec       q    Type
REMARK                         _______ _______ _______ _____ _____    ______ ____
ROOT
ATOM      1  C   UNL A   1     -26.775  -2.939  30.150  0.00  0.00    +0.163 C 
ENDROOT
BRANCH   1   2
ATOM      2  C   UNL A   1     -26.054  -4.055  29.375  0.00  0.00    +0.079 C 
ATOM      3  C   UNL A   1     -24.777  -3.688  28.955  0.00  0.00    -0.019 C 
ATOM      4  C   UNL A   1     -23.889  -4.736  28.566  0.00  0.00    -0.004 C 
ATOM      5  C   UNL A   1     -24.490  -5.989  28.622  0.00  0.00    -0.004 C 
ATOM      6  C   UNL A   1     -26.076  -5.443  29.564  0.00  0.00    -0.019 C 
ENDBRANCH   1   2
BRANCH   1   7
ATOM      7  N   UNL A   1     -27.973  -3.208  30.647  0.00  0.00    -0.256 NA
ATOM      8  C   UNL A   1     -28.724  -2.279  31.275  0.00  0.00    +0.074 C 
ATOM      9  C   UNL A   1     -28.558  -4.545  30.710  0.00  0.00    +0.086 C 
ATOM     10  C   UNL A   1     -30.075  -4.441  30.868  0.00  0.00    +0.102 C 
ATOM     11  C   UNL A   1     -30.282  -3.199  31.285  0.00  0.00    +0.031 C 
BRANCH  10  12
ATOM     12  C   UNL A   1     -30.460  -5.437  31.974  0.00  0.00    +0.005 A 
ATOM     13  C   UNL A   1     -31.241  -4.924  32.992  0.00  0.00    +0.095 A 
ATOM     14  N   UNL A   1     -31.492  -5.739  33.928  0.00  0.00    -0.243 NA
ATOM     15  C   UNL A   1     -30.124  -6.798  31.931  0.00  0.00    -0.001 A 
ATOM     16  C   UNL A   1     -30.371  -7.656  32.945  0.00  0.00    +0.020 A 
ATOM     17  C   UNL A   1     -31.076  -7.100  34.015  0.00  0.00    +0.099 A 
ENDBRANCH  10  12
BRANCH  10  18
ATOM     18  C   UNL A   1     -30.791  -4.766  29.620  0.00  0.00    +0.235 C 
ATOM     19 CL   UNL A   1     -32.205  -4.935  29.548  0.00  0.00    -0.043 Cl
ATOM     20  O   UNL A   1     -30.020  -4.910  28.552  0.00  0.00    -0.279 OA
ENDBRANCH  10  18
ENDBRANCH   1   7
BRANCH   1  23
ATOM     21  O   UNL A   1     -28.123  -1.335  28.487  0.00  0.00    -0.268 OA
ATOM     22  C   UNL A   1     -27.064  -0.824  28.869  0.00  0.00    +0.266 C 
ATOM     23  N   UNL A   1     -26.381  -1.799  29.962  0.00  0.00    -0.186 NA
BRANCH  22  24
ATOM     24  C   UNL A   1     -26.402  -0.062  28.622  0.00  0.00    +0.055 A 
ATOM     25  C   UNL A   1     -25.033   0.374  29.048  0.00  0.00    +0.012 A 
ATOM     26  C   UNL A   1     -24.229   1.447  28.628  0.00  0.00    +0.090 A 
ATOM     27  C   UNL A   1     -24.793   2.238  27.568  0.00  0.00    +0.064 A 
ATOM     28  C   UNL A   1     -26.025   1.955  27.080  0.00  0.00    +0.012 A 
ATOM     29  C   UNL A   1     -26.750   0.938  27.488  0.00  0.00    +0.005 A 
ATOM     30 CL   UNL A   1     -23.818   3.584  27.064  0.00  0.00    -0.082 Cl
BRANCH  26  31
ATOM     31  C   UNL A   1     -22.904   1.690  29.187  0.00  0.00    +0.389 C 
ATOM     32  O   UNL A   1     -22.465   0.957  30.001  0.00  0.00    -0.240 OA
ATOM     33  O   UNL A   1     -22.194   2.629  28.663  0.00  0.00    -0.240 OA
ENDBRANCH  26  31
ENDBRANCH  22  24
ENDBRANCH   1  23
TORSDOF 7
