MODEL 1450
MODEL 1
REMARK VINA RESULT:    -7.429      0.000      0.000
REMARK INTER + INTRA:         -12.113
REMARK INTER:                 -10.469
REMARK INTRA:                  -1.644
REMARK UNBOUND:                -1.644
REMARK  Name = No_1450-gen_results/8p0m/2024-11-26-14-13-15/
REMARK  7 active torsions:
REMARK  status: ('A' for Active; 'I' for Inactive)
REMARK    1  A    between atoms: C_2  and  C_3
REMARK    2  A    between atoms: N_4  and  C_10
REMARK    3  A    between atoms: C_6  and  C_12
REMARK    4  A    between atoms: C_10  and  C_15
REMARK    5  A    between atoms: C_10  and  N_17
REMARK    6  A    between atoms: C_23  and  C_25
REMARK    7  A    between atoms: C_23  and  C_27
REMARK                            x       y       z     vdW  Elec       q    Type
REMARK                         _______ _______ _______ _____ _____    ______ ____
ROOT
ATOM      1  C   UNL A   1     -27.991 -12.067   8.244  0.00  0.00    +0.163 C 
ENDROOT
BRANCH   1   2
ATOM      2  C   UNL A   1     -28.258 -10.590   8.580  0.00  0.00    +0.079 C 
ATOM      3  C   UNL A   1     -27.254 -10.020   9.360  0.00  0.00    -0.019 C 
ATOM      4  C   UNL A   1     -27.200  -8.594   9.419  0.00  0.00    -0.004 C 
ATOM      5  C   UNL A   1     -28.231  -7.994   8.705  0.00  0.00    -0.004 C 
ATOM      6  C   UNL A   1     -28.842  -9.580   7.804  0.00  0.00    -0.019 C 
ENDBRANCH   1   2
BRANCH   1   7
ATOM      7  N   UNL A   1     -28.780 -12.977   8.797  0.00  0.00    -0.256 NA
ATOM      8  C   UNL A   1     -28.722 -14.284   8.467  0.00  0.00    +0.074 C 
ATOM      9  C   UNL A   1     -29.884 -12.670   9.702  0.00  0.00    +0.086 C 
ATOM     10  C   UNL A   1     -30.251 -13.912  10.514  0.00  0.00    +0.102 C 
ATOM     11  C   UNL A   1     -29.712 -14.920   9.842  0.00  0.00    +0.031 C 
BRANCH  10  12
ATOM     12  C   UNL A   1     -31.784 -14.014  10.474  0.00  0.00    +0.005 A 
ATOM     13  C   UNL A   1     -32.465 -12.822  10.641  0.00  0.00    +0.095 A 
ATOM     14  N   UNL A   1     -33.725 -12.934  10.673  0.00  0.00    -0.243 NA
ATOM     15  C   UNL A   1     -32.467 -15.209  10.204  0.00  0.00    -0.001 A 
ATOM     16  C   UNL A   1     -33.811 -15.326  10.267  0.00  0.00    +0.020 A 
ATOM     17  C   UNL A   1     -34.485 -14.133  10.534  0.00  0.00    +0.099 A 
ENDBRANCH  10  12
BRANCH  10  18
ATOM     18  C   UNL A   1     -29.784 -13.825  11.911  0.00  0.00    +0.235 C 
ATOM     19 CL   UNL A   1     -29.782 -14.933  12.808  0.00  0.00    -0.043 Cl
ATOM     20  O   UNL A   1     -29.373 -12.624  12.291  0.00  0.00    -0.279 OA
ENDBRANCH  10  18
ENDBRANCH   1   7
BRANCH   1  23
ATOM     21  O   UNL A   1     -27.617 -12.100   5.596  0.00  0.00    -0.268 OA
ATOM     22  C   UNL A   1     -26.626 -12.510   6.210  0.00  0.00    +0.266 C 
ATOM     23  N   UNL A   1     -26.889 -12.337   7.795  0.00  0.00    -0.186 NA
BRANCH  22  24
ATOM     24  C   UNL A   1     -25.754 -13.054   6.060  0.00  0.00    +0.055 A 
ATOM     25  C   UNL A   1     -24.448 -12.850   5.353  0.00  0.00    +0.012 A 
ATOM     26  C   UNL A   1     -23.325 -13.683   5.222  0.00  0.00    +0.090 A 
ATOM     27  C   UNL A   1     -23.419 -14.931   5.930  0.00  0.00    +0.064 A 
ATOM     28  C   UNL A   1     -24.542 -15.247   6.618  0.00  0.00    +0.012 A 
ATOM     29  C   UNL A   1     -25.575 -14.442   6.730  0.00  0.00    +0.005 A 
ATOM     30 CL   UNL A   1     -22.046 -15.979   5.748  0.00  0.00    -0.082 Cl
BRANCH  26  31
ATOM     31  C   UNL A   1     -22.140 -13.276   4.475  0.00  0.00    +0.389 C 
ATOM     32  O   UNL A   1     -21.396 -12.485   4.937  0.00  0.00    -0.240 OA
ATOM     33  O   UNL A   1     -21.870 -13.909   3.385  0.00  0.00    -0.240 OA
ENDBRANCH  26  31
ENDBRANCH  22  24
ENDBRANCH   1  23
TORSDOF 7
ENDMDL
ENDMDL
