REMARK  Name = No_1452-gen_results/8p0m/2024-11-26-14-13-15/
REMARK  1 active torsions:
REMARK  status: ('A' for Active; 'I' for Inactive)
REMARK    1  A    between atoms: C_5  and  C_6
REMARK                            x       y       z     vdW  Elec       q    Type
REMARK                         _______ _______ _______ _____ _____    ______ ____
ROOT
ATOM      1  C   UNL A   1     -28.016  -0.814  28.878  0.00  0.00    -0.000 A 
ATOM      2  C   UNL A   1     -28.469  -0.785  29.829  0.00  0.00    +0.001 A 
ATOM      3  C   UNL A   1     -26.504  -0.778  28.877  0.00  0.00    -0.000 A 
ATOM      4  C   UNL A   1     -25.831  -1.681  29.685  0.00  0.00    -0.000 A 
ATOM      5  C   UNL A   1     -28.149  -1.885  30.903  0.00  0.00    +0.044 A 
ATOM      6  C   UNL A   1     -26.727  -2.259  30.799  0.00  0.00    +0.001 A 
ENDROOT
BRANCH   5   7
ATOM      7  C   UNL A   1     -28.930  -2.083  32.036  0.00  0.00    +0.341 C 
ATOM      8  F   UNL A   1     -28.947  -3.421  32.337  0.00  0.00    -0.193 F 
ATOM      9  F   UNL A   1     -28.433  -1.493  33.084  0.00  0.00    -0.193 F 
ENDBRANCH   5   7
TORSDOF 1
