MODEL 1452
MODEL 1
REMARK VINA RESULT:    -4.779      0.000      0.000
REMARK INTER + INTRA:          -5.188
REMARK INTER:                  -5.059
REMARK INTRA:                  -0.129
REMARK UNBOUND:                -0.129
REMARK  Name = No_1452-gen_results/8p0m/2024-11-26-14-13-15/
REMARK  1 active torsions:
REMARK  status: ('A' for Active; 'I' for Inactive)
REMARK    1  A    between atoms: C_5  and  C_6
REMARK                            x       y       z     vdW  Elec       q    Type
REMARK                         _______ _______ _______ _____ _____    ______ ____
ROOT
ATOM      1  C   UNL A   1     -24.165  -4.658  28.422  0.00  0.00    -0.000 A 
ATOM      2  C   UNL A   1     -23.828  -3.716  28.753  0.00  0.00    +0.001 A 
ATOM      3  C   UNL A   1     -25.169  -5.343  29.322  0.00  0.00    -0.000 A 
ATOM      4  C   UNL A   1     -26.282  -4.621  29.722  0.00  0.00    -0.000 A 
ATOM      5  C   UNL A   1     -24.843  -2.545  29.003  0.00  0.00    +0.044 A 
ATOM      6  C   UNL A   1     -26.087  -3.099  29.568  0.00  0.00    +0.001 A 
ENDROOT
BRANCH   5   7
ATOM      7  C   UNL A   1     -24.448  -1.218  29.132  0.00  0.00    +0.341 C 
ATOM      8  F   UNL A   1     -23.626  -1.102  30.224  0.00  0.00    -0.193 F 
ATOM      9  F   UNL A   1     -23.741  -0.816  28.115  0.00  0.00    -0.193 F 
ENDBRANCH   5   7
TORSDOF 1
ENDMDL
ENDMDL
