REMARK  Name = No_1454-gen_results/8p0m/2024-11-26-14-13-15/
REMARK  2 active torsions:
REMARK  status: ('A' for Active; 'I' for Inactive)
REMARK    1  A    between atoms: C_3  and  C_9
REMARK    2  A    between atoms: C_9  and  C_10
REMARK                            x       y       z     vdW  Elec       q    Type
REMARK                         _______ _______ _______ _____ _____    ______ ____
ROOT
ATOM      1  C   UNL A   1     -28.016  -0.814  28.878  0.00  0.00    +0.041 A 
ATOM      2  C   UNL A   1     -27.064  -0.119  28.608  0.00  0.00    +0.137 A 
ATOM      3  C   UNL A   1     -25.792  -0.430  29.076  0.00  0.00    +0.011 A 
ATOM      4  C   UNL A   1     -25.576  -1.565  29.936  0.00  0.00    -0.001 A 
ATOM      5  C   UNL A   1     -26.735  -2.300  30.217  0.00  0.00    +0.011 A 
ATOM      6  C   UNL A   1     -27.918  -1.954  29.763  0.00  0.00    +0.060 A 
ATOM      7 CL   UNL A   1     -29.268  -2.889  30.215  0.00  0.00    -0.082 Cl
ATOM      8  F   UNL A   1     -27.132   1.000  27.871  0.00  0.00    -0.204 F 
ENDROOT
BRANCH   3   9
ATOM      9  C   UNL A   1     -24.517   0.350  28.751  0.00  0.00    +0.077 C 
BRANCH   9  10
ATOM     10  C   UNL A   1     -24.148   1.395  29.454  0.00  0.00    +0.101 C 
ATOM     11  N   UNL A   1     -23.025   2.070  29.120  0.00  0.00    -0.151 NA
ENDBRANCH   9  10
ENDBRANCH   3   9
TORSDOF 2
