REMARK  Name = No_1455-gen_results/8p0m/2024-11-26-14-13-15/
REMARK  0 active torsions:
REMARK  status: ('A' for Active; 'I' for Inactive)
REMARK                            x       y       z     vdW  Elec       q    Type
REMARK                         _______ _______ _______ _____ _____    ______ ____
ROOT
ATOM      1  C   UNL A   1     -28.016  -0.814  28.878  0.00  0.00    -0.003 A 
ATOM      2  C   UNL A   1     -28.469  -0.785  29.829  0.00  0.00    -0.000 A 
ATOM      3  C   UNL A   1     -27.136   0.236  28.535  0.00  0.00    -0.003 A 
ATOM      4  C   UNL A   1     -26.875   1.282  29.398  0.00  0.00    -0.003 A 
ATOM      5  C   UNL A   1     -28.361   0.199  30.924  0.00  0.00    -0.000 A 
ATOM      6  C   UNL A   1     -25.972   2.385  29.104  0.00  0.00    -0.004 C 
ATOM      7  C   UNL A   1     -27.512   1.232  30.632  0.00  0.00    -0.000 A 
ATOM      8  C   UNL A   1     -25.301   2.505  28.034  0.00  0.00    -0.021 C 
ATOM      9  C   UNL A   1     -24.728   1.480  27.381  0.00  0.00    +0.052 C 
ATOM     10  C   UNL A   1     -24.200   0.425  28.072  0.00  0.00    -0.020 A 
ATOM     11  C   UNL A   1     -22.972   0.600  28.772  0.00  0.00    -0.004 A 
ATOM     12  C   UNL A   1     -22.398  -0.562  29.410  0.00  0.00    -0.000 A 
ATOM     13  C   UNL A   1     -23.089  -1.720  29.421  0.00  0.00    -0.000 A 
ATOM     14  C   UNL A   1     -24.298  -1.909  28.829  0.00  0.00    -0.003 A 
ATOM     15  C   UNL A   1     -24.722  -0.801  28.226  0.00  0.00    -0.007 A 
ATOM     16  C   UNL A   1     -25.611  -0.378  28.177  0.00  0.00    +0.124 C 
ATOM     17 CL   UNL A   1     -26.139  -1.758  26.883  0.00  0.00    -0.105 Cl
ENDROOT
TORSDOF 0
