MODEL 1455
MODEL 1
REMARK VINA RESULT:    -7.516      0.000      0.000
REMARK INTER + INTRA:          -7.516
REMARK INTER:                  -7.516
REMARK INTRA:                   0.000
REMARK UNBOUND:                 0.000
REMARK  Name = No_1455-gen_results/8p0m/2024-11-26-14-13-15/
REMARK  0 active torsions:
REMARK  status: ('A' for Active; 'I' for Inactive)
REMARK                            x       y       z     vdW  Elec       q    Type
REMARK                         _______ _______ _______ _____ _____    ______ ____
ROOT
ATOM      1  C   UNL A   1     -25.901  -0.497  32.172  0.00  0.00    -0.003 A 
ATOM      2  C   UNL A   1     -25.550  -0.663  33.151  0.00  0.00    -0.000 A 
ATOM      3  C   UNL A   1     -24.975  -0.613  31.111  0.00  0.00    -0.003 A 
ATOM      4  C   UNL A   1     -23.647  -0.921  31.331  0.00  0.00    -0.003 A 
ATOM      5  C   UNL A   1     -24.204  -1.004  33.654  0.00  0.00    -0.000 A 
ATOM      6  C   UNL A   1     -22.651  -1.064  30.280  0.00  0.00    -0.004 C 
ATOM      7  C   UNL A   1     -23.277  -1.131  32.654  0.00  0.00    -0.000 A 
ATOM      8  C   UNL A   1     -22.887  -0.946  29.039  0.00  0.00    -0.021 C 
ATOM      9  C   UNL A   1     -24.007  -1.380  28.437  0.00  0.00    +0.052 C 
ATOM     10  C   UNL A   1     -24.621  -2.527  28.857  0.00  0.00    -0.020 A 
ATOM     11  C   UNL A   1     -24.028  -3.784  28.548  0.00  0.00    -0.004 A 
ATOM     12  C   UNL A   1     -24.754  -4.974  28.925  0.00  0.00    -0.000 A 
ATOM     13  C   UNL A   1     -25.887  -4.857  29.647  0.00  0.00    -0.000 A 
ATOM     14  C   UNL A   1     -26.448  -3.678  30.027  0.00  0.00    -0.003 A 
ATOM     15  C   UNL A   1     -25.737  -2.640  29.592  0.00  0.00    -0.007 A 
ATOM     16  C   UNL A   1     -25.485  -1.790  30.023  0.00  0.00    +0.124 C 
ATOM     17 CL   UNL A   1     -27.322  -1.159  29.735  0.00  0.00    -0.105 Cl
ENDROOT
TORSDOF 0
ENDMDL
ENDMDL
