MODEL 1456
MODEL 1
REMARK VINA RESULT:    -8.449      0.000      0.000
REMARK INTER + INTRA:          -9.490
REMARK INTER:                  -8.943
REMARK INTRA:                  -0.547
REMARK UNBOUND:                -0.547
REMARK  Name = No_1456-gen_results/8p0m/2024-11-26-14-13-15/
REMARK  1 active torsions:
REMARK  status: ('A' for Active; 'I' for Inactive)
REMARK    1  A    between atoms: C_4  and  C_14
REMARK                            x       y       z     vdW  Elec       q    Type
REMARK                         _______ _______ _______ _____ _____    ______ ____
ROOT
ATOM      1  C   UNL A   1     -23.868   1.371  26.360  0.00  0.00    -0.026 A 
ATOM      2  C   UNL A   1     -23.641   0.796  27.399  0.00  0.00    +0.024 C 
ATOM      3  C   UNL A   1     -24.266  -0.392  27.776  0.00  0.00    +0.019 C 
ATOM      4  C   UNL A   1     -24.059  -1.151  29.025  0.00  0.00    +0.080 C 
ATOM      5  C   UNL A   1     -22.961  -0.728  29.834  0.00  0.00    +0.154 C 
ATOM      6  C   UNL A   1     -22.276   0.435  29.468  0.00  0.00    +0.065 C 
ATOM      7  C   UNL A   1     -22.561   1.141  28.351  0.00  0.00    +0.012 C 
ATOM      8  C   UNL A   1     -24.046   2.842  26.488  0.00  0.00    -0.005 A 
ATOM      9  C   UNL A   1     -24.817   3.472  25.991  0.00  0.00    -0.000 A 
ATOM     10  C   UNL A   1     -26.078   3.055  25.813  0.00  0.00    -0.000 A 
ATOM     11  C   UNL A   1     -26.232   1.699  25.353  0.00  0.00    -0.005 A 
ATOM     12  C   UNL A   1     -25.265   0.812  25.993  0.00  0.00    -0.026 A 
ATOM     13  C   UNL A   1     -25.473  -0.465  26.540  0.00  0.00    +0.027 C 
ATOM     14  O   UNL A   1     -22.699  -1.397  30.903  0.00  0.00    -0.296 OA
ENDROOT
BRANCH   4  15
ATOM     15  C   UNL A   1     -24.837  -2.385  29.249  0.00  0.00    -0.015 A 
ATOM     16  C   UNL A   1     -25.883  -2.484  29.670  0.00  0.00    -0.004 A 
ATOM     17  C   UNL A   1     -24.081  -3.588  28.774  0.00  0.00    -0.004 A 
ATOM     18  C   UNL A   1     -24.733  -4.874  28.970  0.00  0.00    -0.000 A 
ATOM     19  C   UNL A   1     -26.622  -3.798  29.928  0.00  0.00    -0.000 A 
ATOM     20  C   UNL A   1     -25.977  -4.921  29.517  0.00  0.00    -0.000 A 
ENDBRANCH   4  15
TORSDOF 1
ENDMDL
ENDMDL
