REMARK  Name = No_1456-gen_results/8p0m/2024-11-26-14-13-15/
REMARK  1 active torsions:
REMARK  status: ('A' for Active; 'I' for Inactive)
REMARK    1  A    between atoms: C_4  and  C_14
REMARK                            x       y       z     vdW  Elec       q    Type
REMARK                         _______ _______ _______ _____ _____    ______ ____
ROOT
ATOM      1  C   UNL A   1     -28.016  -0.814  28.878  0.00  0.00    -0.026 A 
ATOM      2  C   UNL A   1     -27.064  -0.119  28.608  0.00  0.00    +0.024 C 
ATOM      3  C   UNL A   1     -25.765  -0.390  29.036  0.00  0.00    +0.019 C 
ATOM      4  C   UNL A   1     -24.552   0.406  28.765  0.00  0.00    +0.080 C 
ATOM      5  C   UNL A   1     -24.696   1.448  27.799  0.00  0.00    +0.154 C 
ATOM      6  C   UNL A   1     -25.976   1.725  27.308  0.00  0.00    +0.065 C 
ATOM      7  C   UNL A   1     -27.072   1.013  27.654  0.00  0.00    +0.012 C 
ATOM      8  C   UNL A   1     -29.226  -0.068  29.315  0.00  0.00    -0.005 A 
ATOM      9  C   UNL A   1     -29.907  -0.325  30.157  0.00  0.00    -0.000 A 
ATOM     10  C   UNL A   1     -29.457  -0.824  31.316  0.00  0.00    -0.000 A 
ATOM     11  C   UNL A   1     -28.456  -1.855  31.209  0.00  0.00    -0.005 A 
ATOM     12  C   UNL A   1     -27.510  -1.561  30.137  0.00  0.00    -0.026 A 
ATOM     13  C   UNL A   1     -26.109  -1.669  30.148  0.00  0.00    +0.027 C 
ATOM     14  O   UNL A   1     -23.653   2.131  27.480  0.00  0.00    -0.296 OA
ENDROOT
BRANCH   4  15
ATOM     15  C   UNL A   1     -23.263  -0.041  29.327  0.00  0.00    -0.015 A 
ATOM     16  C   UNL A   1     -23.081  -0.618  30.284  0.00  0.00    -0.004 A 
ATOM     17  C   UNL A   1     -22.129   0.313  28.415  0.00  0.00    -0.004 A 
ATOM     18  C   UNL A   1     -20.797  -0.049  28.876  0.00  0.00    -0.000 A 
ATOM     19  C   UNL A   1     -21.714  -1.011  30.845  0.00  0.00    -0.000 A 
ATOM     20  C   UNL A   1     -20.650  -0.710  30.056  0.00  0.00    -0.000 A 
ENDBRANCH   4  15
TORSDOF 1
