MODEL 1457
MODEL 1
REMARK VINA RESULT:    -4.543      0.000      0.000
REMARK INTER + INTRA:          -5.136
REMARK INTER:                  -5.075
REMARK INTRA:                  -0.061
REMARK UNBOUND:                -0.061
REMARK  Name = No_1457-gen_results/8p0m/2024-11-26-14-13-15/
REMARK  2 active torsions:
REMARK  status: ('A' for Active; 'I' for Inactive)
REMARK    1  A    between atoms: C_1  and  C_2
REMARK    2  A    between atoms: C_1  and  C_3
REMARK                            x       y       z     vdW  Elec       q    Type
REMARK                         _______ _______ _______ _____ _____    ______ ____
ROOT
ATOM      1  C   UNL A   1      -9.143 -10.152  18.076  0.00  0.00    +0.186 C 
ENDROOT
BRANCH   1   2
ATOM      2  C   UNL A   1     -10.123  -9.791  17.934  0.00  0.00    +0.371 C 
ATOM      3  O   UNL A   1     -10.689  -8.923  18.560  0.00  0.00    -0.245 OA
ATOM      4  O   UNL A   1     -10.906 -10.434  16.968  0.00  0.00    -0.245 OA
ENDBRANCH   1   2
BRANCH   1   5
ATOM      5  C   UNL A   1      -8.396  -9.558  19.249  0.00  0.00    +0.330 C 
ATOM      6  F   UNL A   1      -7.877 -10.468  19.890  0.00  0.00    -0.198 F 
ATOM      7  F   UNL A   1      -7.687  -8.491  19.258  0.00  0.00    -0.198 F 
ENDBRANCH   1   5
TORSDOF 2
ENDMDL
ENDMDL
