REMARK  Name = No_1457-gen_results/8p0m/2024-11-26-14-13-15/
REMARK  2 active torsions:
REMARK  status: ('A' for Active; 'I' for Inactive)
REMARK    1  A    between atoms: C_1  and  C_2
REMARK    2  A    between atoms: C_1  and  C_3
REMARK                            x       y       z     vdW  Elec       q    Type
REMARK                         _______ _______ _______ _____ _____    ______ ____
ROOT
ATOM      1  C   UNL A   1     -28.016  -0.814  28.878  0.00  0.00    +0.186 C 
ENDROOT
BRANCH   1   2
ATOM      2  C   UNL A   1     -28.469  -0.785  29.829  0.00  0.00    +0.371 C 
ATOM      3  O   UNL A   1     -27.965  -0.449  30.878  0.00  0.00    -0.245 OA
ATOM      4  O   UNL A   1     -29.780  -1.266  29.927  0.00  0.00    -0.245 OA
ENDBRANCH   1   2
BRANCH   1   5
ATOM      5  C   UNL A   1     -26.504  -0.778  28.877  0.00  0.00    +0.330 C 
ATOM      6  F   UNL A   1     -26.081  -1.894  29.166  0.00  0.00    -0.198 F 
ATOM      7  F   UNL A   1     -25.742  -0.169  28.046  0.00  0.00    -0.198 F 
ENDBRANCH   1   5
TORSDOF 2
