REMARK  Name = No_1458-gen_results/8p0m/2024-11-26-14-13-15/
REMARK  4 active torsions:
REMARK  status: ('A' for Active; 'I' for Inactive)
REMARK    1  A    between atoms: C_1  and  C_2
REMARK    2  A    between atoms: C_1  and  C_8
REMARK    3  A    between atoms: C_9  and  C_10
REMARK    4  A    between atoms: C_10  and  C_11
REMARK                            x       y       z     vdW  Elec       q    Type
REMARK                         _______ _______ _______ _____ _____    ______ ____
ROOT
ATOM      1  C   UNL A   1     -28.016  -0.814  28.878  0.00  0.00    +0.052 C 
ENDROOT
BRANCH   1   2
ATOM      2  C   UNL A   1     -27.064  -0.119  28.608  0.00  0.00    -0.018 A 
ATOM      3  C   UNL A   1     -26.929   1.171  29.008  0.00  0.00    -0.004 A 
ATOM      4  C   UNL A   1     -25.770   2.034  28.688  0.00  0.00    -0.000 A 
ATOM      5  C   UNL A   1     -24.714   1.443  27.919  0.00  0.00    -0.000 A 
ATOM      6  C   UNL A   1     -24.859   0.078  27.584  0.00  0.00    -0.000 A 
ATOM      7  C   UNL A   1     -25.965  -0.661  27.916  0.00  0.00    -0.004 A 
ENDBRANCH   1   2
BRANCH   1   8
ATOM      8  C   UNL A   1     -28.042  -1.543  30.242  0.00  0.00    -0.026 C 
ATOM      9  C   UNL A   1     -29.064  -2.458  30.592  0.00  0.00    -0.026 C 
BRANCH   9  10
ATOM     10  C   UNL A   1     -28.775  -3.551  31.241  0.00  0.00    +0.051 C 
BRANCH  10  11
ATOM     11  C   UNL A   1     -29.911  -4.266  31.660  0.00  0.00    -0.026 C 
ATOM     12  C   UNL A   1     -31.134  -4.007  31.177  0.00  0.00    -0.030 C 
ATOM     13  C   UNL A   1     -31.389  -2.912  30.441  0.00  0.00    +0.030 C 
ENDBRANCH  10  11
ENDBRANCH   9  10
ENDBRANCH   1   8
TORSDOF 4
