MODEL 1459
MODEL 1
REMARK VINA RESULT:    -5.579      0.000      0.000
REMARK INTER + INTRA:          -6.583
REMARK INTER:                  -6.231
REMARK INTRA:                  -0.352
REMARK UNBOUND:                -0.352
REMARK  Name = No_1459-gen_results/8p0m/2024-11-26-14-13-15/
REMARK  2 active torsions:
REMARK  status: ('A' for Active; 'I' for Inactive)
REMARK    1  A    between atoms: C_3  and  C_4
REMARK    2  A    between atoms: C_5  and  C_6
REMARK                            x       y       z     vdW  Elec       q    Type
REMARK                         _______ _______ _______ _____ _____    ______ ____
ROOT
ATOM      1  C   UNL A   1     -24.100  -4.712  28.568  0.00  0.00    -0.000 A 
ATOM      2  C   UNL A   1     -23.836  -3.542  28.726  0.00  0.00    -0.000 A 
ATOM      3  C   UNL A   1     -24.658  -2.657  29.345  0.00  0.00    -0.004 A 
ATOM      4  C   UNL A   1     -25.360  -5.253  29.111  0.00  0.00    -0.000 A 
ATOM      5  C   UNL A   1     -26.232  -4.449  29.706  0.00  0.00    -0.000 A 
ATOM      6  C   UNL A   1     -25.909  -3.108  29.867  0.00  0.00    -0.000 A 
ENDROOT
BRANCH   3   7
ATOM      7  C   UNL A   1     -24.350  -1.223  29.548  0.00  0.00    -0.026 C 
ATOM      8  C   UNL A   1     -23.513  -0.595  28.569  0.00  0.00    -0.030 C 
ATOM      9  C   UNL A   1     -23.631  -0.795  30.783  0.00  0.00    +0.031 C 
BRANCH   8  10
ATOM     10  C   UNL A   1     -23.134   0.751  28.689  0.00  0.00    +0.026 C 
ATOM     11  C   UNL A   1     -22.214   1.241  27.871  0.00  0.00    +0.005 C 
ENDBRANCH   8  10
ENDBRANCH   3   7
TORSDOF 2
ENDMDL
ENDMDL
