MODEL 145
MODEL 1
REMARK VINA RESULT:    -5.213      0.000      0.000
REMARK INTER + INTRA:          -5.691
REMARK INTER:                  -5.518
REMARK INTRA:                  -0.173
REMARK UNBOUND:                -0.173
REMARK  Name = No_145-gen_results/8p0m/2024-11-26-14-13-15/
REMARK  1 active torsions:
REMARK  status: ('A' for Active; 'I' for Inactive)
REMARK    1  A    between atoms: C_3  and  C_7
REMARK                            x       y       z     vdW  Elec       q    Type
REMARK                         _______ _______ _______ _____ _____    ______ ____
ROOT
ATOM      1  C   UNL A   1     -23.889  -3.952  28.624  0.00  0.00    +0.004 A 
ATOM      2  C   UNL A   1     -24.369  -4.870  28.815  0.00  0.00    -0.000 A 
ATOM      3  C   UNL A   1     -24.549  -2.777  29.117  0.00  0.00    +0.071 A 
ATOM      4  C   UNL A   1     -25.778  -2.797  29.642  0.00  0.00    +0.004 A 
ATOM      5  C   UNL A   1     -25.700  -5.127  29.346  0.00  0.00    -0.000 A 
ATOM      6  C   UNL A   1     -26.334  -4.048  29.786  0.00  0.00    -0.000 A 
ENDROOT
BRANCH   3   7
ATOM      7  C   UNL A   1     -23.823  -1.436  28.949  0.00  0.00    +0.419 C 
ATOM      8  F   UNL A   1     -24.174  -0.782  27.829  0.00  0.00    -0.166 F 
ATOM      9  F   UNL A   1     -24.065  -0.577  29.961  0.00  0.00    -0.166 F 
ATOM     10  F   UNL A   1     -22.439  -1.553  28.918  0.00  0.00    -0.166 F 
ENDBRANCH   3   7
TORSDOF 1
ENDMDL
ENDMDL
