REMARK  Name = No_146-gen_results/8p0m/2024-11-26-14-13-15/
REMARK  2 active torsions:
REMARK  status: ('A' for Active; 'I' for Inactive)
REMARK    1  A    between atoms: C_3  and  C_11
REMARK    2  A    between atoms: C_7  and  C_8
REMARK                            x       y       z     vdW  Elec       q    Type
REMARK                         _______ _______ _______ _____ _____    ______ ____
ROOT
ATOM      1  O   UNL A   1     -28.123  -1.335  28.487  0.00  0.00    -0.270 OA
ATOM      2  C   UNL A   1     -27.064  -0.824  28.869  0.00  0.00    +0.279 C 
ATOM      3  C   UNL A   1     -26.959   0.093  29.758  0.00  0.00    +0.289 C 
ATOM      4  N   UNL A   1     -25.818  -1.092  28.170  0.00  0.00    -0.202 NA
ATOM      5  C   UNL A   1     -25.739   0.718  30.234  0.00  0.00    +0.064 C 
ATOM      6  C   UNL A   1     -24.577  -0.578  28.534  0.00  0.00    +0.127 C 
ATOM      7  C   UNL A   1     -24.532   0.358  29.560  0.00  0.00    +0.128 C 
ATOM      8  F   UNL A   1     -27.487   1.221  28.934  0.00  0.00    -0.222 F 
ENDROOT
BRANCH   3   9
ATOM      9  C   UNL A   1     -28.168   0.433  30.571  0.00  0.00    +0.433 C 
ATOM     10  F   UNL A   1     -29.117   0.835  30.657  0.00  0.00    -0.167 F 
ATOM     11  F   UNL A   1     -27.675   0.247  31.770  0.00  0.00    -0.167 F 
ATOM     12  F   UNL A   1     -28.532  -0.692  30.463  0.00  0.00    -0.167 F 
ENDBRANCH   3   9
BRANCH   7  13
ATOM     13  C   UNL A   1     -23.252   0.927  29.907  0.00  0.00    +0.366 C 
ATOM     14  O   UNL A   1     -23.221   1.845  30.610  0.00  0.00    -0.246 OA
ATOM     15  O   UNL A   1     -22.141   0.325  29.521  0.00  0.00    -0.246 OA
ENDBRANCH   7  13
TORSDOF 2
