REMARK  Name = No_1460-gen_results/8p0m/2024-11-26-14-13-15/
REMARK  4 active torsions:
REMARK  status: ('A' for Active; 'I' for Inactive)
REMARK    1  A    between atoms: C_2  and  C_8
REMARK    2  A    between atoms: C_3  and  C_15
REMARK    3  A    between atoms: C_15  and  C_16
REMARK    4  A    between atoms: C_16  and  C_17
REMARK                            x       y       z     vdW  Elec       q    Type
REMARK                         _______ _______ _______ _____ _____    ______ ____
ROOT
ATOM      1  C   UNL A   1     -28.016  -0.814  28.878  0.00  0.00    +0.188 C 
ATOM      2  C   UNL A   1     -27.064  -0.119  28.608  0.00  0.00    +0.103 C 
ATOM      3  C   UNL A   1     -27.001   0.691  27.491  0.00  0.00    -0.033 C 
ATOM      4  C   UNL A   1     -27.178   1.904  27.563  0.00  0.00    +0.001 C 
ATOM      5  C   UNL A   1     -29.311  -0.225  28.476  0.00  0.00    +0.080 C 
ATOM      6  C   UNL A   1     -28.765   2.121  27.848  0.00  0.00    +0.041 C 
ATOM      7  C   UNL A   1     -29.607   1.103  28.318  0.00  0.00    -0.098 C 
ATOM      8  O   UNL A   1     -28.057  -1.866  29.613  0.00  0.00    -0.290 OA
ENDROOT
BRANCH   2   9
ATOM      9  C   UNL A   1     -25.684  -0.711  29.057  0.00  0.00    -0.011 A 
ATOM     10  C   UNL A   1     -25.356  -0.518  30.340  0.00  0.00    -0.004 A 
ATOM     11  C   UNL A   1     -24.147  -0.994  30.851  0.00  0.00    -0.000 A 
ATOM     12  C   UNL A   1     -23.181  -1.074  30.074  0.00  0.00    -0.000 A 
ATOM     13  C   UNL A   1     -23.319  -1.028  28.644  0.00  0.00    -0.000 A 
ATOM     14  C   UNL A   1     -24.610  -0.793  28.127  0.00  0.00    -0.004 A 
ENDBRANCH   2   9
BRANCH   3  15
ATOM     15  C   UNL A   1     -26.440   0.230  26.203  0.00  0.00    +0.024 C 
BRANCH  15  16
ATOM     16  C   UNL A   1     -25.855   1.242  25.478  0.00  0.00    +0.015 C 
BRANCH  16  17
ATOM     17  C   UNL A   1     -24.667   1.625  25.850  0.00  0.00    +0.065 C 
ATOM     18  C   UNL A   1     -23.429   1.512  25.471  0.00  0.00    +0.000 C 
ATOM     19  C   UNL A   1     -22.317   2.187  26.116  0.00  0.00    +0.094 C 
ATOM     20  C   UNL A   1     -24.476   2.644  27.061  0.00  0.00    +0.076 C 
ATOM     21  N   UNL A   1     -23.124   2.811  27.131  0.00  0.00    -0.247 NA
ENDBRANCH  16  17
ENDBRANCH  15  16
ENDBRANCH   3  15
TORSDOF 4
