MODEL 1460
MODEL 1
REMARK VINA RESULT:    -6.846      0.000      0.000
REMARK INTER + INTRA:          -9.841
REMARK INTER:                  -8.446
REMARK INTRA:                  -1.395
REMARK UNBOUND:                -1.395
REMARK  Name = No_1460-gen_results/8p0m/2024-11-26-14-13-15/
REMARK  4 active torsions:
REMARK  status: ('A' for Active; 'I' for Inactive)
REMARK    1  A    between atoms: C_2  and  C_8
REMARK    2  A    between atoms: C_3  and  C_15
REMARK    3  A    between atoms: C_15  and  C_16
REMARK    4  A    between atoms: C_16  and  C_17
REMARK                            x       y       z     vdW  Elec       q    Type
REMARK                         _______ _______ _______ _____ _____    ______ ____
ROOT
ATOM      1  C   UNL A   1     -23.429   1.917  28.254  0.00  0.00    +0.188 C 
ATOM      2  C   UNL A   1     -23.417   1.057  29.104  0.00  0.00    +0.103 C 
ATOM      3  C   UNL A   1     -22.949  -0.224  28.889  0.00  0.00    -0.033 C 
ATOM      4  C   UNL A   1     -21.842  -0.581  29.283  0.00  0.00    +0.001 C 
ATOM      5  C   UNL A   1     -22.295   1.831  27.310  0.00  0.00    +0.080 C 
ATOM      6  C   UNL A   1     -20.753   0.166  28.332  0.00  0.00    +0.041 C 
ATOM      7  C   UNL A   1     -21.062   1.281  27.540  0.00  0.00    -0.098 C 
ATOM      8  O   UNL A   1     -24.166   2.967  28.187  0.00  0.00    -0.290 OA
ENDROOT
BRANCH   2   9
ATOM      9  C   UNL A   1     -24.594   1.152  30.136  0.00  0.00    -0.011 A 
ATOM     10  C   UNL A   1     -24.251   1.032  31.424  0.00  0.00    -0.004 A 
ATOM     11  C   UNL A   1     -25.216   1.092  32.431  0.00  0.00    -0.000 A 
ATOM     12  C   UNL A   1     -26.363   0.699  32.159  0.00  0.00    -0.000 A 
ATOM     13  C   UNL A   1     -26.828   0.508  30.813  0.00  0.00    -0.000 A 
ATOM     14  C   UNL A   1     -25.893   0.699  29.774  0.00  0.00    -0.004 A 
ENDBRANCH   2   9
BRANCH   3  15
ATOM     15  C   UNL A   1     -23.825  -1.329  28.445  0.00  0.00    +0.024 C 
BRANCH  15  16
ATOM     16  C   UNL A   1     -23.602  -2.501  29.130  0.00  0.00    +0.015 C 
BRANCH  16  17
ATOM     17  C   UNL A   1     -24.645  -3.230  29.409  0.00  0.00    +0.065 C 
ATOM     18  C   UNL A   1     -25.868  -3.086  29.824  0.00  0.00    +0.000 C 
ATOM     19  C   UNL A   1     -26.821  -4.176  29.939  0.00  0.00    +0.094 C 
ATOM     20  C   UNL A   1     -24.655  -4.796  29.111  0.00  0.00    +0.076 C 
ATOM     21  N   UNL A   1     -25.896  -5.193  29.513  0.00  0.00    -0.247 NA
ENDBRANCH  16  17
ENDBRANCH  15  16
ENDBRANCH   3  15
TORSDOF 4
ENDMDL
ENDMDL
