REMARK  Name = No_1461-gen_results/8p0m/2024-11-26-14-13-15/
REMARK  14 active torsions:
REMARK  status: ('A' for Active; 'I' for Inactive)
REMARK    1  A    between atoms: C_2  and  C_14
REMARK    2  A    between atoms: C_4  and  C_5
REMARK    3  A    between atoms: C_5  and  C_8
REMARK    4  A    between atoms: C_6  and  O_9
REMARK    5  A    between atoms: C_8  and  C_17
REMARK    6  A    between atoms: O_9  and  C_10
REMARK    7  A    between atoms: C_10  and  C_11
REMARK    8  A    between atoms: C_17  and  C_18
REMARK    9  A    between atoms: C_19  and  C_20
REMARK   10  A    between atoms: C_21  and  C_22
REMARK   11  A    between atoms: C_22  and  C_23
REMARK   12  A    between atoms: C_23  and  C_24
REMARK   13  A    between atoms: C_24  and  C_25
REMARK   14  A    between atoms: C_28  and  C_33
REMARK                            x       y       z     vdW  Elec       q    Type
REMARK                         _______ _______ _______ _____ _____    ______ ____
ROOT
ATOM      1  C   UNL A   1     -22.792   0.237  28.747  0.00  0.00    -0.026 C 
ATOM      2  C   UNL A   1     -21.921   1.292  28.181  0.00  0.00    -0.004 C 
ENDROOT
BRANCH   2   3
ATOM      3  C   UNL A   1     -22.455   2.483  27.644  0.00  0.00    +0.003 C 
ATOM      4  C   UNL A   1     -23.915   2.627  27.576  0.00  0.00    +0.039 C 
BRANCH   4   5
ATOM      5  C   UNL A   1     -24.292   3.846  27.013  0.00  0.00    +0.188 C 
ATOM      6  O   UNL A   1     -23.653   3.760  25.700  0.00  0.00    -0.290 OA
BRANCH   5   7
ATOM      7  C   UNL A   1     -24.935   4.802  26.937  0.00  0.00    +0.146 C 
ATOM      8 CL   UNL A   1     -25.498   4.197  27.799  0.00  0.00    -0.106 Cl
BRANCH   7   9
ATOM      9  C   UNL A   1     -25.753   5.953  26.883  0.00  0.00    +0.051 C 
BRANCH   9  10
ATOM     10  C   UNL A   1     -25.050   7.175  27.081  0.00  0.00    -0.021 A 
ATOM     11  C   UNL A   1     -25.844   8.315  27.221  0.00  0.00    -0.004 A 
ATOM     12  C   UNL A   1     -25.373   9.452  27.700  0.00  0.00    -0.005 A 
ATOM     13  C   UNL A   1     -24.041   9.468  28.273  0.00  0.00    -0.022 A 
ATOM     14  C   UNL A   1     -23.229   8.316  28.122  0.00  0.00    -0.005 A 
ATOM     15  C   UNL A   1     -23.777   7.237  27.652  0.00  0.00    -0.004 A 
BRANCH  13  16
ATOM     16  C   UNL A   1     -23.445  10.711  28.850  0.00  0.00    +0.022 C 
ATOM     17  C   UNL A   1     -22.182  10.712  29.302  0.00  0.00    +0.005 C 
ATOM     18  C   UNL A   1     -24.261  11.877  28.960  0.00  0.00    +0.005 C 
ENDBRANCH  13  16
ENDBRANCH   9  10
ENDBRANCH   7   9
ENDBRANCH   5   7
ENDBRANCH   4   5
ENDBRANCH   2   3
BRANCH   1  19
ATOM     19  C   UNL A   1     -22.383  -0.859  29.292  0.00  0.00    +0.026 C 
BRANCH  19  20
ATOM     20  C   UNL A   1     -23.281  -2.039  29.481  0.00  0.00    +0.009 C 
BRANCH  20  21
ATOM     21  C   UNL A   1     -24.324  -1.908  30.432  0.00  0.00    +0.027 C 
BRANCH  21  25
ATOM     22  C   UNL A   1     -28.016  -0.814  28.878  0.00  0.00    +0.043 A 
ATOM     23  C   UNL A   1     -27.064  -0.119  28.608  0.00  0.00    +0.083 A 
ATOM     24  C   UNL A   1     -25.765  -0.390  29.036  0.00  0.00    +0.003 A 
ATOM     25  C   UNL A   1     -25.530  -1.530  29.901  0.00  0.00    -0.019 A 
ATOM     26  C   UNL A   1     -27.927  -1.923  29.790  0.00  0.00    +0.139 A 
ATOM     27  C   UNL A   1     -26.691  -2.281  30.295  0.00  0.00    +0.033 A 
BRANCH  23  28
ATOM     28  C   UNL A   1     -27.139   1.016  27.627  0.00  0.00    +0.388 C 
ATOM     29  O   UNL A   1     -26.399   1.224  26.754  0.00  0.00    -0.241 OA
ATOM     30  O   UNL A   1     -28.180   1.757  27.783  0.00  0.00    -0.241 OA
ENDBRANCH  23  28
BRANCH  26  31
ATOM     31  O   UNL A   1     -29.005  -2.657  30.199  0.00  0.00    -0.464 OA
BRANCH  31  32
ATOM     32  C   UNL A   1     -28.907  -3.939  30.600  0.00  0.00    +0.319 C 
BRANCH  32  33
ATOM     33  C   UNL A   1     -30.115  -4.409  31.330  0.00  0.00    +0.408 C 
ATOM     34  O   UNL A   1     -30.011  -5.531  31.586  0.00  0.00    -0.241 OA
ATOM     35  O   UNL A   1     -31.040  -3.734  31.559  0.00  0.00    -0.241 OA
ENDBRANCH  32  33
ENDBRANCH  31  32
ENDBRANCH  26  31
ENDBRANCH  21  25
ENDBRANCH  20  21
ENDBRANCH  19  20
ENDBRANCH   1  19
TORSDOF 14
