MODEL 1461
MODEL 1
REMARK VINA RESULT:    -7.702      0.000      0.000
REMARK INTER + INTRA:         -15.435
REMARK INTER:                 -14.005
REMARK INTRA:                  -1.430
REMARK UNBOUND:                -1.430
REMARK  Name = No_1461-gen_results/8p0m/2024-11-26-14-13-15/
REMARK  14 active torsions:
REMARK  status: ('A' for Active; 'I' for Inactive)
REMARK    1  A    between atoms: C_2  and  C_14
REMARK    2  A    between atoms: C_4  and  C_5
REMARK    3  A    between atoms: C_5  and  C_8
REMARK    4  A    between atoms: C_6  and  O_9
REMARK    5  A    between atoms: C_8  and  C_17
REMARK    6  A    between atoms: O_9  and  C_10
REMARK    7  A    between atoms: C_10  and  C_11
REMARK    8  A    between atoms: C_17  and  C_18
REMARK    9  A    between atoms: C_19  and  C_20
REMARK   10  A    between atoms: C_21  and  C_22
REMARK   11  A    between atoms: C_22  and  C_23
REMARK   12  A    between atoms: C_23  and  C_24
REMARK   13  A    between atoms: C_24  and  C_25
REMARK   14  A    between atoms: C_28  and  C_33
REMARK                            x       y       z     vdW  Elec       q    Type
REMARK                         _______ _______ _______ _____ _____    ______ ____
ROOT
ATOM      1  C   UNL A   1     -30.585  -6.177  31.360  0.00  0.00    -0.026 C 
ATOM      2  C   UNL A   1     -30.471  -5.617  29.994  0.00  0.00    -0.004 C 
ENDROOT
BRANCH   2   3
ATOM      3  C   UNL A   1     -29.347  -4.861  29.597  0.00  0.00    +0.003 C 
ATOM      4  C   UNL A   1     -28.197  -4.784  30.508  0.00  0.00    +0.039 C 
BRANCH   4   5
ATOM      5  C   UNL A   1     -27.172  -3.995  29.986  0.00  0.00    +0.188 C 
ATOM      6  O   UNL A   1     -27.733  -2.655  30.155  0.00  0.00    -0.290 OA
BRANCH   5   7
ATOM      7  C   UNL A   1     -26.089  -3.792  29.642  0.00  0.00    +0.146 C 
ATOM      8 CL   UNL A   1     -26.310  -2.839  30.328  0.00  0.00    -0.106 Cl
BRANCH   7   9
ATOM      9  C   UNL A   1     -24.764  -3.497  29.249  0.00  0.00    +0.051 C 
BRANCH   9  10
ATOM     10  C   UNL A   1     -24.520  -2.114  29.018  0.00  0.00    -0.021 A 
ATOM     11  C   UNL A   1     -23.337  -1.608  29.561  0.00  0.00    -0.004 A 
ATOM     12  C   UNL A   1     -22.827  -0.448  29.190  0.00  0.00    -0.005 A 
ATOM     13  C   UNL A   1     -23.409   0.238  28.052  0.00  0.00    -0.022 A 
ATOM     14  C   UNL A   1     -24.616  -0.267  27.507  0.00  0.00    -0.005 A 
ATOM     15  C   UNL A   1     -25.040  -1.422  27.922  0.00  0.00    -0.004 A 
BRANCH  13  16
ATOM     16  C   UNL A   1     -22.878   1.545  27.562  0.00  0.00    +0.022 C 
ATOM     17  C   UNL A   1     -23.717   2.535  27.223  0.00  0.00    +0.005 C 
ATOM     18  C   UNL A   1     -21.467   1.700  27.412  0.00  0.00    +0.005 C 
ENDBRANCH  13  16
ENDBRANCH   9  10
ENDBRANCH   7   9
ENDBRANCH   5   7
ENDBRANCH   4   5
ENDBRANCH   2   3
BRANCH   1  19
ATOM     19  C   UNL A   1     -31.557  -6.910  31.789  0.00  0.00    +0.026 C 
BRANCH  19  20
ATOM     20  C   UNL A   1     -31.520  -8.403  31.720  0.00  0.00    +0.009 C 
BRANCH  20  21
ATOM     21  C   UNL A   1     -31.715  -8.993  30.445  0.00  0.00    +0.027 C 
BRANCH  21  25
ATOM     22  C   UNL A   1     -28.744 -11.706  29.418  0.00  0.00    +0.043 A 
ATOM     23  C   UNL A   1     -29.536 -11.388  28.561  0.00  0.00    +0.083 A 
ATOM     24  C   UNL A   1     -30.560 -10.464  28.762  0.00  0.00    +0.003 A 
ATOM     25  C   UNL A   1     -30.739  -9.884  30.079  0.00  0.00    -0.019 A 
ATOM     26  C   UNL A   1     -28.864 -11.263  30.781  0.00  0.00    +0.139 A 
ATOM     27  C   UNL A   1     -29.853 -10.355  31.109  0.00  0.00    +0.033 A 
BRANCH  23  28
ATOM     28  C   UNL A   1     -29.396 -11.813  27.127  0.00  0.00    +0.388 C 
ATOM     29  O   UNL A   1     -28.810 -12.739  26.736  0.00  0.00    -0.241 OA
ATOM     30  O   UNL A   1     -30.064 -11.077  26.309  0.00  0.00    -0.241 OA
ENDBRANCH  23  28
BRANCH  26  31
ATOM     31  O   UNL A   1     -28.050 -11.692  31.792  0.00  0.00    -0.464 OA
BRANCH  31  32
ATOM     32  C   UNL A   1     -28.370 -11.561  33.094  0.00  0.00    +0.319 C 
BRANCH  32  33
ATOM     33  C   UNL A   1     -27.194 -11.700  33.994  0.00  0.00    +0.408 C 
ATOM     34  O   UNL A   1     -26.732 -12.753  33.881  0.00  0.00    -0.241 OA
ATOM     35  O   UNL A   1     -26.838 -10.867  34.731  0.00  0.00    -0.241 OA
ENDBRANCH  32  33
ENDBRANCH  31  32
ENDBRANCH  26  31
ENDBRANCH  21  25
ENDBRANCH  20  21
ENDBRANCH  19  20
ENDBRANCH   1  19
TORSDOF 14
ENDMDL
ENDMDL
