MODEL 1462
MODEL 1
REMARK VINA RESULT:    -4.893      0.000      0.000
REMARK INTER + INTRA:          -5.266
REMARK INTER:                  -5.179
REMARK INTRA:                  -0.087
REMARK UNBOUND:                -0.087
REMARK  Name = No_1462-gen_results/8p0m/2024-11-26-14-13-15/
REMARK  1 active torsions:
REMARK  status: ('A' for Active; 'I' for Inactive)
REMARK    1  A    between atoms: C_1  and  C_3
REMARK                            x       y       z     vdW  Elec       q    Type
REMARK                         _______ _______ _______ _____ _____    ______ ____
ROOT
ATOM      1  C   UNL A   1      -8.225  -9.644  19.826  0.00  0.00    +0.043 A 
ATOM      2  C   UNL A   1      -9.390  -9.151  19.929  0.00  0.00    +0.008 A 
ATOM      3  C   UNL A   1     -10.369  -9.437  19.151  0.00  0.00    +0.001 A 
ATOM      4  C   UNL A   1     -10.341 -10.167  17.963  0.00  0.00    +0.000 A 
ATOM      5  C   UNL A   1      -9.095 -10.737  17.741  0.00  0.00    +0.001 A 
ATOM      6  C   UNL A   1      -8.103 -10.559  18.657  0.00  0.00    +0.008 A 
ENDROOT
BRANCH   1   7
ATOM      7  C   UNL A   1      -7.121  -9.854  20.688  0.00  0.00    -0.051 C 
ATOM      8  C   UNL A   1      -6.819 -10.289  21.599  0.00  0.00    -0.009 C 
ENDBRANCH   1   7
TORSDOF 1
ENDMDL
ENDMDL
