REMARK  Name = No_1462-gen_results/8p0m/2024-11-26-14-13-15/
REMARK  1 active torsions:
REMARK  status: ('A' for Active; 'I' for Inactive)
REMARK    1  A    between atoms: C_1  and  C_3
REMARK                            x       y       z     vdW  Elec       q    Type
REMARK                         _______ _______ _______ _____ _____    ______ ____
ROOT
ATOM      1  C   UNL A   1     -27.217  -0.083  27.964  0.00  0.00    +0.043 A 
ATOM      2  C   UNL A   1     -26.509  -0.350  26.946  0.00  0.00    +0.008 A 
ATOM      3  C   UNL A   1     -25.543   0.381  26.523  0.00  0.00    +0.001 A 
ATOM      4  C   UNL A   1     -25.185   1.662  26.942  0.00  0.00    +0.000 A 
ATOM      5  C   UNL A   1     -25.921   2.064  28.048  0.00  0.00    +0.001 A 
ATOM      6  C   UNL A   1     -26.836   1.214  28.590  0.00  0.00    +0.008 A 
ENDROOT
BRANCH   1   7
ATOM      7  C   UNL A   1     -28.016  -0.814  28.878  0.00  0.00    -0.051 C 
ATOM      8  C   UNL A   1     -28.469  -0.785  29.829  0.00  0.00    -0.009 C 
ENDBRANCH   1   7
TORSDOF 1
