MODEL 1463
MODEL 1
REMARK VINA RESULT:    -6.537      0.000      0.000
REMARK INTER + INTRA:          -7.237
REMARK INTER:                  -6.919
REMARK INTRA:                  -0.318
REMARK UNBOUND:                -0.318
REMARK  Name = No_1463-gen_results/8p0m/2024-11-26-14-13-15/
REMARK  1 active torsions:
REMARK  status: ('A' for Active; 'I' for Inactive)
REMARK    1  A    between atoms: C_3  and  C_4
REMARK                            x       y       z     vdW  Elec       q    Type
REMARK                         _______ _______ _______ _____ _____    ______ ____
ROOT
ATOM      1  C   UNL A   1     -24.666  -4.878  28.901  0.00  0.00    +0.000 A 
ATOM      2  C   UNL A   1     -24.142  -3.813  28.670  0.00  0.00    +0.000 A 
ATOM      3  C   UNL A   1     -24.599  -2.623  28.935  0.00  0.00    +0.000 A 
ATOM      4  C   UNL A   1     -25.956  -4.884  29.619  0.00  0.00    +0.000 A 
ATOM      5  C   UNL A   1     -26.547  -3.702  29.901  0.00  0.00    +0.000 A 
ATOM      6  C   UNL A   1     -25.864  -2.451  29.601  0.00  0.00    +0.000 A 
ENDROOT
BRANCH   3   7
ATOM      7  C   UNL A   1     -23.920  -1.336  28.640  0.00  0.00    +0.000 A 
ATOM      8  C   UNL A   1     -24.426  -0.317  27.823  0.00  0.00    +0.000 A 
ATOM      9  C   UNL A   1     -22.576  -1.152  29.154  0.00  0.00    +0.000 A 
ATOM     10  C   UNL A   1     -21.824  -0.021  28.860  0.00  0.00    +0.000 A 
ATOM     11  C   UNL A   1     -23.577   0.779  27.379  0.00  0.00    +0.000 A 
ATOM     12  C   UNL A   1     -22.317   0.945  27.987  0.00  0.00    +0.000 A 
ENDBRANCH   3   7
TORSDOF 1
ENDMDL
ENDMDL
