MODEL 1464
MODEL 1
REMARK VINA RESULT:    -4.188      0.000      0.000
REMARK INTER + INTRA:          -4.188
REMARK INTER:                  -4.188
REMARK INTRA:                   0.000
REMARK UNBOUND:                 0.000
REMARK  Name = No_1464-gen_results/8p0m/2024-11-26-14-13-15/
REMARK  0 active torsions:
REMARK  status: ('A' for Active; 'I' for Inactive)
REMARK                            x       y       z     vdW  Elec       q    Type
REMARK                         _______ _______ _______ _____ _____    ______ ____
ROOT
ATOM      1  C   UNL A   1     -26.174  -4.805  29.661  0.00  0.00    +0.000 A 
ATOM      2  C   UNL A   1     -26.265  -3.758  29.740  0.00  0.00    +0.000 A 
ATOM      3  C   UNL A   1     -24.981  -5.313  28.966  0.00  0.00    +0.000 A 
ATOM      4  C   UNL A   1     -23.946  -4.422  28.557  0.00  0.00    +0.000 A 
ATOM      5  C   UNL A   1     -25.328  -2.637  29.457  0.00  0.00    +0.000 A 
ATOM      6  C   UNL A   1     -24.212  -3.068  28.803  0.00  0.00    +0.000 A 
ENDROOT
TORSDOF 0
ENDMDL
ENDMDL
