REMARK  Name = No_1465-gen_results/8p0m/2024-11-26-14-13-15/
REMARK  2 active torsions:
REMARK  status: ('A' for Active; 'I' for Inactive)
REMARK    1  A    between atoms: C_1  and  C_2
REMARK    2  A    between atoms: C_1  and  N_8
REMARK                            x       y       z     vdW  Elec       q    Type
REMARK                         _______ _______ _______ _____ _____    ______ ____
ROOT
ATOM      1  C   UNL A   1     -27.064  -0.119  28.608  0.00  0.00    +0.002 A 
ATOM      2  C   UNL A   1     -26.876   1.133  28.913  0.00  0.00    -0.003 A 
ATOM      3  C   UNL A   1     -25.688   1.952  28.567  0.00  0.00    -0.004 A 
ATOM      4  C   UNL A   1     -24.639   1.283  27.875  0.00  0.00    -0.022 A 
ATOM      5  C   UNL A   1     -24.807  -0.051  27.604  0.00  0.00    -0.004 A 
ATOM      6  C   UNL A   1     -25.902  -0.767  27.951  0.00  0.00    -0.003 A 
ATOM      7  C   UNL A   1     -23.443   1.974  27.498  0.00  0.00    +0.031 C 
ENDROOT
BRANCH   1   8
ATOM      8  C   UNL A   1     -28.016  -0.814  28.878  0.00  0.00    +0.151 C 
BRANCH   8   9
ATOM      9  N   UNL A   1     -29.147  -0.219  28.976  0.00  0.00    -0.269 NA
ATOM     10  C   UNL A   1     -30.077  -0.620  29.837  0.00  0.00    +0.068 C 
ATOM     11  C   UNL A   1     -29.945  -1.916  30.417  0.00  0.00    +0.053 C 
ENDBRANCH   8   9
ENDBRANCH   1   8
TORSDOF 2
