MODEL 1465
MODEL 1
REMARK VINA RESULT:    -5.195      0.000      0.000
REMARK INTER + INTRA:          -6.034
REMARK INTER:                  -5.802
REMARK INTRA:                  -0.232
REMARK UNBOUND:                -0.232
REMARK  Name = No_1465-gen_results/8p0m/2024-11-26-14-13-15/
REMARK  2 active torsions:
REMARK  status: ('A' for Active; 'I' for Inactive)
REMARK    1  A    between atoms: C_1  and  C_2
REMARK    2  A    between atoms: C_1  and  N_8
REMARK                            x       y       z     vdW  Elec       q    Type
REMARK                         _______ _______ _______ _____ _____    ______ ____
ROOT
ATOM      1  C   UNL A   1     -23.854  -1.810  28.965  0.00  0.00    +0.002 A 
ATOM      2  C   UNL A   1     -24.593  -1.086  28.174  0.00  0.00    -0.003 A 
ATOM      3  C   UNL A   1     -24.203   0.198  27.540  0.00  0.00    -0.004 A 
ATOM      4  C   UNL A   1     -22.912   0.699  27.870  0.00  0.00    -0.022 A 
ATOM      5  C   UNL A   1     -22.153  -0.031  28.749  0.00  0.00    -0.004 A 
ATOM      6  C   UNL A   1     -22.553  -1.192  29.319  0.00  0.00    -0.003 A 
ATOM      7  C   UNL A   1     -22.435   1.933  27.321  0.00  0.00    +0.031 C 
ENDROOT
BRANCH   1   8
ATOM      8  C   UNL A   1     -24.143  -2.855  29.500  0.00  0.00    +0.151 C 
BRANCH   8   9
ATOM      9  N   UNL A   1     -25.392  -3.139  29.559  0.00  0.00    -0.269 NA
ATOM     10  C   UNL A   1     -25.828  -4.394  29.504  0.00  0.00    +0.068 C 
ATOM     11  C   UNL A   1     -24.929  -5.400  29.043  0.00  0.00    +0.053 C 
ENDBRANCH   8   9
ENDBRANCH   1   8
TORSDOF 2
ENDMDL
ENDMDL
