MODEL 1466
MODEL 1
REMARK VINA RESULT:    -5.420      0.000      0.000
REMARK INTER + INTRA:          -5.420
REMARK INTER:                  -5.420
REMARK INTRA:                   0.000
REMARK UNBOUND:                 0.000
REMARK  Name = No_1466-gen_results/8p0m/2024-11-26-14-13-15/
REMARK  0 active torsions:
REMARK  status: ('A' for Active; 'I' for Inactive)
REMARK                            x       y       z     vdW  Elec       q    Type
REMARK                         _______ _______ _______ _____ _____    ______ ____
ROOT
ATOM      1  C   UNL A   1     -26.434  -3.876  29.860  0.00  0.00    +0.016 A 
ATOM      2  C   UNL A   1     -25.980  -4.914  29.437  0.00  0.00    +0.001 A 
ATOM      3  C   UNL A   1     -24.726  -5.025  28.870  0.00  0.00    +0.000 A 
ATOM      4  C   UNL A   1     -23.912  -3.858  28.817  0.00  0.00    +0.006 A 
ATOM      5  C   UNL A   1     -24.396  -2.766  29.454  0.00  0.00    +0.070 A 
ATOM      6  C   UNL A   1     -25.594  -2.763  30.007  0.00  0.00    +0.072 A 
ATOM      7  C   UNL A   1     -23.524  -1.573  29.415  0.00  0.00    +0.268 C 
ATOM      8  N   UNL A   1     -23.972  -0.556  29.878  0.00  0.00    -0.178 NA
ATOM      9  O   UNL A   1     -22.385  -1.606  28.848  0.00  0.00    -0.268 OA
ATOM     10  C   UNL A   1     -25.209  -0.347  30.527  0.00  0.00    +0.227 C 
ATOM     11  N   UNL A   1     -26.035  -1.520  30.549  0.00  0.00    -0.214 NA
ENDROOT
TORSDOF 0
ENDMDL
ENDMDL
