REMARK  Name = No_1466-gen_results/8p0m/2024-11-26-14-13-15/
REMARK  0 active torsions:
REMARK  status: ('A' for Active; 'I' for Inactive)
REMARK                            x       y       z     vdW  Elec       q    Type
REMARK                         _______ _______ _______ _____ _____    ______ ____
ROOT
ATOM      1  C   UNL A   1     -28.016  -0.814  28.878  0.00  0.00    +0.016 A 
ATOM      2  C   UNL A   1     -27.064  -0.119  28.608  0.00  0.00    +0.001 A 
ATOM      3  C   UNL A   1     -27.001   0.691  27.491  0.00  0.00    +0.000 A 
ATOM      4  C   UNL A   1     -28.137   0.736  26.635  0.00  0.00    +0.006 A 
ATOM      5  C   UNL A   1     -29.236   0.076  27.069  0.00  0.00    +0.070 A 
ATOM      6  C   UNL A   1     -29.218  -0.643  28.175  0.00  0.00    +0.072 A 
ATOM      7  C   UNL A   1     -30.415   0.159  26.182  0.00  0.00    +0.268 C 
ATOM      8  N   UNL A   1     -31.373  -0.505  26.485  0.00  0.00    -0.178 NA
ATOM      9  O   UNL A   1     -30.387   0.841  25.108  0.00  0.00    -0.268 OA
ATOM     10  C   UNL A   1     -31.563  -1.318  27.625  0.00  0.00    +0.227 C 
ATOM     11  N   UNL A   1     -30.403  -1.381  28.467  0.00  0.00    -0.214 NA
ENDROOT
TORSDOF 0
