MODEL 1467
MODEL 1
REMARK VINA RESULT:    -4.326      0.000      0.000
REMARK INTER + INTRA:          -4.326
REMARK INTER:                  -4.326
REMARK INTRA:                   0.000
REMARK UNBOUND:                 0.000
REMARK  Name = No_1467-gen_results/8p0m/2024-11-26-14-13-15/
REMARK  0 active torsions:
REMARK  status: ('A' for Active; 'I' for Inactive)
REMARK                            x       y       z     vdW  Elec       q    Type
REMARK                         _______ _______ _______ _____ _____    ______ ____
ROOT
ATOM      1  C   UNL A   1     -24.204  -4.878  28.642  0.00  0.00    +0.000 A 
ATOM      2  C   UNL A   1     -25.064  -5.281  29.100  0.00  0.00    +0.000 A 
ATOM      3  C   UNL A   1     -24.095  -3.420  28.785  0.00  0.00    +0.000 A 
ATOM      4  C   UNL A   1     -25.082  -2.673  29.282  0.00  0.00    +0.000 A 
ATOM      5  C   UNL A   1     -26.251  -4.688  29.666  0.00  0.00    +0.000 A 
ATOM      6  C   UNL A   1     -26.141  -3.333  29.767  0.00  0.00    +0.000 A 
ENDROOT
TORSDOF 0
ENDMDL
ENDMDL
