MODEL 1468
MODEL 1
REMARK VINA RESULT:    -6.295      0.000      0.000
REMARK INTER + INTRA:          -8.914
REMARK INTER:                  -8.135
REMARK INTRA:                  -0.779
REMARK UNBOUND:                -0.779
REMARK  Name = No_1468-gen_results/8p0m/2024-11-26-14-13-15/
REMARK  5 active torsions:
REMARK  status: ('A' for Active; 'I' for Inactive)
REMARK    1  A    between atoms: C_3  and  C_16
REMARK    2  A    between atoms: C_4  and  C_8
REMARK    3  A    between atoms: C_8  and  C_9
REMARK    4  A    between atoms: C_9  and  C_10
REMARK    5  A    between atoms: C_10  and  N_11
REMARK                            x       y       z     vdW  Elec       q    Type
REMARK                         _______ _______ _______ _____ _____    ______ ____
ROOT
ATOM      1  C   UNL A   1     -26.044  -4.718  29.557  0.00  0.00    +0.026 A 
ATOM      2  C   UNL A   1     -25.117  -4.957  29.117  0.00  0.00    +0.140 A 
ATOM      3  C   UNL A   1     -26.245  -3.257  29.896  0.00  0.00    -0.007 A 
ATOM      4  C   UNL A   1     -25.279  -2.314  29.488  0.00  0.00    -0.017 A 
ATOM      5  C   UNL A   1     -23.981  -4.182  28.569  0.00  0.00    +0.029 A 
ATOM      6  C   UNL A   1     -24.133  -2.833  28.856  0.00  0.00    -0.002 A 
ATOM      7  F   UNL A   1     -24.935  -6.358  28.781  0.00  0.00    -0.204 F 
ENDROOT
BRANCH   3   8
ATOM      8  C   UNL A   1     -27.459  -2.753  30.594  0.00  0.00    +0.121 C 
ATOM      9 CL   UNL A   1     -28.643  -3.814  31.125  0.00  0.00    -0.108 Cl
ENDBRANCH   3   8
BRANCH   4  10
ATOM     10  C   UNL A   1     -25.426  -0.926  29.808  0.00  0.00    +0.100 C 
BRANCH  10  11
ATOM     11  C   UNL A   1     -24.576  -0.454  30.925  0.00  0.00    +0.232 C 
ATOM     12  O   UNL A   1     -24.977  -0.629  32.203  0.00  0.00    -0.286 OA
BRANCH  11  13
ATOM     13  C   UNL A   1     -23.497   0.393  30.676  0.00  0.00    +0.307 C 
ATOM     14  O   UNL A   1     -23.649   1.593  31.039  0.00  0.00    -0.265 OA
BRANCH  13  15
ATOM     15  N   UNL A   1     -22.306  -0.077  30.274  0.00  0.00    -0.129 NA
ATOM     16  C   UNL A   1     -22.008   0.027  28.931  0.00  0.00    +0.307 C 
ATOM     17  N   UNL A   1     -20.771  -0.145  28.530  0.00  0.00    -0.079 NA
ATOM     18  F   UNL A   1     -22.710   0.348  28.020  0.00  0.00    -0.165 F 
ENDBRANCH  13  15
ENDBRANCH  11  13
ENDBRANCH  10  11
ENDBRANCH   4  10
TORSDOF 5
ENDMDL
ENDMDL
