REMARK  Name = No_1468-gen_results/8p0m/2024-11-26-14-13-15/
REMARK  5 active torsions:
REMARK  status: ('A' for Active; 'I' for Inactive)
REMARK    1  A    between atoms: C_3  and  C_16
REMARK    2  A    between atoms: C_4  and  C_8
REMARK    3  A    between atoms: C_8  and  C_9
REMARK    4  A    between atoms: C_9  and  C_10
REMARK    5  A    between atoms: C_10  and  N_11
REMARK                            x       y       z     vdW  Elec       q    Type
REMARK                         _______ _______ _______ _____ _____    ______ ____
ROOT
ATOM      1  C   UNL A   1     -28.016  -0.814  28.878  0.00  0.00    +0.026 A 
ATOM      2  C   UNL A   1     -28.469  -0.785  29.829  0.00  0.00    +0.140 A 
ATOM      3  C   UNL A   1     -26.504  -0.778  28.877  0.00  0.00    -0.007 A 
ATOM      4  C   UNL A   1     -25.810  -0.853  30.103  0.00  0.00    -0.017 A 
ATOM      5  C   UNL A   1     -27.991  -0.892  31.226  0.00  0.00    +0.029 A 
ATOM      6  C   UNL A   1     -26.604  -0.868  31.265  0.00  0.00    -0.002 A 
ATOM      7  F   UNL A   1     -29.920  -0.833  29.824  0.00  0.00    -0.204 F 
ENDROOT
BRANCH   3   8
ATOM      8  C   UNL A   1     -25.701  -0.730  27.625  0.00  0.00    +0.121 C 
ATOM      9 CL   UNL A   1     -26.110   0.323  26.386  0.00  0.00    -0.108 Cl
ENDBRANCH   3   8
BRANCH   4  10
ATOM     10  C   UNL A   1     -24.380  -0.802  30.142  0.00  0.00    +0.100 C 
BRANCH  10  11
ATOM     11  C   UNL A   1     -23.808   0.564  30.148  0.00  0.00    +0.232 C 
ATOM     12  O   UNL A   1     -24.023   1.385  31.199  0.00  0.00    -0.286 OA
BRANCH  11  13
ATOM     13  C   UNL A   1     -23.271   1.104  28.980  0.00  0.00    +0.307 C 
ATOM     14  O   UNL A   1     -22.436   0.375  28.374  0.00  0.00    -0.265 OA
BRANCH  13  15
ATOM     15  N   UNL A   1     -23.762   2.224  28.426  0.00  0.00    -0.129 NA
ATOM     16  C   UNL A   1     -23.426   2.477  27.112  0.00  0.00    +0.307 C 
ATOM     17  N   UNL A   1     -24.093   3.383  26.439  0.00  0.00    -0.079 NA
ATOM     18  F   UNL A   1     -22.636   1.921  26.410  0.00  0.00    -0.165 F 
ENDBRANCH  13  15
ENDBRANCH  11  13
ENDBRANCH  10  11
ENDBRANCH   4  10
TORSDOF 5
