MODEL 1469
MODEL 1
REMARK VINA RESULT:    -8.183      0.000      0.000
REMARK INTER + INTRA:         -12.421
REMARK INTER:                 -11.053
REMARK INTRA:                  -1.368
REMARK UNBOUND:                -1.368
REMARK  Name = No_1469-gen_results/8p0m/2024-11-26-14-13-15/
REMARK  6 active torsions:
REMARK  status: ('A' for Active; 'I' for Inactive)
REMARK    1  A    between atoms: C_3  and  C_4
REMARK    2  A    between atoms: C_4  and  C_8
REMARK    3  A    between atoms: C_4  and  C_14
REMARK    4  A    between atoms: C_6  and  O_18
REMARK    5  A    between atoms: O_18  and  C_19
REMARK    6  A    between atoms: C_19  and  C_20
REMARK                            x       y       z     vdW  Elec       q    Type
REMARK                         _______ _______ _______ _____ _____    ______ ____
ROOT
ATOM      1  C   UNL A   1     -21.443  -0.235  28.980  0.00  0.00    -0.003 A 
ATOM      2  C   UNL A   1     -21.053   0.408  28.242  0.00  0.00    +0.003 A 
ATOM      3  C   UNL A   1     -22.826   0.067  29.347  0.00  0.00    -0.007 A 
ATOM      4  C   UNL A   1     -21.568   1.543  27.488  0.00  0.00    +0.037 A 
ATOM      5  C   UNL A   1     -22.868   1.867  27.816  0.00  0.00    +0.142 A 
ATOM      6  C   UNL A   1     -23.539   1.113  28.705  0.00  0.00    +0.034 A 
ENDROOT
BRANCH   3   7
ATOM      7  C   UNL A   1     -23.626  -0.755  30.282  0.00  0.00    +0.124 C 
BRANCH   7   8
ATOM      8  C   UNL A   1     -24.312  -1.751  29.833  0.00  0.00    -0.009 A 
ATOM      9  C   UNL A   1     -25.475  -2.261  30.447  0.00  0.00    -0.000 A 
ATOM     10  C   UNL A   1     -26.060  -3.489  29.889  0.00  0.00    +0.042 A 
ATOM     11  C   UNL A   1     -25.276  -4.343  29.123  0.00  0.00    +0.196 A 
ATOM     12  C   UNL A   1     -23.984  -3.993  28.718  0.00  0.00    +0.042 A 
ATOM     13  C   UNL A   1     -23.484  -2.711  29.065  0.00  0.00    -0.000 A 
ATOM     14  O   UNL A   1     -25.751  -5.567  28.825  0.00  0.00    -0.287 OA
ENDBRANCH   7   8
BRANCH   7  15
ATOM     15  C   UNL A   1     -23.341  -0.566  31.663  0.00  0.00    +0.269 C 
ATOM     16  N   UNL A   1     -22.759  -1.201  32.414  0.00  0.00    -0.087 NA
ATOM     17  O   UNL A   1     -24.161   0.293  32.310  0.00  0.00    -0.271 OA
ENDBRANCH   7  15
ENDBRANCH   3   7
BRANCH   5  18
ATOM     18  O   UNL A   1     -23.484   2.912  27.191  0.00  0.00    -0.446 OA
BRANCH  18  19
ATOM     19  C   UNL A   1     -23.886   2.896  25.962  0.00  0.00    +0.351 C 
ATOM     20  F   UNL A   1     -23.614   3.838  25.255  0.00  0.00    -0.183 F 
BRANCH  19  21
ATOM     21  C   UNL A   1     -24.800   2.039  25.673  0.00  0.00    +0.052 A 
ATOM     22  C   UNL A   1     -26.264   2.361  25.745  0.00  0.00    +0.002 A 
ATOM     23  C   UNL A   1     -27.247   1.381  25.440  0.00  0.00    -0.000 A 
ATOM     24  C   UNL A   1     -26.906   0.135  24.832  0.00  0.00    -0.000 A 
ATOM     25  C   UNL A   1     -25.574  -0.198  24.776  0.00  0.00    -0.000 A 
ATOM     26  C   UNL A   1     -24.629   0.661  25.160  0.00  0.00    +0.002 A 
ENDBRANCH  19  21
ENDBRANCH  18  19
ENDBRANCH   5  18
TORSDOF 6
ENDMDL
ENDMDL
