MODEL 146
MODEL 1
REMARK VINA RESULT:    -5.834      0.000      0.000
REMARK INTER + INTRA:          -6.818
REMARK INTER:                  -6.516
REMARK INTRA:                  -0.302
REMARK UNBOUND:                -0.302
REMARK  Name = No_146-gen_results/8p0m/2024-11-26-14-13-15/
REMARK  2 active torsions:
REMARK  status: ('A' for Active; 'I' for Inactive)
REMARK    1  A    between atoms: C_3  and  C_11
REMARK    2  A    between atoms: C_7  and  C_8
REMARK                            x       y       z     vdW  Elec       q    Type
REMARK                         _______ _______ _______ _____ _____    ______ ____
ROOT
ATOM      1  O   UNL A   1     -25.076   3.623  26.905  0.00  0.00    -0.270 OA
ATOM      2  C   UNL A   1     -24.332   2.788  27.433  0.00  0.00    +0.279 C 
ATOM      3  C   UNL A   1     -23.407   2.133  26.836  0.00  0.00    +0.289 C 
ATOM      4  N   UNL A   1     -24.589   2.318  28.784  0.00  0.00    -0.202 NA
ATOM      5  C   UNL A   1     -22.515   1.148  27.417  0.00  0.00    +0.064 C 
ATOM      6  C   UNL A   1     -23.801   1.395  29.467  0.00  0.00    +0.127 C 
ATOM      7  C   UNL A   1     -22.766   0.780  28.774  0.00  0.00    +0.128 C 
ATOM      8  F   UNL A   1     -24.292   1.212  26.062  0.00  0.00    -0.222 F 
ENDROOT
BRANCH   3   9
ATOM      9  C   UNL A   1     -23.027   2.549  25.450  0.00  0.00    +0.433 C 
ATOM     10  F   UNL A   1     -22.726   3.270  24.772  0.00  0.00    -0.167 F 
ATOM     11  F   UNL A   1     -23.431   1.490  24.794  0.00  0.00    -0.167 F 
ATOM     12  F   UNL A   1     -21.939   2.111  25.639  0.00  0.00    -0.167 F 
ENDBRANCH   3   9
BRANCH   7  13
ATOM     13  C   UNL A   1     -21.978  -0.212  29.466  0.00  0.00    +0.366 C 
ATOM     14  O   UNL A   1     -22.279  -0.512  30.542  0.00  0.00    -0.246 OA
ATOM     15  O   UNL A   1     -21.011  -0.844  28.826  0.00  0.00    -0.246 OA
ENDBRANCH   7  13
TORSDOF 2
ENDMDL
ENDMDL
