REMARK  Name = No_147-gen_results/8p0m/2024-11-26-14-13-15/
REMARK  8 active torsions:
REMARK  status: ('A' for Active; 'I' for Inactive)
REMARK    1  A    between atoms: C_3  and  C_4
REMARK    2  A    between atoms: C_7  and  C_13
REMARK    3  A    between atoms: C_13  and  O_15
REMARK    4  A    between atoms: O_15  and  C_16
REMARK    5  A    between atoms: C_16  and  C_17
REMARK    6  A    between atoms: C_17  and  C_18
REMARK    7  A    between atoms: C_18  and  C_19
REMARK    8  A    between atoms: C_18  and  C_25
REMARK                            x       y       z     vdW  Elec       q    Type
REMARK                         _______ _______ _______ _____ _____    ______ ____
ROOT
ATOM      1  C   UNL A   1     -28.978  -2.771  30.258  0.00  0.00    +0.341 C 
ATOM      2  O   UNL A   1     -28.906  -3.995  30.332  0.00  0.00    -0.245 OA
ENDROOT
BRANCH   1   6
ATOM      3  C   UNL A   1     -28.016  -0.814  28.878  0.00  0.00    +0.006 A 
ATOM      4  C   UNL A   1     -27.064  -0.119  28.608  0.00  0.00    +0.000 A 
ATOM      5  C   UNL A   1     -25.765  -0.390  29.036  0.00  0.00    +0.000 A 
ATOM      6  C   UNL A   1     -27.829  -1.929  29.855  0.00  0.00    +0.076 A 
ATOM      7  C   UNL A   1     -26.588  -2.327  30.268  0.00  0.00    +0.006 A 
ATOM      8  C   UNL A   1     -25.456  -1.543  29.915  0.00  0.00    +0.000 A 
BRANCH   5   9
ATOM      9  C   UNL A   1     -24.552   0.406  28.765  0.00  0.00    +0.000 A 
ATOM     10  C   UNL A   1     -23.230   0.118  29.258  0.00  0.00    +0.000 A 
ATOM     11  C   UNL A   1     -22.139   0.943  28.922  0.00  0.00    +0.000 A 
ATOM     12  C   UNL A   1     -22.230   1.909  27.872  0.00  0.00    +0.000 A 
ATOM     13  C   UNL A   1     -24.554   1.470  27.762  0.00  0.00    +0.000 A 
ATOM     14  C   UNL A   1     -23.447   2.167  27.376  0.00  0.00    +0.000 A 
ENDBRANCH   5   9
ENDBRANCH   1   6
BRANCH   1  15
ATOM     15  O   UNL A   1     -30.067  -2.211  30.611  0.00  0.00    -0.445 OA
BRANCH  15  16
ATOM     16  C   UNL A   1     -31.229  -2.919  30.871  0.00  0.00    +0.209 C 
BRANCH  16  17
ATOM     17  C   UNL A   1     -32.450  -2.252  30.569  0.00  0.00    +0.053 C 
BRANCH  17  18
ATOM     18  C   UNL A   1     -32.377  -0.893  30.529  0.00  0.00    +0.045 C 
BRANCH  18  19
ATOM     19  C   UNL A   1     -32.384  -0.222  31.707  0.00  0.00    -0.021 A 
ATOM     20  C   UNL A   1     -33.010  -0.397  32.690  0.00  0.00    -0.004 A 
ATOM     21  C   UNL A   1     -32.904   0.376  33.931  0.00  0.00    -0.000 A 
ATOM     22  C   UNL A   1     -31.979   1.413  33.926  0.00  0.00    -0.000 A 
ATOM     23  C   UNL A   1     -31.366   0.952  31.739  0.00  0.00    -0.004 A 
ATOM     24  C   UNL A   1     -31.213   1.699  32.859  0.00  0.00    -0.000 A 
ENDBRANCH  18  19
BRANCH  18  25
ATOM     25  C   UNL A   1     -32.440  -0.173  29.256  0.00  0.00    +0.114 C 
ATOM     26  N   UNL A   1     -32.016   0.905  29.067  0.00  0.00    -0.131 NA
ENDBRANCH  18  25
ENDBRANCH  17  18
ENDBRANCH  16  17
ENDBRANCH  15  16
ENDBRANCH   1  15
TORSDOF 8
