REMARK  Name = No_1470-gen_results/8p0m/2024-11-26-14-13-15/
REMARK  2 active torsions:
REMARK  status: ('A' for Active; 'I' for Inactive)
REMARK    1  A    between atoms: C_4  and  C_6
REMARK    2  A    between atoms: C_6  and  C_8
REMARK                            x       y       z     vdW  Elec       q    Type
REMARK                         _______ _______ _______ _____ _____    ______ ____
ROOT
ATOM      1  C   UNL A   1     -28.630   3.526  27.987  0.00  0.00    -0.018 A 
ATOM      2  C   UNL A   1     -27.771   4.181  27.823  0.00  0.00    -0.004 A 
ATOM      3  C   UNL A   1     -27.225   5.411  28.477  0.00  0.00    -0.000 A 
ATOM      4  C   UNL A   1     -27.867   5.740  29.633  0.00  0.00    -0.000 A 
ATOM      5  C   UNL A   1     -28.935   5.039  30.002  0.00  0.00    -0.000 A 
ATOM      6  C   UNL A   1     -29.195   3.982  29.422  0.00  0.00    -0.004 A 
ATOM      7  C   UNL A   1     -29.561   5.371  31.312  0.00  0.00    -0.000 A 
ATOM      8  C   UNL A   1     -30.634   4.728  31.737  0.00  0.00    -0.000 A 
ATOM      9  C   UNL A   1     -31.058   3.642  30.895  0.00  0.00    -0.000 A 
ATOM     10  C   UNL A   1     -30.412   3.265  29.811  0.00  0.00    -0.000 A 
ENDROOT
BRANCH   1  11
ATOM     11  C   UNL A   1     -29.224   2.492  27.543  0.00  0.00    +0.053 C 
BRANCH  11  15
ATOM     12  C   UNL A   1     -28.016  -0.814  28.878  0.00  0.00    +0.011 A 
ATOM     13  C   UNL A   1     -28.469  -0.785  29.829  0.00  0.00    -0.003 A 
ATOM     14  C   UNL A   1     -28.196   0.348  28.055  0.00  0.00    +0.054 A 
ATOM     15  C   UNL A   1     -29.019   1.350  28.378  0.00  0.00    -0.007 A 
ATOM     16  C   UNL A   1     -29.411   0.180  30.378  0.00  0.00    -0.022 A 
ATOM     17  C   UNL A   1     -29.587   1.224  29.619  0.00  0.00    -0.007 A 
ATOM     18 CL   UNL A   1     -27.372   0.341  26.518  0.00  0.00    -0.083 Cl
ATOM     19  C   UNL A   1     -30.028   0.031  31.763  0.00  0.00    +0.031 C 
ENDBRANCH  11  15
ENDBRANCH   1  11
TORSDOF 2
