MODEL 1470
MODEL 1
REMARK VINA RESULT:    -8.224      0.000      0.000
REMARK INTER + INTRA:          -9.848
REMARK INTER:                  -9.186
REMARK INTRA:                  -0.663
REMARK UNBOUND:                -0.663
REMARK  Name = No_1470-gen_results/8p0m/2024-11-26-14-13-15/
REMARK  2 active torsions:
REMARK  status: ('A' for Active; 'I' for Inactive)
REMARK    1  A    between atoms: C_4  and  C_6
REMARK    2  A    between atoms: C_6  and  C_8
REMARK                            x       y       z     vdW  Elec       q    Type
REMARK                         _______ _______ _______ _____ _____    ______ ____
ROOT
ATOM      1  C   UNL A   1     -24.989  -1.096  29.410  0.00  0.00    -0.018 A 
ATOM      2  C   UNL A   1     -25.868  -0.798  29.987  0.00  0.00    -0.004 A 
ATOM      3  C   UNL A   1     -27.079  -1.493  30.526  0.00  0.00    -0.000 A 
ATOM      4  C   UNL A   1     -27.034  -2.847  30.383  0.00  0.00    -0.000 A 
ATOM      5  C   UNL A   1     -26.023  -3.394  29.716  0.00  0.00    -0.000 A 
ATOM      6  C   UNL A   1     -25.042  -2.704  29.431  0.00  0.00    -0.004 A 
ATOM      7  C   UNL A   1     -25.961  -4.881  29.651  0.00  0.00    -0.000 A 
ATOM      8  C   UNL A   1     -24.994  -5.495  28.992  0.00  0.00    -0.000 A 
ATOM      9  C   UNL A   1     -23.983  -4.624  28.456  0.00  0.00    -0.000 A 
ATOM     10  C   UNL A   1     -23.972  -3.320  28.642  0.00  0.00    -0.000 A 
ENDROOT
BRANCH   1  11
ATOM     11  C   UNL A   1     -23.919  -0.657  28.882  0.00  0.00    +0.053 C 
BRANCH  11  15
ATOM     12  C   UNL A   1     -23.648   1.684  25.946  0.00  0.00    +0.011 A 
ATOM     13  C   UNL A   1     -24.423   1.292  25.349  0.00  0.00    -0.003 A 
ATOM     14  C   UNL A   1     -23.383   0.991  27.175  0.00  0.00    +0.054 A 
ATOM     15  C   UNL A   1     -24.162   0.011  27.641  0.00  0.00    -0.007 A 
ATOM     16  C   UNL A   1     -25.401   0.259  25.660  0.00  0.00    -0.022 A 
ATOM     17  C   UNL A   1     -25.169  -0.354  26.786  0.00  0.00    -0.007 A 
ATOM     18 CL   UNL A   1     -22.042   1.581  28.121  0.00  0.00    -0.083 Cl
ATOM     19  C   UNL A   1     -26.510  -0.141  24.695  0.00  0.00    +0.031 C 
ENDBRANCH  11  15
ENDBRANCH   1  11
TORSDOF 2
ENDMDL
ENDMDL
