REMARK  Name = No_1471-gen_results/8p0m/2024-11-26-14-13-15/
REMARK  1 active torsions:
REMARK  status: ('A' for Active; 'I' for Inactive)
REMARK    1  A    between atoms: C_7  and  C_15
REMARK                            x       y       z     vdW  Elec       q    Type
REMARK                         _______ _______ _______ _____ _____    ______ ____
ROOT
ATOM      1  C   UNL A   1     -28.016  -0.814  28.878  0.00  0.00    -0.002 A 
ATOM      2  C   UNL A   1     -27.064  -0.119  28.608  0.00  0.00    +0.001 A 
ATOM      3  C   UNL A   1     -25.792  -0.430  29.076  0.00  0.00    +0.067 A 
ATOM      4  C   UNL A   1     -25.576  -1.565  29.936  0.00  0.00    +0.016 A 
ATOM      5  C   UNL A   1     -26.735  -2.300  30.217  0.00  0.00    +0.001 A 
ATOM      6  C   UNL A   1     -27.918  -1.954  29.763  0.00  0.00    -0.000 A 
ATOM      7  C   UNL A   1     -27.106   1.102  27.759  0.00  0.00    +0.069 C 
ATOM      8  C   UNL A   1     -26.122   1.482  27.023  0.00  0.00    +0.001 A 
ATOM      9  C   UNL A   1     -25.994   2.550  26.327  0.00  0.00    -0.002 A 
ATOM     10  C   UNL A   1     -24.743   3.062  25.728  0.00  0.00    -0.000 A 
ATOM     11  C   UNL A   1     -23.602   2.250  25.905  0.00  0.00    +0.001 A 
ATOM     12  C   UNL A   1     -23.719   1.111  26.692  0.00  0.00    +0.016 A 
ATOM     13  C   UNL A   1     -24.858   0.729  27.259  0.00  0.00    +0.067 A 
ATOM     14  N   UNL A   1     -24.808  -0.252  28.218  0.00  0.00    -0.213 NA
ENDROOT
BRANCH   7  15
ATOM     15  C   UNL A   1     -28.482   1.632  27.516  0.00  0.00    -0.015 A 
ATOM     16  C   UNL A   1     -28.979   2.497  28.473  0.00  0.00    -0.004 A 
ATOM     17  C   UNL A   1     -30.250   2.980  28.377  0.00  0.00    -0.001 A 
ATOM     18  C   UNL A   1     -29.163   1.279  26.429  0.00  0.00    -0.008 A 
ATOM     19  C   UNL A   1     -30.447   1.766  26.233  0.00  0.00    -0.022 A 
ATOM     20  C   UNL A   1     -30.973   2.647  27.212  0.00  0.00    -0.004 A 
ATOM     21  C   UNL A   1     -31.229   1.387  25.086  0.00  0.00    +0.031 C 
ENDBRANCH   7  15
TORSDOF 1
