MODEL 1471
MODEL 1
REMARK VINA RESULT:    -7.964      0.000      0.000
REMARK INTER + INTRA:          -8.855
REMARK INTER:                  -8.429
REMARK INTRA:                  -0.426
REMARK UNBOUND:                -0.426
REMARK  Name = No_1471-gen_results/8p0m/2024-11-26-14-13-15/
REMARK  1 active torsions:
REMARK  status: ('A' for Active; 'I' for Inactive)
REMARK    1  A    between atoms: C_7  and  C_15
REMARK                            x       y       z     vdW  Elec       q    Type
REMARK                         _______ _______ _______ _____ _____    ______ ____
ROOT
ATOM      1  C   UNL A   1     -23.886  -2.591  28.919  0.00  0.00    -0.002 A 
ATOM      2  C   UNL A   1     -24.578  -1.844  29.572  0.00  0.00    +0.001 A 
ATOM      3  C   UNL A   1     -25.745  -2.293  30.180  0.00  0.00    +0.067 A 
ATOM      4  C   UNL A   1     -26.192  -3.652  30.014  0.00  0.00    +0.016 A 
ATOM      5  C   UNL A   1     -25.345  -4.441  29.225  0.00  0.00    +0.001 A 
ATOM      6  C   UNL A   1     -24.260  -3.964  28.658  0.00  0.00    -0.000 A 
ATOM      7  C   UNL A   1     -24.287  -0.407  29.826  0.00  0.00    +0.069 C 
ATOM      8  C   UNL A   1     -24.635   0.202  30.903  0.00  0.00    +0.001 A 
ATOM      9  C   UNL A   1     -24.532   1.443  31.204  0.00  0.00    -0.002 A 
ATOM     10  C   UNL A   1     -25.195   2.131  32.332  0.00  0.00    -0.000 A 
ATOM     11  C   UNL A   1     -25.967   1.309  33.182  0.00  0.00    +0.001 A 
ATOM     12  C   UNL A   1     -26.120  -0.029  32.843  0.00  0.00    +0.016 A 
ATOM     13  C   UNL A   1     -25.549  -0.584  31.779  0.00  0.00    +0.067 A 
ATOM     14  N   UNL A   1     -25.971  -1.832  31.394  0.00  0.00    -0.213 NA
ENDROOT
BRANCH   7  15
ATOM     15  C   UNL A   1     -23.235   0.171  28.936  0.00  0.00    -0.015 A 
ATOM     16  C   UNL A   1     -21.926  -0.130  29.264  0.00  0.00    -0.004 A 
ATOM     17  C   UNL A   1     -20.893   0.406  28.555  0.00  0.00    -0.001 A 
ATOM     18  C   UNL A   1     -23.569   0.923  27.890  0.00  0.00    -0.008 A 
ATOM     19  C   UNL A   1     -22.576   1.468  27.089  0.00  0.00    -0.022 A 
ATOM     20  C   UNL A   1     -21.228   1.175  27.421  0.00  0.00    -0.004 A 
ATOM     21  C   UNL A   1     -22.892   2.310  25.966  0.00  0.00    +0.031 C 
ENDBRANCH   7  15
TORSDOF 1
ENDMDL
ENDMDL
