MODEL 1472
MODEL 1
REMARK VINA RESULT:    -6.525      0.000      0.000
REMARK INTER + INTRA:          -7.224
REMARK INTER:                  -6.906
REMARK INTRA:                  -0.318
REMARK UNBOUND:                -0.318
REMARK  Name = No_1472-gen_results/8p0m/2024-11-26-14-13-15/
REMARK  1 active torsions:
REMARK  status: ('A' for Active; 'I' for Inactive)
REMARK    1  A    between atoms: C_3  and  C_7
REMARK                            x       y       z     vdW  Elec       q    Type
REMARK                         _______ _______ _______ _____ _____    ______ ____
ROOT
ATOM      1  C   UNL A   1     -24.774  -4.908  28.964  0.00  0.00    +0.000 A 
ATOM      2  C   UNL A   1     -24.157  -3.904  28.692  0.00  0.00    +0.000 A 
ATOM      3  C   UNL A   1     -24.603  -2.618  28.995  0.00  0.00    +0.000 A 
ATOM      4  C   UNL A   1     -25.902  -2.450  29.617  0.00  0.00    +0.000 A 
ATOM      5  C   UNL A   1     -26.569  -3.665  29.896  0.00  0.00    +0.000 A 
ATOM      6  C   UNL A   1     -26.071  -4.830  29.568  0.00  0.00    +0.000 A 
ENDROOT
BRANCH   3   7
ATOM      7  C   UNL A   1     -23.895  -1.344  28.703  0.00  0.00    +0.000 A 
ATOM      8  C   UNL A   1     -24.374  -0.468  27.857  0.00  0.00    +0.000 A 
ATOM      9  C   UNL A   1     -23.641   0.723  27.538  0.00  0.00    +0.000 A 
ATOM     10  C   UNL A   1     -22.371   0.946  27.962  0.00  0.00    +0.000 A 
ATOM     11  C   UNL A   1     -22.538  -1.136  29.171  0.00  0.00    +0.000 A 
ATOM     12  C   UNL A   1     -21.803   0.018  28.788  0.00  0.00    +0.000 A 
ENDBRANCH   3   7
TORSDOF 1
ENDMDL
ENDMDL
