REMARK  Name = No_1473-gen_results/8p0m/2024-11-26-14-13-15/
REMARK  2 active torsions:
REMARK  status: ('A' for Active; 'I' for Inactive)
REMARK    1  A    between atoms: C_3  and  C_7
REMARK    2  A    between atoms: N_13  and  C_14
REMARK                            x       y       z     vdW  Elec       q    Type
REMARK                         _______ _______ _______ _____ _____    ______ ____
ROOT
ATOM      1  C   UNL A   1     -26.408   0.307  27.226  0.00  0.00    +0.033 A 
ATOM      2  C   UNL A   1     -25.011   0.390  27.323  0.00  0.00    +0.004 A 
ATOM      3  C   UNL A   1     -27.046   0.329  26.005  0.00  0.00    +0.152 A 
ATOM      4  N   UNL A   1     -26.254   0.239  24.957  0.00  0.00    -0.227 NA
ATOM      5  C   UNL A   1     -24.214   0.658  26.187  0.00  0.00    +0.021 A 
ATOM      6  C   UNL A   1     -24.913   0.499  24.966  0.00  0.00    +0.100 A 
ATOM      7  N   UNL A   1     -28.316   0.131  25.846  0.00  0.00    -0.194 NA
ENDROOT
BRANCH   1  10
ATOM      8  C   UNL A   1     -28.016  -0.814  28.878  0.00  0.00    +0.000 A 
ATOM      9  C   UNL A   1     -28.469  -0.785  29.829  0.00  0.00    +0.000 A 
ATOM     10  C   UNL A   1     -27.136   0.236  28.535  0.00  0.00    +0.003 A 
ATOM     11  C   UNL A   1     -26.875   1.282  29.398  0.00  0.00    +0.000 A 
ATOM     12  C   UNL A   1     -27.507   1.238  30.630  0.00  0.00    +0.000 A 
ATOM     13  C   UNL A   1     -28.329   0.174  30.935  0.00  0.00    +0.000 A 
ENDBRANCH   1  10
BRANCH   7  14
ATOM     14  C   UNL A   1     -29.184   1.031  25.313  0.00  0.00    +0.072 A 
ATOM     15  C   UNL A   1     -30.547   0.785  25.302  0.00  0.00    +0.017 A 
ATOM     16  C   UNL A   1     -28.665   2.271  24.860  0.00  0.00    +0.017 A 
ATOM     17  C   UNL A   1     -29.509   3.237  24.344  0.00  0.00    +0.001 A 
ATOM     18  C   UNL A   1     -31.385   1.773  24.748  0.00  0.00    +0.001 A 
ATOM     19  C   UNL A   1     -30.852   3.010  24.273  0.00  0.00    +0.000 A 
ENDBRANCH   7  14
TORSDOF 2
