MODEL 1473
MODEL 1
REMARK VINA RESULT:    -7.822      0.000      0.000
REMARK INTER + INTRA:          -9.374
REMARK INTER:                  -8.736
REMARK INTRA:                  -0.637
REMARK UNBOUND:                -0.637
REMARK  Name = No_1473-gen_results/8p0m/2024-11-26-14-13-15/
REMARK  2 active torsions:
REMARK  status: ('A' for Active; 'I' for Inactive)
REMARK    1  A    between atoms: C_3  and  C_7
REMARK    2  A    between atoms: N_13  and  C_14
REMARK                            x       y       z     vdW  Elec       q    Type
REMARK                         _______ _______ _______ _____ _____    ______ ____
ROOT
ATOM      1  C   UNL A   1     -23.985   0.430  27.448  0.00  0.00    +0.033 A 
ATOM      2  C   UNL A   1     -22.888   1.247  27.132  0.00  0.00    +0.004 A 
ATOM      3  C   UNL A   1     -23.945  -0.448  28.508  0.00  0.00    +0.152 A 
ATOM      4  N   UNL A   1     -22.900  -0.324  29.300  0.00  0.00    -0.227 NA
ATOM      5  C   UNL A   1     -21.647   1.089  27.789  0.00  0.00    +0.021 A 
ATOM      6  C   UNL A   1     -21.733   0.300  28.962  0.00  0.00    +0.100 A 
ATOM      7  N   UNL A   1     -24.963  -1.133  28.923  0.00  0.00    -0.194 NA
ENDROOT
BRANCH   1  10
ATOM      8  C   UNL A   1     -25.341  -0.239  25.378  0.00  0.00    +0.000 A 
ATOM      9  C   UNL A   1     -26.211  -0.085  24.803  0.00  0.00    +0.000 A 
ATOM     10  C   UNL A   1     -25.163   0.560  26.529  0.00  0.00    +0.003 A 
ATOM     11  C   UNL A   1     -26.079   1.525  26.898  0.00  0.00    +0.000 A 
ATOM     12  C   UNL A   1     -27.196   1.657  26.090  0.00  0.00    +0.000 A 
ATOM     13  C   UNL A   1     -27.346   0.830  24.997  0.00  0.00    +0.000 A 
ENDBRANCH   1  10
BRANCH   7  14
ATOM     14  C   UNL A   1     -25.028  -2.490  28.955  0.00  0.00    +0.072 A 
ATOM     15  C   UNL A   1     -23.995  -3.264  28.454  0.00  0.00    +0.017 A 
ATOM     16  C   UNL A   1     -26.137  -3.089  29.607  0.00  0.00    +0.017 A 
ATOM     17  C   UNL A   1     -26.233  -4.465  29.702  0.00  0.00    +0.001 A 
ATOM     18  C   UNL A   1     -24.127  -4.665  28.539  0.00  0.00    +0.001 A 
ATOM     19  C   UNL A   1     -25.258  -5.261  29.177  0.00  0.00    +0.000 A 
ENDBRANCH   7  14
TORSDOF 2
ENDMDL
ENDMDL
