MODEL 1474
MODEL 1
REMARK VINA RESULT:    -6.656      0.000      0.000
REMARK INTER + INTRA:         -14.478
REMARK INTER:                  -9.768
REMARK INTRA:                  -4.710
REMARK UNBOUND:                -4.710
REMARK  Name = No_1474-gen_results/8p0m/2024-11-26-14-13-15/
REMARK  8 active torsions:
REMARK  status: ('A' for Active; 'I' for Inactive)
REMARK    1  A    between atoms: C_3  and  C_7
REMARK    2  A    between atoms: C_8  and  C_9
REMARK    3  A    between atoms: C_9  and  C_10
REMARK    4  A    between atoms: C_11  and  C_23
REMARK    5  A    between atoms: C_16  and  C_17
REMARK    6  A    between atoms: C_23  and  C_25
REMARK    7  A    between atoms: C_26  and  C_27
REMARK    8  A    between atoms: C_28  and  C_33
REMARK                            x       y       z     vdW  Elec       q    Type
REMARK                         _______ _______ _______ _____ _____    ______ ____
ROOT
ATOM      1  C   UNL A   1     -10.738  -1.018  38.037  0.00  0.00    -0.021 A 
ATOM      2  C   UNL A   1     -10.326  -0.739  39.375  0.00  0.00    -0.022 A 
ATOM      3  C   UNL A   1     -11.214  -1.008  40.415  0.00  0.00    -0.004 A 
ATOM      4  C   UNL A   1     -12.171  -1.999  40.314  0.00  0.00    -0.000 A 
ATOM      5  C   UNL A   1     -12.294  -2.646  39.028  0.00  0.00    -0.000 A 
ATOM      6  C   UNL A   1     -11.523  -2.204  37.985  0.00  0.00    -0.004 A 
ENDROOT
BRANCH   2   7
ATOM      7  C   UNL A   1      -9.435   0.457  39.543  0.00  0.00    +0.044 C 
ATOM      8  C   UNL A   1      -8.172   0.443  39.980  0.00  0.00    +0.009 C 
BRANCH   7   9
ATOM      9  C   UNL A   1     -10.131   1.699  39.191  0.00  0.00    -0.022 C 
ATOM     10  C   UNL A   1      -9.541   2.654  38.549  0.00  0.00    -0.004 C 
BRANCH  10  11
ATOM     11  C   UNL A   1     -10.073   3.914  38.201  0.00  0.00    +0.006 A 
ATOM     12  C   UNL A   1      -9.175   4.858  37.714  0.00  0.00    +0.080 A 
ATOM     13  C   UNL A   1      -9.626   6.093  37.154  0.00  0.00    +0.007 A 
ATOM     14  C   UNL A   1     -10.999   6.184  36.906  0.00  0.00    +0.000 A 
ATOM     15  C   UNL A   1     -11.890   5.212  37.222  0.00  0.00    +0.000 A 
ATOM     16  C   UNL A   1     -11.446   4.013  37.820  0.00  0.00    +0.000 A 
BRANCH  12  17
ATOM     17  C   UNL A   1      -7.752   4.769  38.006  0.00  0.00    +0.388 C 
ATOM     18  O   UNL A   1      -7.263   5.199  38.953  0.00  0.00    -0.241 OA
ATOM     19  O   UNL A   1      -6.935   4.484  36.968  0.00  0.00    -0.241 OA
ENDBRANCH  12  17
ENDBRANCH  10  11
ENDBRANCH   7   9
ENDBRANCH   2   7
BRANCH   1  20
ATOM     20  C   UNL A   1      -9.918  -0.728  36.956  0.00  0.00    +0.052 C 
BRANCH  20  22
ATOM     21  C   UNL A   1      -9.369   1.035  35.274  0.00  0.00    +0.003 A 
ATOM     22  C   UNL A   1     -10.201   0.363  36.062  0.00  0.00    -0.018 A 
ATOM     23  C   UNL A   1      -9.629   2.119  34.495  0.00  0.00    +0.080 A 
ATOM     24  C   UNL A   1     -11.068   2.412  34.380  0.00  0.00    +0.007 A 
ATOM     25  C   UNL A   1     -11.601   0.737  35.987  0.00  0.00    -0.004 A 
ATOM     26  C   UNL A   1     -11.968   1.774  35.204  0.00  0.00    -0.000 A 
BRANCH  21  29
ATOM     27  C   UNL A   1      -7.609  -0.626  34.500  0.00  0.00    -0.000 A 
ATOM     28  C   UNL A   1      -6.598  -0.923  34.485  0.00  0.00    -0.000 A 
ATOM     29  C   UNL A   1      -7.922   0.513  35.315  0.00  0.00    -0.000 A 
ATOM     30  C   UNL A   1      -7.042   1.081  36.144  0.00  0.00    -0.000 A 
ATOM     31  C   UNL A   1      -5.770   0.581  36.114  0.00  0.00    -0.000 A 
ATOM     32  C   UNL A   1      -5.477  -0.462  35.276  0.00  0.00    -0.000 A 
ENDBRANCH  21  29
BRANCH  23  33
ATOM     33  C   UNL A   1      -8.778   2.882  33.931  0.00  0.00    +0.388 C 
ATOM     34  O   UNL A   1      -7.966   2.653  33.033  0.00  0.00    -0.241 OA
ATOM     35  O   UNL A   1      -8.743   4.220  34.278  0.00  0.00    -0.241 OA
ENDBRANCH  23  33
ENDBRANCH  20  22
ENDBRANCH   1  20
TORSDOF 8
ENDMDL
ENDMDL
