REMARK  Name = No_1474-gen_results/8p0m/2024-11-26-14-13-15/
REMARK  8 active torsions:
REMARK  status: ('A' for Active; 'I' for Inactive)
REMARK    1  A    between atoms: C_3  and  C_7
REMARK    2  A    between atoms: C_8  and  C_9
REMARK    3  A    between atoms: C_9  and  C_10
REMARK    4  A    between atoms: C_11  and  C_23
REMARK    5  A    between atoms: C_16  and  C_17
REMARK    6  A    between atoms: C_23  and  C_25
REMARK    7  A    between atoms: C_26  and  C_27
REMARK    8  A    between atoms: C_28  and  C_33
REMARK                            x       y       z     vdW  Elec       q    Type
REMARK                         _______ _______ _______ _____ _____    ______ ____
ROOT
ATOM      1  C   UNL A   1     -23.945   0.295  27.957  0.00  0.00    -0.021 A 
ATOM      2  C   UNL A   1     -23.154   0.028  29.115  0.00  0.00    -0.022 A 
ATOM      3  C   UNL A   1     -21.767   0.028  28.988  0.00  0.00    -0.004 A 
ATOM      4  C   UNL A   1     -21.125   0.790  28.030  0.00  0.00    -0.000 A 
ATOM      5  C   UNL A   1     -21.972   1.475  27.081  0.00  0.00    -0.000 A 
ATOM      6  C   UNL A   1     -23.327   1.281  27.137  0.00  0.00    -0.004 A 
ENDROOT
BRANCH   2   7
ATOM      7  C   UNL A   1     -23.741  -0.952  30.089  0.00  0.00    +0.044 C 
ATOM      8  C   UNL A   1     -24.009  -2.238  29.847  0.00  0.00    +0.009 C 
BRANCH   7   9
ATOM      9  C   UNL A   1     -24.029  -0.318  31.380  0.00  0.00    -0.022 C 
ATOM     10  C   UNL A   1     -25.218   0.084  31.693  0.00  0.00    -0.004 C 
BRANCH  10  11
ATOM     11  C   UNL A   1     -25.617   0.757  32.868  0.00  0.00    +0.006 A 
ATOM     12  C   UNL A   1     -25.924   2.108  32.739  0.00  0.00    +0.080 A 
ATOM     13  C   UNL A   1     -26.520   2.839  33.812  0.00  0.00    +0.007 A 
ATOM     14  C   UNL A   1     -26.990   2.074  34.884  0.00  0.00    +0.000 A 
ATOM     15  C   UNL A   1     -26.851   0.728  34.970  0.00  0.00    +0.000 A 
ATOM     16  C   UNL A   1     -26.218   0.015  33.930  0.00  0.00    +0.000 A 
BRANCH  12  17
ATOM     17  C   UNL A   1     -25.403   2.900  31.635  0.00  0.00    +0.388 C 
ATOM     18  O   UNL A   1     -25.198   4.029  31.697  0.00  0.00    -0.241 OA
ATOM     19  O   UNL A   1     -25.498   2.359  30.401  0.00  0.00    -0.241 OA
ENDBRANCH  12  17
ENDBRANCH  10  11
ENDBRANCH   7   9
ENDBRANCH   2   7
BRANCH   1  20
ATOM     20  C   UNL A   1     -25.331   0.262  28.008  0.00  0.00    +0.052 C 
BRANCH  20  22
ATOM     21  C   UNL A   1     -27.459   0.379  26.705  0.00  0.00    +0.003 A 
ATOM     22  C   UNL A   1     -26.135   0.356  26.819  0.00  0.00    -0.018 A 
ATOM     23  C   UNL A   1     -28.212   0.383  25.573  0.00  0.00    +0.080 A 
ATOM     24  C   UNL A   1     -27.416   0.607  24.354  0.00  0.00    +0.007 A 
ATOM     25  C   UNL A   1     -25.381   0.492  25.587  0.00  0.00    -0.004 A 
ATOM     26  C   UNL A   1     -26.041   0.550  24.410  0.00  0.00    -0.000 A 
BRANCH  21  29
ATOM     27  C   UNL A   1     -28.016  -0.814  28.878  0.00  0.00    -0.000 A 
ATOM     28  C   UNL A   1     -28.469  -0.785  29.829  0.00  0.00    -0.000 A 
ATOM     29  C   UNL A   1     -28.196   0.348  28.055  0.00  0.00    -0.000 A 
ATOM     30  C   UNL A   1     -29.019   1.350  28.378  0.00  0.00    -0.000 A 
ATOM     31  C   UNL A   1     -29.625   1.268  29.601  0.00  0.00    -0.000 A 
ATOM     32  C   UNL A   1     -29.382   0.182  30.400  0.00  0.00    -0.000 A 
ENDBRANCH  21  29
BRANCH  23  33
ATOM     33  C   UNL A   1     -29.466   0.175  25.483  0.00  0.00    +0.388 C 
ATOM     34  O   UNL A   1     -30.409   0.679  26.095  0.00  0.00    -0.241 OA
ATOM     35  O   UNL A   1     -29.934  -0.695  24.515  0.00  0.00    -0.241 OA
ENDBRANCH  23  33
ENDBRANCH  20  22
ENDBRANCH   1  20
TORSDOF 8
