MODEL 1475
MODEL 1
REMARK VINA RESULT:    -9.291      0.000      0.000
REMARK INTER + INTRA:         -11.069
REMARK INTER:                 -10.920
REMARK INTRA:                  -0.149
REMARK UNBOUND:                -0.149
REMARK  Name = No_1475-gen_results/8p0m/2024-11-26-14-13-15/
REMARK  3 active torsions:
REMARK  status: ('A' for Active; 'I' for Inactive)
REMARK    1  A    between atoms: C_1  and  C_9
REMARK    2  A    between atoms: C_12  and  C_13
REMARK    3  A    between atoms: C_12  and  C_21
REMARK                            x       y       z     vdW  Elec       q    Type
REMARK                         _______ _______ _______ _____ _____    ______ ____
ROOT
ATOM      1  C   UNL A   1     -25.226   1.002  26.309  0.00  0.00    +0.082 A 
ATOM      2  C   UNL A   1     -25.279   0.210  27.222  0.00  0.00    +0.003 A 
ATOM      3  C   UNL A   1     -24.226  -0.107  28.063  0.00  0.00    -0.019 A 
ATOM      4  C   UNL A   1     -22.995   0.579  27.848  0.00  0.00    +0.002 A 
ATOM      5  C   UNL A   1     -21.906   0.272  28.560  0.00  0.00    +0.028 C 
ATOM      6  C   UNL A   1     -24.123   1.928  26.276  0.00  0.00    +0.036 A 
ATOM      7  C   UNL A   1     -22.986   1.579  26.948  0.00  0.00    +0.136 A 
ATOM      8  F   UNL A   1     -21.932   2.309  26.738  0.00  0.00    -0.204 F 
ATOM      9  C   UNL A   1     -24.273  -1.279  28.998  0.00  0.00    +0.057 C 
ATOM     10  C   UNL A   1     -22.780  -1.486  29.336  0.00  0.00    +0.010 C 
ATOM     11  C   UNL A   1     -21.820  -0.784  29.385  0.00  0.00    +0.005 C 
ENDROOT
BRANCH   9  12
ATOM     12  C   UNL A   1     -24.865  -0.595  30.363  0.00  0.00    +0.110 C 
ATOM     13  C   UNL A   1     -25.966   0.266  30.296  0.00  0.00    -0.011 C 
ATOM     14  C   UNL A   1     -24.148  -0.863  31.605  0.00  0.00    -0.011 C 
ATOM     15  C   UNL A   1     -24.833  -0.536  32.802  0.00  0.00    -0.025 C 
ATOM     16  C   UNL A   1     -26.518   0.784  31.569  0.00  0.00    -0.025 C 
ATOM     17  C   UNL A   1     -25.908   0.425  32.777  0.00  0.00    +0.051 C 
ATOM     18 CL   UNL A   1     -24.649   0.338  30.687  0.00  0.00    -0.107 Cl
ENDBRANCH   9  12
BRANCH   9  19
ATOM     19  C   UNL A   1     -24.789  -2.449  28.694  0.00  0.00    -0.017 A 
ATOM     20  C   UNL A   1     -23.961  -3.550  28.443  0.00  0.00    -0.004 A 
ATOM     21  C   UNL A   1     -24.286  -4.890  28.705  0.00  0.00    -0.000 A 
ATOM     22  C   UNL A   1     -25.460  -5.188  29.431  0.00  0.00    -0.000 A 
ATOM     23  C   UNL A   1     -26.317  -4.078  29.770  0.00  0.00    -0.000 A 
ATOM     24  C   UNL A   1     -26.002  -2.778  29.487  0.00  0.00    -0.004 A 
ENDBRANCH   9  19
BRANCH   1  25
ATOM     25  C   UNL A   1     -26.482   1.320  25.465  0.00  0.00    +0.388 C 
ATOM     26  O   UNL A   1     -27.080   0.365  24.927  0.00  0.00    -0.241 OA
ATOM     27  O   UNL A   1     -26.846   2.468  25.245  0.00  0.00    -0.241 OA
ENDBRANCH   1  25
TORSDOF 3
ENDMDL
ENDMDL
