REMARK  Name = No_1476-gen_results/8p0m/2024-11-26-14-13-15/
REMARK  0 active torsions:
REMARK  status: ('A' for Active; 'I' for Inactive)
REMARK                            x       y       z     vdW  Elec       q    Type
REMARK                         _______ _______ _______ _____ _____    ______ ____
ROOT
ATOM      1  C   UNL A   1     -28.016  -0.814  28.878  0.00  0.00    +0.095 C 
ATOM      2  C   UNL A   1     -27.064  -0.119  28.608  0.00  0.00    -0.010 A 
ATOM      3  C   UNL A   1     -27.001   0.691  27.491  0.00  0.00    -0.003 A 
ATOM      4  C   UNL A   1     -25.777   1.021  26.913  0.00  0.00    -0.000 A 
ATOM      5  C   UNL A   1     -24.509   0.736  27.569  0.00  0.00    -0.000 A 
ATOM      6  C   UNL A   1     -24.593  -0.036  28.739  0.00  0.00    -0.004 A 
ATOM      7  C   UNL A   1     -25.811  -0.477  29.158  0.00  0.00    -0.025 A 
ATOM      8  N   UNL A   1     -29.185  -0.127  29.113  0.00  0.00    -0.215 NA
ATOM      9  C   UNL A   1     -30.300  -0.720  29.629  0.00  0.00    +0.089 C 
ATOM     10  C   UNL A   1     -23.258   1.290  27.081  0.00  0.00    -0.000 A 
ATOM     11  C   UNL A   1     -22.123   1.160  27.908  0.00  0.00    -0.000 A 
ATOM     12  C   UNL A   1     -22.147   0.302  28.974  0.00  0.00    -0.000 A 
ATOM     13  C   UNL A   1     -23.368  -0.277  29.419  0.00  0.00    -0.000 A 
ATOM     14  C   UNL A   1     -30.094  -1.624  30.599  0.00  0.00    +0.019 C 
ATOM     15  C   UNL A   1     -28.912  -2.482  30.516  0.00  0.00    +0.004 C 
ATOM     16  C   UNL A   1     -27.692  -1.655  30.247  0.00  0.00    +0.023 C 
ATOM     17  C   UNL A   1     -26.302  -2.097  29.989  0.00  0.00    +0.028 C 
ATOM     18  C   UNL A   1     -27.555  -0.556  31.463  0.00  0.00    +0.002 C 
ENDROOT
TORSDOF 0
