MODEL 1476
MODEL 1
REMARK VINA RESULT:    -6.968      0.000      0.000
REMARK INTER + INTRA:          -6.968
REMARK INTER:                  -6.968
REMARK INTRA:                   0.000
REMARK UNBOUND:                 0.000
REMARK  Name = No_1476-gen_results/8p0m/2024-11-26-14-13-15/
REMARK  0 active torsions:
REMARK  status: ('A' for Active; 'I' for Inactive)
REMARK                            x       y       z     vdW  Elec       q    Type
REMARK                         _______ _______ _______ _____ _____    ______ ____
ROOT
ATOM      1  C   UNL A   1     -23.248  -1.118  28.509  0.00  0.00    +0.095 C 
ATOM      2  C   UNL A   1     -23.962  -1.911  29.076  0.00  0.00    -0.010 A 
ATOM      3  C   UNL A   1     -23.809  -3.281  28.984  0.00  0.00    -0.003 A 
ATOM      4  C   UNL A   1     -24.895  -4.137  29.151  0.00  0.00    -0.000 A 
ATOM      5  C   UNL A   1     -26.179  -3.670  29.655  0.00  0.00    -0.000 A 
ATOM      6  C   UNL A   1     -26.300  -2.278  29.804  0.00  0.00    -0.004 A 
ATOM      7  C   UNL A   1     -25.255  -1.479  29.455  0.00  0.00    -0.025 A 
ATOM      8  N   UNL A   1     -21.926  -1.156  28.889  0.00  0.00    -0.215 NA
ATOM      9  C   UNL A   1     -21.021  -0.207  28.513  0.00  0.00    +0.089 C 
ATOM     10  C   UNL A   1     -27.225  -4.597  30.051  0.00  0.00    -0.000 A 
ATOM     11  C   UNL A   1     -28.333  -4.069  30.745  0.00  0.00    -0.000 A 
ATOM     12  C   UNL A   1     -28.539  -2.716  30.779  0.00  0.00    -0.000 A 
ATOM     13  C   UNL A   1     -27.530  -1.812  30.344  0.00  0.00    -0.000 A 
ATOM     14  C   UNL A   1     -21.462   1.061  28.507  0.00  0.00    +0.019 C 
ATOM     15  C   UNL A   1     -22.843   1.319  28.100  0.00  0.00    +0.004 C 
ATOM     16  C   UNL A   1     -23.776   0.400  28.829  0.00  0.00    +0.023 C 
ATOM     17  C   UNL A   1     -25.239   0.234  28.668  0.00  0.00    +0.028 C 
ATOM     18  C   UNL A   1     -23.566   0.651  30.441  0.00  0.00    +0.002 C 
ENDROOT
TORSDOF 0
ENDMDL
ENDMDL
