REMARK  Name = No_1477-gen_results/8p0m/2024-11-26-14-13-15/
REMARK  10 active torsions:
REMARK  status: ('A' for Active; 'I' for Inactive)
REMARK    1  A    between atoms: C_2  and  C_16
REMARK    2  A    between atoms: C_3  and  C_7
REMARK    3  A    between atoms: C_6  and  O_27
REMARK    4  A    between atoms: C_8  and  C_13
REMARK    5  A    between atoms: C_13  and  O_15
REMARK    6  A    between atoms: O_15  and  C_19
REMARK    7  A    between atoms: C_19  and  C_20
REMARK    8  A    between atoms: C_20  and  C_21
REMARK    9  A    between atoms: O_27  and  C_28
REMARK   10  A    between atoms: C_28  and  C_29
REMARK                            x       y       z     vdW  Elec       q    Type
REMARK                         _______ _______ _______ _____ _____    ______ ____
ROOT
ATOM      1  C   UNL A   1     -24.544   0.413  28.738  0.00  0.00    +0.006 A 
ATOM      2  C   UNL A   1     -24.095   1.379  29.575  0.00  0.00    +0.076 A 
ATOM      3  C   UNL A   1     -22.978   2.145  29.257  0.00  0.00    +0.006 A 
ATOM      4  C   UNL A   1     -22.250   1.909  28.053  0.00  0.00    +0.000 A 
ATOM      5  C   UNL A   1     -23.784   0.275  27.546  0.00  0.00    +0.000 A 
ATOM      6  C   UNL A   1     -22.725   0.995  27.263  0.00  0.00    +0.000 A 
ENDROOT
BRANCH   1   9
ATOM      7  C   UNL A   1     -28.016  -0.814  28.878  0.00  0.00    +0.044 A 
ATOM      8  C   UNL A   1     -27.064  -0.119  28.608  0.00  0.00    +0.083 A 
ATOM      9  C   UNL A   1     -25.765  -0.390  29.036  0.00  0.00    +0.007 A 
ATOM     10  C   UNL A   1     -25.530  -1.530  29.901  0.00  0.00    +0.003 A 
ATOM     11  C   UNL A   1     -26.658  -2.292  30.203  0.00  0.00    +0.038 A 
ATOM     12  C   UNL A   1     -27.855  -1.956  29.763  0.00  0.00    +0.149 A 
BRANCH   8  13
ATOM     13  C   UNL A   1     -27.210   1.080  27.673  0.00  0.00    +0.388 C 
ATOM     14  O   UNL A   1     -27.590   1.040  26.575  0.00  0.00    -0.241 OA
ATOM     15  O   UNL A   1     -26.983   2.318  28.258  0.00  0.00    -0.241 OA
ENDBRANCH   8  13
BRANCH  12  16
ATOM     16  O   UNL A   1     -28.939  -2.683  30.111  0.00  0.00    -0.417 OA
BRANCH  16  17
ATOM     17  C   UNL A   1     -30.081  -2.170  30.585  0.00  0.00    +0.415 C 
ATOM     18  O   UNL A   1     -30.070  -1.141  31.272  0.00  0.00    -0.238 OA
BRANCH  17  19
ATOM     19  C   UNL A   1     -31.184  -2.737  30.053  0.00  0.00    +0.409 C 
ATOM     20  O   UNL A   1     -32.108  -2.167  29.587  0.00  0.00    -0.247 OA
ATOM     21  F   UNL A   1     -31.457  -3.989  30.471  0.00  0.00    -0.152 F 
ENDBRANCH  17  19
ENDBRANCH  16  17
ENDBRANCH  12  16
ENDBRANCH   1   9
BRANCH   2  22
ATOM     22  C   UNL A   1     -24.767   1.626  30.910  0.00  0.00    +0.341 C 
ATOM     23  O   UNL A   1     -24.934   0.759  31.574  0.00  0.00    -0.245 OA
BRANCH  22  24
ATOM     24  O   UNL A   1     -25.021   2.882  31.177  0.00  0.00    -0.439 OA
BRANCH  24  25
ATOM     25  C   UNL A   1     -25.832   3.221  32.229  0.00  0.00    +0.284 C 
BRANCH  25  26
ATOM     26  C   UNL A   1     -25.848   4.587  32.489  0.00  0.00    +0.388 C 
ATOM     27  F   UNL A   1     -27.086   4.881  33.066  0.00  0.00    -0.191 F 
ATOM     28  F   UNL A   1     -25.174   4.703  33.803  0.00  0.00    -0.191 F 
BRANCH  26  29
ATOM     29  C   UNL A   1     -25.405   5.390  31.544  0.00  0.00    +0.458 C 
ATOM     30  F   UNL A   1     -25.532   4.833  30.506  0.00  0.00    -0.165 F 
ATOM     31  F   UNL A   1     -24.132   5.762  31.729  0.00  0.00    -0.165 F 
ATOM     32  F   UNL A   1     -25.972   6.643  31.634  0.00  0.00    -0.165 F 
ENDBRANCH  26  29
ENDBRANCH  25  26
ENDBRANCH  24  25
ENDBRANCH  22  24
ENDBRANCH   2  22
TORSDOF 10
