MODEL 1477
MODEL 1
REMARK VINA RESULT:    -7.019      0.000      0.000
REMARK INTER + INTRA:         -13.275
REMARK INTER:                 -11.122
REMARK INTRA:                  -2.153
REMARK UNBOUND:                -2.153
REMARK  Name = No_1477-gen_results/8p0m/2024-11-26-14-13-15/
REMARK  10 active torsions:
REMARK  status: ('A' for Active; 'I' for Inactive)
REMARK    1  A    between atoms: C_2  and  C_16
REMARK    2  A    between atoms: C_3  and  C_7
REMARK    3  A    between atoms: C_6  and  O_27
REMARK    4  A    between atoms: C_8  and  C_13
REMARK    5  A    between atoms: C_13  and  O_15
REMARK    6  A    between atoms: O_15  and  C_19
REMARK    7  A    between atoms: C_19  and  C_20
REMARK    8  A    between atoms: C_20  and  C_21
REMARK    9  A    between atoms: O_27  and  C_28
REMARK   10  A    between atoms: C_28  and  C_29
REMARK                            x       y       z     vdW  Elec       q    Type
REMARK                         _______ _______ _______ _____ _____    ______ ____
ROOT
ATOM      1  C   UNL A   1     -23.873   1.070  26.558  0.00  0.00    +0.006 A 
ATOM      2  C   UNL A   1     -23.628   0.505  27.765  0.00  0.00    +0.076 A 
ATOM      3  C   UNL A   1     -22.389   0.638  28.383  0.00  0.00    +0.006 A 
ATOM      4  C   UNL A   1     -21.326   1.344  27.744  0.00  0.00    +0.000 A 
ATOM      5  C   UNL A   1     -22.773   1.787  26.015  0.00  0.00    +0.000 A 
ATOM      6  C   UNL A   1     -21.606   1.894  26.602  0.00  0.00    +0.000 A 
ENDROOT
BRANCH   1   9
ATOM      7  C   UNL A   1     -27.343   1.723  25.504  0.00  0.00    +0.044 A 
ATOM      8  C   UNL A   1     -26.285   1.845  26.076  0.00  0.00    +0.083 A 
ATOM      9  C   UNL A   1     -25.207   0.979  25.896  0.00  0.00    +0.007 A 
ATOM     10  C   UNL A   1     -25.361  -0.169  25.025  0.00  0.00    +0.003 A 
ATOM     11  C   UNL A   1     -26.603  -0.282  24.401  0.00  0.00    +0.038 A 
ATOM     12  C   UNL A   1     -27.574   0.579  24.638  0.00  0.00    +0.149 A 
BRANCH   8  13
ATOM     13  C   UNL A   1     -26.019   3.045  26.983  0.00  0.00    +0.388 C 
ATOM     14  O   UNL A   1     -26.185   3.074  28.133  0.00  0.00    -0.241 OA
ATOM     15  O   UNL A   1     -25.408   4.129  26.367  0.00  0.00    -0.241 OA
ENDBRANCH   8  13
BRANCH  12  16
ATOM     16  O   UNL A   1     -28.784   0.418  24.059  0.00  0.00    -0.417 OA
BRANCH  16  17
ATOM     17  C   UNL A   1     -29.821  -0.215  24.622  0.00  0.00    +0.415 C 
ATOM     18  O   UNL A   1     -30.575   0.383  25.400  0.00  0.00    -0.238 OA
BRANCH  17  19
ATOM     19  C   UNL A   1     -30.063  -1.428  24.084  0.00  0.00    +0.409 C 
ATOM     20  O   UNL A   1     -30.598  -2.336  24.618  0.00  0.00    -0.247 OA
ATOM     21  F   UNL A   1     -29.269  -1.780  23.054  0.00  0.00    -0.152 F 
ENDBRANCH  17  19
ENDBRANCH  16  17
ENDBRANCH  12  16
ENDBRANCH   1   9
BRANCH   2  22
ATOM     22  C   UNL A   1     -24.681  -0.331  28.461  0.00  0.00    +0.341 C 
ATOM     23  O   UNL A   1     -24.820  -1.375  28.125  0.00  0.00    -0.245 OA
BRANCH  22  24
ATOM     24  O   UNL A   1     -25.283   0.259  29.462  0.00  0.00    -0.439 OA
BRANCH  24  25
ATOM     25  C   UNL A   1     -25.392  -0.366  30.677  0.00  0.00    +0.284 C 
BRANCH  25  26
ATOM     26  C   UNL A   1     -24.334  -0.085  31.534  0.00  0.00    +0.388 C 
ATOM     27  F   UNL A   1     -23.892   1.205  31.231  0.00  0.00    -0.191 F 
ATOM     28  F   UNL A   1     -24.998   0.399  32.767  0.00  0.00    -0.191 F 
BRANCH  26  29
ATOM     29  C   UNL A   1     -23.424  -1.022  31.702  0.00  0.00    +0.458 C 
ATOM     30  F   UNL A   1     -22.387  -0.593  31.320  0.00  0.00    -0.165 F 
ATOM     31  F   UNL A   1     -23.726  -2.163  31.071  0.00  0.00    -0.165 F 
ATOM     32  F   UNL A   1     -23.437  -1.520  32.987  0.00  0.00    -0.165 F 
ENDBRANCH  26  29
ENDBRANCH  25  26
ENDBRANCH  24  25
ENDBRANCH  22  24
ENDBRANCH   2  22
TORSDOF 10
ENDMDL
ENDMDL
