REMARK  Name = No_1478-gen_results/8p0m/2024-11-26-14-13-15/
REMARK  3 active torsions:
REMARK  status: ('A' for Active; 'I' for Inactive)
REMARK    1  A    between atoms: C_2  and  C_7
REMARK    2  A    between atoms: C_3  and  C_11
REMARK    3  A    between atoms: C_11  and  C_12
REMARK                            x       y       z     vdW  Elec       q    Type
REMARK                         _______ _______ _______ _____ _____    ______ ____
ROOT
ATOM      1  C   UNL A   1     -28.016  -0.814  28.878  0.00  0.00    +0.004 A 
ATOM      2  C   UNL A   1     -28.469  -0.785  29.829  0.00  0.00    +0.080 A 
ATOM      3  C   UNL A   1     -26.546  -0.876  28.850  0.00  0.00    -0.007 A 
ATOM      4  C   UNL A   1     -25.804  -1.032  30.057  0.00  0.00    +0.054 A 
ATOM      5  C   UNL A   1     -27.944  -0.987  31.207  0.00  0.00    +0.007 A 
ATOM      6  C   UNL A   1     -26.582  -1.039  31.223  0.00  0.00    +0.011 A 
ATOM      7 CL   UNL A   1     -24.133  -0.976  29.894  0.00  0.00    -0.083 Cl
ENDROOT
BRANCH   2   8
ATOM      8  C   UNL A   1     -30.061  -0.737  29.902  0.00  0.00    +0.388 C 
ATOM      9  O   UNL A   1     -30.552  -0.277  29.011  0.00  0.00    -0.241 OA
ATOM     10  O   UNL A   1     -30.715  -1.554  30.795  0.00  0.00    -0.241 OA
ENDBRANCH   2   8
BRANCH   3  11
ATOM     11  C   UNL A   1     -25.686  -0.784  27.592  0.00  0.00    +0.053 C 
BRANCH  11  12
ATOM     12  C   UNL A   1     -25.522   0.596  27.100  0.00  0.00    -0.026 C 
ATOM     13  C   UNL A   1     -24.664   1.236  27.383  0.00  0.00    -0.030 C 
ATOM     14  C   UNL A   1     -23.599   0.964  28.417  0.00  0.00    +0.030 C 
ENDBRANCH  11  12
ENDBRANCH   3  11
TORSDOF 3
