MODEL 1478
MODEL 1
REMARK VINA RESULT:    -6.236      0.000      0.000
REMARK INTER + INTRA:          -7.738
REMARK INTER:                  -7.329
REMARK INTRA:                  -0.409
REMARK UNBOUND:                -0.409
REMARK  Name = No_1478-gen_results/8p0m/2024-11-26-14-13-15/
REMARK  3 active torsions:
REMARK  status: ('A' for Active; 'I' for Inactive)
REMARK    1  A    between atoms: C_2  and  C_7
REMARK    2  A    between atoms: C_3  and  C_11
REMARK    3  A    between atoms: C_11  and  C_12
REMARK                            x       y       z     vdW  Elec       q    Type
REMARK                         _______ _______ _______ _____ _____    ______ ____
ROOT
ATOM      1  C   UNL A   1     -28.408 -11.667  31.246  0.00  0.00    +0.004 A 
ATOM      2  C   UNL A   1     -28.289 -11.494  32.278  0.00  0.00    +0.080 A 
ATOM      3  C   UNL A   1     -29.378 -10.814  30.542  0.00  0.00    -0.007 A 
ATOM      4  C   UNL A   1     -30.006  -9.724  31.212  0.00  0.00    +0.054 A 
ATOM      5  C   UNL A   1     -28.766 -10.413  33.185  0.00  0.00    +0.007 A 
ATOM      6  C   UNL A   1     -29.676  -9.607  32.570  0.00  0.00    +0.011 A 
ATOM      7 CL   UNL A   1     -31.173  -8.902  30.327  0.00  0.00    -0.083 Cl
ENDROOT
BRANCH   2   8
ATOM      8  C   UNL A   1     -27.233 -12.385  33.074  0.00  0.00    +0.388 C 
ATOM      9  O   UNL A   1     -26.395 -12.777  32.449  0.00  0.00    -0.241 OA
ATOM     10  O   UNL A   1     -27.187 -12.302  34.446  0.00  0.00    -0.241 OA
ENDBRANCH   2   8
BRANCH   3  11
ATOM     11  C   UNL A   1     -29.807 -10.986  29.086  0.00  0.00    +0.053 C 
BRANCH  11  12
ATOM     12  C   UNL A   1     -29.076 -12.060  28.389  0.00  0.00    -0.026 C 
ATOM     13  C   UNL A   1     -29.056 -12.154  27.286  0.00  0.00    -0.030 C 
ATOM     14  C   UNL A   1     -29.859 -11.379  26.270  0.00  0.00    +0.030 C 
ENDBRANCH  11  12
ENDBRANCH   3  11
TORSDOF 3
ENDMDL
ENDMDL
