MODEL 1479
MODEL 1
REMARK VINA RESULT:    -4.547      0.000      0.000
REMARK INTER + INTRA:          -4.547
REMARK INTER:                  -4.547
REMARK INTRA:                   0.000
REMARK UNBOUND:                 0.000
REMARK  Name = No_1479-gen_results/8p0m/2024-11-26-14-13-15/
REMARK  0 active torsions:
REMARK  status: ('A' for Active; 'I' for Inactive)
REMARK                            x       y       z     vdW  Elec       q    Type
REMARK                         _______ _______ _______ _____ _____    ______ ____
ROOT
ATOM      1  C   UNL A   1      -8.870 -10.645  18.044  0.00  0.00    +0.030 A 
ATOM      2  C   UNL A   1      -9.775 -10.110  18.105  0.00  0.00    +0.140 A 
ATOM      3  C   UNL A   1      -7.910 -10.442  19.140  0.00  0.00    +0.002 A 
ATOM      4  C   UNL A   1      -8.267  -9.669  20.283  0.00  0.00    +0.000 A 
ATOM      5  C   UNL A   1     -10.404  -9.303  19.187  0.00  0.00    +0.030 A 
ATOM      6  C   UNL A   1      -9.539  -9.085  20.217  0.00  0.00    +0.002 A 
ATOM      7  F   UNL A   1     -10.727 -10.316  17.043  0.00  0.00    -0.204 F 
ENDROOT
TORSDOF 0
ENDMDL
ENDMDL
