REMARK  Name = No_148-gen_results/8p0m/2024-11-26-14-13-15/
REMARK  2 active torsions:
REMARK  status: ('A' for Active; 'I' for Inactive)
REMARK    1  A    between atoms: C_2  and  C_7
REMARK    2  A    between atoms: C_7  and  N_8
REMARK                            x       y       z     vdW  Elec       q    Type
REMARK                         _______ _______ _______ _____ _____    ______ ____
ROOT
ATOM      1  C   UNL A   1     -27.106   1.102  27.759  0.00  0.00    +0.245 C 
ATOM      2  F   UNL A   1     -25.929   1.811  27.622  0.00  0.00    -0.214 F 
ENDROOT
BRANCH   1   4
ATOM      3  C   UNL A   1     -28.016  -0.814  28.878  0.00  0.00    -0.000 A 
ATOM      4  C   UNL A   1     -27.064  -0.119  28.608  0.00  0.00    +0.026 A 
ATOM      5  C   UNL A   1     -25.792  -0.430  29.076  0.00  0.00    -0.000 A 
ATOM      6  C   UNL A   1     -25.576  -1.565  29.936  0.00  0.00    -0.000 A 
ATOM      7  C   UNL A   1     -26.735  -2.300  30.217  0.00  0.00    -0.000 A 
ATOM      8  C   UNL A   1     -27.918  -1.954  29.763  0.00  0.00    -0.000 A 
ENDBRANCH   1   4
BRANCH   1   9
ATOM      9  N   UNL A   1     -27.851   1.504  27.173  0.00  0.00    -0.243 NA
ATOM     10  C   UNL A   1     -29.158   1.213  27.375  0.00  0.00    +0.075 C 
ATOM     11  C   UNL A   1     -30.097   1.649  26.294  0.00  0.00    +0.018 C 
ATOM     12  C   UNL A   1     -27.757   2.332  25.947  0.00  0.00    +0.075 C 
ATOM     13  C   UNL A   1     -28.708   2.621  25.075  0.00  0.00    +0.018 C 
ATOM     14  C   UNL A   1     -29.968   2.394  25.344  0.00  0.00    +0.003 C 
ENDBRANCH   1   9
TORSDOF 2
