REMARK  Name = No_1480-gen_results/8p0m/2024-11-26-14-13-15/
REMARK  4 active torsions:
REMARK  status: ('A' for Active; 'I' for Inactive)
REMARK    1  A    between atoms: C_4  and  C_9
REMARK    2  A    between atoms: C_9  and  C_10
REMARK    3  A    between atoms: C_11  and  C_12
REMARK    4  A    between atoms: C_11  and  C_24
REMARK                            x       y       z     vdW  Elec       q    Type
REMARK                         _______ _______ _______ _____ _____    ______ ____
ROOT
ATOM      1  C   UNL A   1     -28.016  -0.814  28.878  0.00  0.00    +0.001 A 
ATOM      2  C   UNL A   1     -28.469  -0.785  29.829  0.00  0.00    +0.000 A 
ATOM      3  C   UNL A   1     -28.196   0.348  28.055  0.00  0.00    +0.014 A 
ATOM      4  C   UNL A   1     -27.442   0.510  26.795  0.00  0.00    -0.015 A 
ATOM      5  C   UNL A   1     -27.843   1.333  25.806  0.00  0.00    +0.014 A 
ATOM      6  C   UNL A   1     -29.496   0.109  30.345  0.00  0.00    +0.002 A 
ATOM      7  C   UNL A   1     -29.728   1.187  29.569  0.00  0.00    +0.019 A 
ATOM      8  C   UNL A   1     -29.042   1.367  28.372  0.00  0.00    +0.081 A 
ATOM      9  C   UNL A   1     -27.259   1.505  24.770  0.00  0.00    +0.001 A 
ATOM     10  C   UNL A   1     -27.898   2.294  23.764  0.00  0.00    +0.000 A 
ATOM     11  C   UNL A   1     -29.180   2.804  23.905  0.00  0.00    +0.002 A 
ATOM     12  C   UNL A   1     -29.845   2.605  25.112  0.00  0.00    +0.019 A 
ATOM     13  C   UNL A   1     -29.247   1.876  26.047  0.00  0.00    +0.081 A 
ATOM     14  N   UNL A   1     -29.790   1.847  27.316  0.00  0.00    -0.245 NA
ENDROOT
BRANCH   4  15
ATOM     15  C   UNL A   1     -26.128  -0.067  26.626  0.00  0.00    +0.052 C 
BRANCH  15  16
ATOM     16  C   UNL A   1     -25.247  -0.246  27.755  0.00  0.00    -0.017 C 
ATOM     17  C   UNL A   1     -24.704   0.731  28.550  0.00  0.00    +0.050 C 
BRANCH  17  18
ATOM     18  C   UNL A   1     -24.518   2.045  28.008  0.00  0.00    +0.004 A 
ATOM     19  C   UNL A   1     -23.550   2.166  27.195  0.00  0.00    +0.000 A 
ATOM     20  C   UNL A   1     -25.285   3.143  28.471  0.00  0.00    +0.000 A 
ATOM     21  C   UNL A   1     -25.163   4.425  27.882  0.00  0.00    +0.000 A 
ATOM     22  C   UNL A   1     -23.413   3.520  26.470  0.00  0.00    +0.000 A 
ATOM     23  C   UNL A   1     -24.263   4.566  26.852  0.00  0.00    +0.000 A 
ENDBRANCH  17  18
BRANCH  17  24
ATOM     24  C   UNL A   1     -24.508   0.547  29.961  0.00  0.00    +0.249 C 
ATOM     25  N   UNL A   1     -23.997  -0.518  30.398  0.00  0.00    -0.273 N 
ATOM     26  C   UNL A   1     -24.285  -1.029  31.619  0.00  0.00    +0.115 C 
ATOM     27  C   UNL A   1     -23.037  -1.209  29.646  0.00  0.00    +0.115 C 
ATOM     28  O   UNL A   1     -24.873   1.491  30.774  0.00  0.00    -0.270 OA
ENDBRANCH  17  24
ENDBRANCH  15  16
ENDBRANCH   4  15
TORSDOF 4
