MODEL 1480
MODEL 1
REMARK VINA RESULT:    -7.883      0.000      0.000
REMARK INTER + INTRA:         -10.720
REMARK INTER:                  -9.727
REMARK INTRA:                  -0.993
REMARK UNBOUND:                -0.993
REMARK  Name = No_1480-gen_results/8p0m/2024-11-26-14-13-15/
REMARK  4 active torsions:
REMARK  status: ('A' for Active; 'I' for Inactive)
REMARK    1  A    between atoms: C_4  and  C_9
REMARK    2  A    between atoms: C_9  and  C_10
REMARK    3  A    between atoms: C_11  and  C_12
REMARK    4  A    between atoms: C_11  and  C_24
REMARK                            x       y       z     vdW  Elec       q    Type
REMARK                         _______ _______ _______ _____ _____    ______ ____
ROOT
ATOM      1  C   UNL A   1     -27.775   0.648  25.427  0.00  0.00    +0.001 A 
ATOM      2  C   UNL A   1     -28.469   1.300  24.977  0.00  0.00    +0.000 A 
ATOM      3  C   UNL A   1     -26.644   1.265  26.060  0.00  0.00    +0.014 A 
ATOM      4  C   UNL A   1     -25.719   0.475  26.898  0.00  0.00    -0.015 A 
ATOM      5  C   UNL A   1     -24.461   0.875  27.172  0.00  0.00    +0.014 A 
ATOM      6  C   UNL A   1     -28.334   2.707  24.626  0.00  0.00    +0.002 A 
ATOM      7  C   UNL A   1     -27.252   3.306  25.163  0.00  0.00    +0.019 A 
ATOM      8  C   UNL A   1     -26.355   2.591  25.950  0.00  0.00    +0.081 A 
ATOM      9  C   UNL A   1     -23.677   0.273  27.855  0.00  0.00    +0.001 A 
ATOM     10  C   UNL A   1     -22.335   0.759  27.921  0.00  0.00    +0.000 A 
ATOM     11  C   UNL A   1     -21.887   1.844  27.181  0.00  0.00    +0.002 A 
ATOM     12  C   UNL A   1     -22.805   2.539  26.399  0.00  0.00    +0.019 A 
ATOM     13  C   UNL A   1     -24.053   2.088  26.343  0.00  0.00    +0.081 A 
ATOM     14  N   UNL A   1     -25.019   2.877  25.752  0.00  0.00    -0.245 NA
ENDROOT
BRANCH   4  15
ATOM     15  C   UNL A   1     -26.171  -0.688  27.626  0.00  0.00    +0.052 C 
BRANCH  15  16
ATOM     16  C   UNL A   1     -26.450  -0.614  29.041  0.00  0.00    -0.017 C 
ATOM     17  C   UNL A   1     -25.970  -1.437  30.028  0.00  0.00    +0.050 C 
BRANCH  17  18
ATOM     18  C   UNL A   1     -25.586  -2.776  29.691  0.00  0.00    +0.004 A 
ATOM     19  C   UNL A   1     -26.418  -3.679  30.016  0.00  0.00    +0.000 A 
ATOM     20  C   UNL A   1     -24.302  -3.058  29.160  0.00  0.00    +0.000 A 
ATOM     21  C   UNL A   1     -23.948  -4.366  28.749  0.00  0.00    +0.000 A 
ATOM     22  C   UNL A   1     -26.117  -5.112  29.532  0.00  0.00    +0.000 A 
ATOM     23  C   UNL A   1     -24.893  -5.354  28.896  0.00  0.00    +0.000 A 
ENDBRANCH  17  18
BRANCH  17  24
ATOM     24  C   UNL A   1     -25.643  -0.948  31.338  0.00  0.00    +0.249 C 
ATOM     25  N   UNL A   1     -26.551  -0.537  32.108  0.00  0.00    -0.273 N 
ATOM     26  C   UNL A   1     -26.349   0.422  33.043  0.00  0.00    +0.115 C 
ATOM     27  C   UNL A   1     -27.830  -1.109  32.071  0.00  0.00    +0.115 C 
ATOM     28  O   UNL A   1     -24.400  -0.932  31.710  0.00  0.00    -0.270 OA
ENDBRANCH  17  24
ENDBRANCH  15  16
ENDBRANCH   4  15
TORSDOF 4
ENDMDL
ENDMDL
