MODEL 1481
MODEL 1
REMARK VINA RESULT:    -5.777      0.000      0.000
REMARK INTER + INTRA:          -5.777
REMARK INTER:                  -5.777
REMARK INTRA:                   0.000
REMARK UNBOUND:                 0.000
REMARK  Name = No_1481-gen_results/8p0m/2024-11-26-14-13-15/
REMARK  0 active torsions:
REMARK  status: ('A' for Active; 'I' for Inactive)
REMARK                            x       y       z     vdW  Elec       q    Type
REMARK                         _______ _______ _______ _____ _____    ______ ____
ROOT
ATOM      1  C   UNL A   1     -26.518  -3.920  29.896  0.00  0.00    +0.000 A 
ATOM      2  C   UNL A   1     -26.156  -4.880  29.653  0.00  0.00    +0.000 A 
ATOM      3  C   UNL A   1     -25.597  -2.794  29.676  0.00  0.00    +0.000 A 
ATOM      4  C   UNL A   1     -25.796  -1.406  30.064  0.00  0.00    +0.002 A 
ATOM      5  C   UNL A   1     -24.941  -5.318  28.924  0.00  0.00    +0.000 A 
ATOM      6  C   UNL A   1     -24.021  -4.307  28.672  0.00  0.00    +0.000 A 
ATOM      7  C   UNL A   1     -24.307  -3.001  29.007  0.00  0.00    +0.002 A 
ATOM      8  C   UNL A   1     -24.688  -0.568  30.366  0.00  0.00    +0.030 A 
ATOM      9  C   UNL A   1     -23.479  -0.816  29.659  0.00  0.00    +0.140 A 
ATOM     10  C   UNL A   1     -23.263  -2.017  29.066  0.00  0.00    +0.030 A 
ATOM     11  F   UNL A   1     -22.518   0.097  29.725  0.00  0.00    -0.204 F 
ENDROOT
TORSDOF 0
ENDMDL
ENDMDL
