MODEL 1482
MODEL 1
REMARK VINA RESULT:    -5.460      0.000      0.000
REMARK INTER + INTRA:          -6.235
REMARK INTER:                  -6.098
REMARK INTRA:                  -0.137
REMARK UNBOUND:                -0.137
REMARK  Name = No_1482-gen_results/8p0m/2024-11-26-14-13-15/
REMARK  2 active torsions:
REMARK  status: ('A' for Active; 'I' for Inactive)
REMARK    1  A    between atoms: C_2  and  C_7
REMARK    2  A    between atoms: C_7  and  C_8
REMARK                            x       y       z     vdW  Elec       q    Type
REMARK                         _______ _______ _______ _____ _____    ______ ____
ROOT
ATOM      1  C   UNL A   1     -23.950  -3.352  28.553  0.00  0.00    -0.004 A 
ATOM      2  C   UNL A   1     -24.770  -2.654  29.102  0.00  0.00    -0.018 A 
ATOM      3  C   UNL A   1     -25.898  -3.127  29.690  0.00  0.00    -0.004 A 
ATOM      4  C   UNL A   1     -26.135  -4.515  29.661  0.00  0.00    -0.000 A 
ATOM      5  C   UNL A   1     -24.079  -4.787  28.570  0.00  0.00    -0.000 A 
ATOM      6  C   UNL A   1     -25.210  -5.311  29.122  0.00  0.00    -0.000 A 
ENDROOT
BRANCH   2   7
ATOM      7  C   UNL A   1     -24.617  -1.143  29.217  0.00  0.00    +0.052 C 
BRANCH   7   8
ATOM      8  C   UNL A   1     -23.357  -0.598  28.592  0.00  0.00    -0.026 C 
ATOM      9  C   UNL A   1     -22.139  -0.566  29.237  0.00  0.00    -0.030 C 
ATOM     10  C   UNL A   1     -21.028   0.020  28.590  0.00  0.00    +0.030 C 
ENDBRANCH   7   8
ENDBRANCH   2   7
TORSDOF 2
ENDMDL
ENDMDL
