REMARK  Name = No_1483-gen_results/8p0m/2024-11-26-14-13-15/
REMARK  0 active torsions:
REMARK  status: ('A' for Active; 'I' for Inactive)
REMARK                            x       y       z     vdW  Elec       q    Type
REMARK                         _______ _______ _______ _____ _____    ______ ____
ROOT
ATOM      1  C   UNL A   1     -28.016  -0.814  28.878  0.00  0.00    +0.006 A 
ATOM      2  C   UNL A   1     -28.469  -0.785  29.829  0.00  0.00    +0.069 A 
ATOM      3  C   UNL A   1     -26.504  -0.778  28.877  0.00  0.00    +0.000 A 
ATOM      4  C   UNL A   1     -25.915  -0.658  29.923  0.00  0.00    +0.001 A 
ATOM      5  C   UNL A   1     -27.969  -0.724  31.205  0.00  0.00    +0.071 A 
ATOM      6  C   UNL A   1     -26.585  -0.639  31.206  0.00  0.00    +0.016 A 
ATOM      7  C   UNL A   1     -30.075  -0.883  29.905  0.00  0.00    +0.251 C 
ATOM      8  O   UNL A   1     -30.593  -0.484  28.944  0.00  0.00    -0.270 OA
ATOM      9  N   UNL A   1     -30.719  -1.472  30.969  0.00  0.00    -0.260 N 
ATOM     10  C   UNL A   1     -32.143  -1.602  30.920  0.00  0.00    +0.095 C 
ATOM     11  C   UNL A   1     -32.611  -2.457  31.642  0.00  0.00    +0.022 C 
ATOM     12  C   UNL A   1     -31.855  -3.150  32.724  0.00  0.00    +0.005 C 
ATOM     13  C   UNL A   1     -30.453  -2.991  32.704  0.00  0.00    +0.042 C 
ATOM     14  C   UNL A   1     -29.875  -2.273  31.801  0.00  0.00    +0.169 C 
ATOM     15  N   UNL A   1     -28.559  -1.944  31.985  0.00  0.00    -0.219 NA
ENDROOT
TORSDOF 0
