MODEL 1483
MODEL 1
REMARK VINA RESULT:    -6.979      0.000      0.000
REMARK INTER + INTRA:          -6.979
REMARK INTER:                  -6.979
REMARK INTRA:                   0.000
REMARK UNBOUND:                 0.000
REMARK  Name = No_1483-gen_results/8p0m/2024-11-26-14-13-15/
REMARK  0 active torsions:
REMARK  status: ('A' for Active; 'I' for Inactive)
REMARK                            x       y       z     vdW  Elec       q    Type
REMARK                         _______ _______ _______ _____ _____    ______ ____
ROOT
ATOM      1  C   UNL A   1     -24.355   0.616  28.418  0.00  0.00    +0.006 A 
ATOM      2  C   UNL A   1     -24.129  -0.264  28.953  0.00  0.00    +0.069 A 
ATOM      3  C   UNL A   1     -23.163   1.375  27.882  0.00  0.00    +0.000 A 
ATOM      4  C   UNL A   1     -22.050   0.985  28.137  0.00  0.00    +0.001 A 
ATOM      5  C   UNL A   1     -22.890  -0.961  29.309  0.00  0.00    +0.071 A 
ATOM      6  C   UNL A   1     -21.793  -0.240  28.863  0.00  0.00    +0.016 A 
ATOM      7  C   UNL A   1     -25.355  -1.154  29.498  0.00  0.00    +0.251 C 
ATOM      8  O   UNL A   1     -26.314  -0.525  29.690  0.00  0.00    -0.270 OA
ATOM      9  N   UNL A   1     -25.266  -2.522  29.616  0.00  0.00    -0.260 N 
ATOM     10  C   UNL A   1     -26.429  -3.252  30.021  0.00  0.00    +0.095 C 
ATOM     11  C   UNL A   1     -26.433  -4.427  29.723  0.00  0.00    +0.022 C 
ATOM     12  C   UNL A   1     -25.240  -5.176  29.234  0.00  0.00    +0.005 C 
ATOM     13  C   UNL A   1     -24.135  -4.394  28.837  0.00  0.00    +0.042 C 
ATOM     14  C   UNL A   1     -24.166  -3.106  28.912  0.00  0.00    +0.169 C 
ATOM     15  N   UNL A   1     -22.989  -2.424  28.766  0.00  0.00    -0.219 NA
ENDROOT
TORSDOF 0
ENDMDL
ENDMDL
