MODEL 1484
MODEL 1
REMARK VINA RESULT:    -6.470      0.000      0.000
REMARK INTER + INTRA:          -7.753
REMARK INTER:                  -7.226
REMARK INTRA:                  -0.527
REMARK UNBOUND:                -0.527
REMARK  Name = No_1484-gen_results/8p0m/2024-11-26-14-13-15/
REMARK  2 active torsions:
REMARK  status: ('A' for Active; 'I' for Inactive)
REMARK    1  A    between atoms: C_1  and  C_2
REMARK    2  A    between atoms: C_1  and  C_3
REMARK                            x       y       z     vdW  Elec       q    Type
REMARK                         _______ _______ _______ _____ _____    ______ ____
ROOT
ATOM      1  C   UNL A   1     -24.489  -1.505  29.636  0.00  0.00    +0.053 C 
ENDROOT
BRANCH   1   2
ATOM      2  C   UNL A   1     -24.742  -2.480  29.325  0.00  0.00    -0.018 A 
ATOM      3  C   UNL A   1     -26.036  -3.047  29.644  0.00  0.00    -0.004 A 
ATOM      4  C   UNL A   1     -26.219  -4.324  29.747  0.00  0.00    -0.000 A 
ATOM      5  C   UNL A   1     -25.330  -5.260  29.093  0.00  0.00    -0.000 A 
ATOM      6  C   UNL A   1     -24.161  -4.794  28.618  0.00  0.00    -0.000 A 
ATOM      7  C   UNL A   1     -23.825  -3.542  28.761  0.00  0.00    -0.004 A 
ENDBRANCH   1   2
BRANCH   1   8
ATOM      8  C   UNL A   1     -23.627  -0.795  28.692  0.00  0.00    -0.018 A 
ATOM      9  C   UNL A   1     -22.390  -0.357  29.015  0.00  0.00    -0.004 A 
ATOM     10  C   UNL A   1     -21.896   0.766  28.495  0.00  0.00    -0.000 A 
ATOM     11  C   UNL A   1     -22.478   1.453  27.375  0.00  0.00    -0.000 A 
ATOM     12  C   UNL A   1     -23.768   1.042  27.043  0.00  0.00    -0.000 A 
ATOM     13  C   UNL A   1     -24.336   0.004  27.787  0.00  0.00    -0.004 A 
ENDBRANCH   1   8
TORSDOF 2
ENDMDL
ENDMDL
