REMARK  Name = No_1485-gen_results/8p0m/2024-11-26-14-13-15/
REMARK  2 active torsions:
REMARK  status: ('A' for Active; 'I' for Inactive)
REMARK    1  A    between atoms: C_2  and  N_7
REMARK    2  A    between atoms: C_4  and  C_13
REMARK                            x       y       z     vdW  Elec       q    Type
REMARK                         _______ _______ _______ _____ _____    ______ ____
ROOT
ATOM      1  C   UNL A   1     -28.016  -0.814  28.878  0.00  0.00    +0.044 A 
ATOM      2  C   UNL A   1     -28.469  -0.785  29.829  0.00  0.00    +0.050 A 
ATOM      3  C   UNL A   1     -26.546  -0.876  28.850  0.00  0.00    +0.141 A 
ATOM      4  C   UNL A   1     -25.804  -1.032  30.057  0.00  0.00    +0.028 A 
ATOM      5  C   UNL A   1     -27.944  -0.987  31.207  0.00  0.00    +0.015 A 
ATOM      6  C   UNL A   1     -26.582  -1.039  31.223  0.00  0.00    +0.004 A 
ATOM      7  F   UNL A   1     -25.920  -0.636  27.689  0.00  0.00    -0.204 F 
ENDROOT
BRANCH   2   8
ATOM      8  N   UNL A   1     -29.965  -0.735  29.890  0.00  0.00    -0.307 N 
ATOM      9  C   UNL A   1     -30.771  -1.535  30.355  0.00  0.00    +0.093 C 
ATOM     10  C   UNL A   1     -32.141  -1.374  30.145  0.00  0.00    +0.054 C 
ATOM     11  C   UNL A   1     -30.536  -0.003  28.836  0.00  0.00    +0.093 C 
ATOM     12  C   UNL A   1     -31.829   0.180  28.625  0.00  0.00    +0.054 C 
ATOM     13  C   UNL A   1     -32.674  -0.620  29.313  0.00  0.00    +0.155 C 
ATOM     14  O   UNL A   1     -34.016  -0.533  29.147  0.00  0.00    -0.223 OA
ENDBRANCH   2   8
BRANCH   4  15
ATOM     15  C   UNL A   1     -24.372  -1.083  30.065  0.00  0.00    +0.002 A 
ATOM     16  C   UNL A   1     -23.725   0.200  30.049  0.00  0.00    +0.000 A 
ATOM     17  C   UNL A   1     -22.520   0.350  29.291  0.00  0.00    +0.000 A 
ATOM     18  C   UNL A   1     -21.867  -0.899  28.949  0.00  0.00    +0.000 A 
ATOM     19  C   UNL A   1     -22.579  -2.054  28.925  0.00  0.00    +0.000 A 
ATOM     20  C   UNL A   1     -23.803  -2.201  29.484  0.00  0.00    +0.000 A 
ENDBRANCH   4  15
TORSDOF 2
