MODEL 1485
MODEL 1
REMARK VINA RESULT:    -6.669      0.000      0.000
REMARK INTER + INTRA:          -8.276
REMARK INTER:                  -7.448
REMARK INTRA:                  -0.828
REMARK UNBOUND:                -0.828
REMARK  Name = No_1485-gen_results/8p0m/2024-11-26-14-13-15/
REMARK  2 active torsions:
REMARK  status: ('A' for Active; 'I' for Inactive)
REMARK    1  A    between atoms: C_2  and  N_7
REMARK    2  A    between atoms: C_4  and  C_13
REMARK                            x       y       z     vdW  Elec       q    Type
REMARK                         _______ _______ _______ _____ _____    ______ ____
ROOT
ATOM      1  C   UNL A   1     -27.721  -0.003  24.347  0.00  0.00    +0.044 A 
ATOM      2  C   UNL A   1     -28.155   0.956  24.400  0.00  0.00    +0.050 A 
ATOM      3  C   UNL A   1     -26.351  -0.136  24.866  0.00  0.00    +0.141 A 
ATOM      4  C   UNL A   1     -25.719   0.955  25.532  0.00  0.00    +0.028 A 
ATOM      5  C   UNL A   1     -27.746   2.216  25.080  0.00  0.00    +0.015 A 
ATOM      6  C   UNL A   1     -26.476   2.134  25.566  0.00  0.00    +0.004 A 
ATOM      7  F   UNL A   1     -25.663  -1.248  24.571  0.00  0.00    -0.204 F 
ENDROOT
BRANCH   2   8
ATOM      8  N   UNL A   1     -29.555   1.120  23.891  0.00  0.00    -0.307 N 
ATOM      9  C   UNL A   1     -30.386   0.281  23.560  0.00  0.00    +0.093 C 
ATOM     10  C   UNL A   1     -31.577   0.659  22.939  0.00  0.00    +0.054 C 
ATOM     11  C   UNL A   1     -29.750   2.323  23.192  0.00  0.00    +0.093 C 
ATOM     12  C   UNL A   1     -30.872   2.713  22.611  0.00  0.00    +0.054 C 
ATOM     13  C   UNL A   1     -31.825   1.770  22.440  0.00  0.00    +0.155 C 
ATOM     14  O   UNL A   1     -33.000   2.060  21.830  0.00  0.00    -0.223 OA
ENDBRANCH   2   8
BRANCH   4  15
ATOM     15  C   UNL A   1     -24.382   0.861  26.038  0.00  0.00    +0.002 A 
ATOM     16  C   UNL A   1     -24.262   0.180  27.298  0.00  0.00    +0.000 A 
ATOM     17  C   UNL A   1     -23.309   0.663  28.250  0.00  0.00    +0.000 A 
ATOM     18  C   UNL A   1     -22.292   1.534  27.692  0.00  0.00    +0.000 A 
ATOM     19  C   UNL A   1     -22.524   2.191  26.528  0.00  0.00    +0.000 A 
ATOM     20  C   UNL A   1     -23.522   1.879  25.668  0.00  0.00    +0.000 A 
ENDBRANCH   4  15
TORSDOF 2
ENDMDL
ENDMDL
