MODEL 1486
MODEL 1
REMARK VINA RESULT:    -8.828      0.000      0.000
REMARK INTER + INTRA:          -9.849
REMARK INTER:                  -9.344
REMARK INTRA:                  -0.505
REMARK UNBOUND:                -0.505
REMARK  Name = No_1486-gen_results/8p0m/2024-11-26-14-13-15/
REMARK  1 active torsions:
REMARK  status: ('A' for Active; 'I' for Inactive)
REMARK    1  A    between atoms: C_6  and  C_8
REMARK                            x       y       z     vdW  Elec       q    Type
REMARK                         _______ _______ _______ _____ _____    ______ ____
ROOT
ATOM      1  C   UNL A   1     -22.927 -13.855   4.825  0.00  0.00    -0.000 A 
ATOM      2  C   UNL A   1     -22.756 -14.669   5.517  0.00  0.00    +0.000 A 
ATOM      3  C   UNL A   1     -23.745 -15.310   6.435  0.00  0.00    +0.004 A 
ATOM      4  C   UNL A   1     -25.064 -14.815   6.320  0.00  0.00    +0.050 A 
ATOM      5  C   UNL A   1     -25.313 -13.805   5.446  0.00  0.00    -0.016 A 
ATOM      6  C   UNL A   1     -24.325 -13.240   4.673  0.00  0.00    -0.004 A 
ATOM      7  C   UNL A   1     -26.110 -15.399   7.149  0.00  0.00    +0.252 C 
ATOM      8  N   UNL A   1     -27.002 -14.669   7.513  0.00  0.00    -0.256 N 
ATOM      9  O   UNL A   1     -25.879 -16.515   7.672  0.00  0.00    -0.270 OA
ATOM     10  C   UNL A   1     -28.019 -14.907   8.263  0.00  0.00    +0.055 A 
ATOM     11  C   UNL A   1     -28.569 -15.799   8.723  0.00  0.00    +0.015 A 
ATOM     12  C   UNL A   1     -29.684 -15.938   9.566  0.00  0.00    +0.003 A 
ATOM     13  C   UNL A   1     -30.307 -14.750   9.950  0.00  0.00    +0.019 A 
ATOM     14  C   UNL A   1     -29.794 -13.550   9.498  0.00  0.00    +0.082 A 
ATOM     15  C   UNL A   1     -28.717 -13.514   8.653  0.00  0.00    +0.028 A 
ATOM     16  N   UNL A   1     -30.401 -12.358   9.846  0.00  0.00    -0.244 NA
ATOM     17  C   UNL A   1     -29.977 -11.241   9.671  0.00  0.00    +0.103 A 
ATOM     18  C   UNL A   1     -28.866 -11.177   8.763  0.00  0.00    +0.070 A 
ATOM     19  C   UNL A   1     -28.169 -12.254   8.264  0.00  0.00    -0.011 A 
ATOM     20  C   UNL A   1     -28.259  -9.819   8.354  0.00  0.00    +0.266 C 
ATOM     21  O   UNL A   1     -28.455  -8.828   8.701  0.00  0.00    -0.268 OA
ATOM     22  N   UNL A   1     -27.266  -9.964   7.310  0.00  0.00    -0.201 NA
ATOM     23  C   UNL A   1     -27.053 -10.846   6.448  0.00  0.00    +0.121 C 
ATOM     24  C   UNL A   1     -27.351 -12.116   7.105  0.00  0.00    +0.063 C 
ATOM     25  C   UNL A   1     -26.374 -13.232   7.011  0.00  0.00    +0.090 C 
ATOM     26  C   UNL A   1     -25.266 -12.894   6.613  0.00  0.00    +0.047 C 
ENDROOT
BRANCH   1  32
ATOM     27  C   UNL A   1     -21.184 -12.563   1.738  0.00  0.00    +0.030 A 
ATOM     28  C   UNL A   1     -20.269 -11.977   2.269  0.00  0.00    +0.140 A 
ATOM     29  C   UNL A   1     -20.042 -11.838   3.544  0.00  0.00    +0.030 A 
ATOM     30  C   UNL A   1     -20.970 -12.423   4.459  0.00  0.00    +0.002 A 
ATOM     31  C   UNL A   1     -22.104 -13.280   2.601  0.00  0.00    +0.002 A 
ATOM     32  C   UNL A   1     -21.954 -13.175   3.921  0.00  0.00    +0.000 A 
ATOM     33  F   UNL A   1     -19.323 -11.353   1.464  0.00  0.00    -0.204 F 
ENDBRANCH   1  32
TORSDOF 1
ENDMDL
ENDMDL
