REMARK  Name = No_1486-gen_results/8p0m/2024-11-26-14-13-15/
REMARK  1 active torsions:
REMARK  status: ('A' for Active; 'I' for Inactive)
REMARK    1  A    between atoms: C_6  and  C_8
REMARK                            x       y       z     vdW  Elec       q    Type
REMARK                         _______ _______ _______ _____ _____    ______ ____
ROOT
ATOM      1  C   UNL A   1     -30.021   1.685  30.872  0.00  0.00    -0.000 A 
ATOM      2  C   UNL A   1     -31.037   1.347  31.031  0.00  0.00    +0.000 A 
ATOM      3  C   UNL A   1     -32.089   1.985  31.877  0.00  0.00    +0.004 A 
ATOM      4  C   UNL A   1     -31.704   3.205  32.478  0.00  0.00    +0.050 A 
ATOM      5  C   UNL A   1     -30.440   3.664  32.282  0.00  0.00    -0.016 A 
ATOM      6  C   UNL A   1     -29.518   2.980  31.523  0.00  0.00    -0.004 A 
ATOM      7  C   UNL A   1     -32.672   3.924  33.296  0.00  0.00    +0.252 C 
ATOM      8  N   UNL A   1     -32.246   4.552  34.237  0.00  0.00    -0.256 N 
ATOM      9  O   UNL A   1     -33.881   3.619  33.164  0.00  0.00    -0.270 OA
ATOM     10  C   UNL A   1     -32.866   5.241  35.127  0.00  0.00    +0.055 A 
ATOM     11  C   UNL A   1     -33.912   5.663  35.326  0.00  0.00    +0.015 A 
ATOM     12  C   UNL A   1     -34.491   6.401  36.372  0.00  0.00    +0.003 A 
ATOM     13  C   UNL A   1     -33.640   6.731  37.427  0.00  0.00    +0.019 A 
ATOM     14  C   UNL A   1     -32.325   6.313  37.380  0.00  0.00    +0.082 A 
ATOM     15  C   UNL A   1     -31.840   5.620  36.303  0.00  0.00    +0.028 A 
ATOM     16  N   UNL A   1     -31.453   6.641  38.402  0.00  0.00    -0.244 NA
ATOM     17  C   UNL A   1     -30.339   6.212  38.580  0.00  0.00    +0.103 A 
ATOM     18  C   UNL A   1     -29.799   5.508  37.450  0.00  0.00    +0.070 A 
ATOM     19  C   UNL A   1     -30.495   5.141  36.321  0.00  0.00    -0.011 A 
ATOM     20  C   UNL A   1     -28.352   4.973  37.473  0.00  0.00    +0.266 C 
ATOM     21  O   UNL A   1     -27.627   4.939  38.256  0.00  0.00    -0.268 OA
ATOM     22  N   UNL A   1     -27.951   4.448  36.184  0.00  0.00    -0.201 NA
ATOM     23  C   UNL A   1     -28.355   4.644  35.016  0.00  0.00    +0.121 C 
ATOM     24  C   UNL A   1     -29.804   4.795  35.123  0.00  0.00    +0.063 C 
ATOM     25  C   UNL A   1     -30.686   4.024  34.208  0.00  0.00    +0.090 C 
ATOM     26  C   UNL A   1     -30.120   3.112  33.618  0.00  0.00    +0.047 C 
ENDROOT
BRANCH   1  32
ATOM     27  C   UNL A   1     -28.016  -0.814  28.878  0.00  0.00    +0.030 A 
ATOM     28  C   UNL A   1     -27.064  -0.119  28.608  0.00  0.00    +0.140 A 
ATOM     29  C   UNL A   1     -26.876   1.133  28.913  0.00  0.00    +0.030 A 
ATOM     30  C   UNL A   1     -27.901   1.807  29.644  0.00  0.00    +0.002 A 
ATOM     31  C   UNL A   1     -29.046  -0.232  29.718  0.00  0.00    +0.002 A 
ATOM     32  C   UNL A   1     -28.940   1.052  30.060  0.00  0.00    +0.000 A 
ATOM     33  F   UNL A   1     -26.021  -0.677  27.877  0.00  0.00    -0.204 F 
ENDBRANCH   1  32
TORSDOF 1
