MODEL 1487
MODEL 1
REMARK VINA RESULT:    -5.715      0.000      0.000
REMARK INTER + INTRA:          -6.223
REMARK INTER:                  -6.049
REMARK INTRA:                  -0.174
REMARK UNBOUND:                -0.174
REMARK  Name = No_1487-gen_results/8p0m/2024-11-26-14-13-15/
REMARK  1 active torsions:
REMARK  status: ('A' for Active; 'I' for Inactive)
REMARK    1  A    between atoms: C_3  and  C_7
REMARK                            x       y       z     vdW  Elec       q    Type
REMARK                         _______ _______ _______ _____ _____    ______ ____
ROOT
ATOM      1  C   UNL A   1     -24.291  -5.006  28.642  0.00  0.00    -0.000 A 
ATOM      2  C   UNL A   1     -23.841  -3.883  28.659  0.00  0.00    +0.004 A 
ATOM      3  C   UNL A   1     -24.523  -2.758  29.089  0.00  0.00    +0.071 A 
ATOM      4  C   UNL A   1     -25.850  -2.949  29.575  0.00  0.00    -0.000 A 
ATOM      5  C   UNL A   1     -26.268  -4.220  29.693  0.00  0.00    -0.022 A 
ATOM      6  C   UNL A   1     -25.537  -5.225  29.303  0.00  0.00    -0.004 A 
ATOM      7  C   UNL A   1     -27.633  -4.407  30.242  0.00  0.00    +0.031 C 
ENDROOT
BRANCH   3   8
ATOM      8  C   UNL A   1     -23.968  -1.363  28.960  0.00  0.00    +0.419 C 
ATOM      9  F   UNL A   1     -24.226  -0.610  29.876  0.00  0.00    -0.166 F 
ATOM     10  F   UNL A   1     -22.578  -1.445  28.924  0.00  0.00    -0.166 F 
ATOM     11  F   UNL A   1     -24.228  -0.837  27.739  0.00  0.00    -0.166 F 
ENDBRANCH   3   8
TORSDOF 1
ENDMDL
ENDMDL
