REMARK  Name = No_1487-gen_results/8p0m/2024-11-26-14-13-15/
REMARK  1 active torsions:
REMARK  status: ('A' for Active; 'I' for Inactive)
REMARK    1  A    between atoms: C_3  and  C_7
REMARK                            x       y       z     vdW  Elec       q    Type
REMARK                         _______ _______ _______ _____ _____    ______ ____
ROOT
ATOM      1  C   UNL A   1     -28.016  -0.814  28.878  0.00  0.00    -0.000 A 
ATOM      2  C   UNL A   1     -27.064  -0.119  28.608  0.00  0.00    +0.004 A 
ATOM      3  C   UNL A   1     -26.972   0.714  27.506  0.00  0.00    +0.071 A 
ATOM      4  C   UNL A   1     -28.105   0.774  26.642  0.00  0.00    -0.000 A 
ATOM      5  C   UNL A   1     -29.204   0.118  27.048  0.00  0.00    -0.022 A 
ATOM      6  C   UNL A   1     -29.213  -0.609  28.128  0.00  0.00    -0.004 A 
ATOM      7  C   UNL A   1     -30.389   0.226  26.162  0.00  0.00    +0.031 C 
ENDROOT
BRANCH   3   8
ATOM      8  C   UNL A   1     -25.711   1.452  27.138  0.00  0.00    +0.419 C 
ATOM      9  F   UNL A   1     -25.610   1.767  25.970  0.00  0.00    -0.166 F 
ATOM     10  F   UNL A   1     -25.679   2.648  27.851  0.00  0.00    -0.166 F 
ATOM     11  F   UNL A   1     -24.612   0.830  27.627  0.00  0.00    -0.166 F 
ENDBRANCH   3   8
TORSDOF 1
