MODEL 1488
MODEL 1
REMARK VINA RESULT:    -4.592      0.000      0.000
REMARK INTER + INTRA:          -4.874
REMARK INTER:                  -4.860
REMARK INTRA:                  -0.014
REMARK UNBOUND:                -0.014
REMARK  Name = No_1488-gen_results/8p0m/2024-11-26-14-13-15/
REMARK  1 active torsions:
REMARK  status: ('A' for Active; 'I' for Inactive)
REMARK    1  A    between atoms: C_1  and  C_2
REMARK                            x       y       z     vdW  Elec       q    Type
REMARK                         _______ _______ _______ _____ _____    ______ ____
ROOT
ATOM      1  C   UNL A   1     -24.162  -2.627  29.378  0.00  0.00    +0.021 A 
ATOM      2  C   UNL A   1     -25.605  -2.404  29.532  0.00  0.00    +0.002 A 
ATOM      3  C   UNL A   1     -26.501  -3.503  29.939  0.00  0.00    +0.000 A 
ATOM      4  C   UNL A   1     -26.147  -4.816  29.555  0.00  0.00    +0.000 A 
ATOM      5  C   UNL A   1     -24.869  -5.058  28.990  0.00  0.00    +0.000 A 
ATOM      6  C   UNL A   1     -23.999  -4.041  28.818  0.00  0.00    +0.002 A 
ENDROOT
BRANCH   1   7
ATOM      7  C   UNL A   1     -23.656  -1.813  28.939  0.00  0.00    +0.122 C 
ATOM      8  N   UNL A   1     -22.424  -1.494  28.962  0.00  0.00    -0.146 NA
ENDBRANCH   1   7
TORSDOF 1
ENDMDL
ENDMDL
