MODEL 1489
MODEL 1
REMARK VINA RESULT:    -4.586      0.000      0.000
REMARK INTER + INTRA:          -5.508
REMARK INTER:                  -5.391
REMARK INTRA:                  -0.117
REMARK UNBOUND:                -0.117
REMARK  Name = No_1489-gen_results/8p0m/2024-11-26-14-13-15/
REMARK  3 active torsions:
REMARK  status: ('A' for Active; 'I' for Inactive)
REMARK    1  A    between atoms: C_1  and  C_2
REMARK    2  A    between atoms: C_1  and  N_8
REMARK    3  A    between atoms: C_5  and  C_10
REMARK                            x       y       z     vdW  Elec       q    Type
REMARK                         _______ _______ _______ _____ _____    ______ ____
ROOT
ATOM      1  C   UNL A   1     -18.975 -20.307   6.357  0.00  0.00    -0.005 A 
ATOM      2  C   UNL A   1     -17.598 -20.373   6.279  0.00  0.00    -0.003 A 
ATOM      3  C   UNL A   1     -16.737 -21.155   7.148  0.00  0.00    +0.001 A 
ATOM      4  C   UNL A   1     -17.326 -21.917   8.181  0.00  0.00    +0.021 A 
ATOM      5  C   UNL A   1     -18.764 -21.868   8.264  0.00  0.00    +0.001 A 
ATOM      6  C   UNL A   1     -19.562 -21.149   7.406  0.00  0.00    -0.003 A 
ENDROOT
BRANCH   4   7
ATOM      7  C   UNL A   1     -16.544 -22.706   9.085  0.00  0.00    +0.122 C 
ATOM      8  N   UNL A   1     -16.093 -22.161  10.169  0.00  0.00    -0.146 NA
ENDBRANCH   4   7
BRANCH   1   9
ATOM      9  C   UNL A   1     -19.661 -19.695   5.572  0.00  0.00    +0.115 C 
BRANCH   9  10
ATOM     10  N   UNL A   1     -19.746 -18.338   5.782  0.00  0.00    -0.212 NA
ATOM     11  C   UNL A   1     -20.892 -17.791   6.237  0.00  0.00    +0.108 C 
ENDBRANCH   9  10
ENDBRANCH   1   9
TORSDOF 3
ENDMDL
ENDMDL
