REMARK  Name = No_1489-gen_results/8p0m/2024-11-26-14-13-15/
REMARK  3 active torsions:
REMARK  status: ('A' for Active; 'I' for Inactive)
REMARK    1  A    between atoms: C_1  and  C_2
REMARK    2  A    between atoms: C_1  and  N_8
REMARK    3  A    between atoms: C_5  and  C_10
REMARK                            x       y       z     vdW  Elec       q    Type
REMARK                         _______ _______ _______ _____ _____    ______ ____
ROOT
ATOM      1  C   UNL A   1     -27.064  -0.119  28.608  0.00  0.00    -0.005 A 
ATOM      2  C   UNL A   1     -27.001   0.691  27.491  0.00  0.00    -0.003 A 
ATOM      3  C   UNL A   1     -25.855   1.482  27.083  0.00  0.00    +0.001 A 
ATOM      4  C   UNL A   1     -24.690   1.453  27.881  0.00  0.00    +0.021 A 
ATOM      5  C   UNL A   1     -24.738   0.601  29.042  0.00  0.00    +0.001 A 
ATOM      6  C   UNL A   1     -25.823  -0.169  29.389  0.00  0.00    -0.003 A 
ENDROOT
BRANCH   4   7
ATOM      7  C   UNL A   1     -23.522   2.214  27.550  0.00  0.00    +0.122 C 
ATOM      8  N   UNL A   1     -22.501   2.178  28.344  0.00  0.00    -0.146 NA
ENDBRANCH   4   7
BRANCH   1   9
ATOM      9  C   UNL A   1     -28.016  -0.814  28.878  0.00  0.00    +0.115 C 
BRANCH   9  10
ATOM     10  N   UNL A   1     -29.207  -0.151  29.066  0.00  0.00    -0.212 NA
ATOM     11  C   UNL A   1     -30.232  -0.761  29.696  0.00  0.00    +0.108 C 
ENDBRANCH   9  10
ENDBRANCH   1   9
TORSDOF 3
