MODEL 148
MODEL 1
REMARK VINA RESULT:    -6.439      0.000      0.000
REMARK INTER + INTRA:          -7.613
REMARK INTER:                  -7.192
REMARK INTRA:                  -0.421
REMARK UNBOUND:                -0.421
REMARK  Name = No_148-gen_results/8p0m/2024-11-26-14-13-15/
REMARK  2 active torsions:
REMARK  status: ('A' for Active; 'I' for Inactive)
REMARK    1  A    between atoms: C_2  and  C_7
REMARK    2  A    between atoms: C_7  and  N_8
REMARK                            x       y       z     vdW  Elec       q    Type
REMARK                         _______ _______ _______ _____ _____    ______ ____
ROOT
ATOM      1  C   UNL A   1     -24.289  -1.125  29.257  0.00  0.00    +0.245 C 
ATOM      2  F   UNL A   1     -24.518  -0.508  30.471  0.00  0.00    -0.214 F 
ENDROOT
BRANCH   1   4
ATOM      3  C   UNL A   1     -23.806  -3.412  28.720  0.00  0.00    -0.000 A 
ATOM      4  C   UNL A   1     -24.560  -2.586  29.180  0.00  0.00    +0.026 A 
ATOM      5  C   UNL A   1     -25.789  -2.955  29.716  0.00  0.00    -0.000 A 
ATOM      6  C   UNL A   1     -26.223  -4.328  29.698  0.00  0.00    -0.000 A 
ATOM      7  C   UNL A   1     -25.301  -5.213  29.125  0.00  0.00    -0.000 A 
ATOM      8  C   UNL A   1     -24.158  -4.811  28.617  0.00  0.00    -0.000 A 
ENDBRANCH   1   4
BRANCH   1   9
ATOM      9  N   UNL A   1     -23.883  -0.467  28.578  0.00  0.00    -0.243 NA
ATOM     10  C   UNL A   1     -22.690   0.138  28.789  0.00  0.00    +0.075 C 
ATOM     11  C   UNL A   1     -22.354   1.260  27.858  0.00  0.00    +0.018 C 
ATOM     12  C   UNL A   1     -24.464   0.102  27.338  0.00  0.00    +0.075 C 
ATOM     13  C   UNL A   1     -24.033   1.128  26.624  0.00  0.00    +0.018 C 
ATOM     14  C   UNL A   1     -22.840   1.632  26.809  0.00  0.00    +0.003 C 
ENDBRANCH   1   9
TORSDOF 2
ENDMDL
ENDMDL
