MODEL 1490
MODEL 1
REMARK VINA RESULT:    -4.262      0.000      0.000
REMARK INTER + INTRA:          -4.262
REMARK INTER:                  -4.262
REMARK INTRA:                   0.000
REMARK UNBOUND:                 0.000
REMARK  Name = No_1490-gen_results/8p0m/2024-11-26-14-13-15/
REMARK  0 active torsions:
REMARK  status: ('A' for Active; 'I' for Inactive)
REMARK                            x       y       z     vdW  Elec       q    Type
REMARK                         _______ _______ _______ _____ _____    ______ ____
ROOT
ATOM      1  C   UNL A   1     -26.039  -4.866  29.651  0.00  0.00    +0.000 A 
ATOM      2  C   UNL A   1     -26.201  -3.670  29.717  0.00  0.00    +0.000 A 
ATOM      3  C   UNL A   1     -25.250  -2.747  29.328  0.00  0.00    +0.000 A 
ATOM      4  C   UNL A   1     -24.029  -3.236  28.784  0.00  0.00    +0.000 A 
ATOM      5  C   UNL A   1     -23.965  -4.571  28.572  0.00  0.00    +0.000 A 
ATOM      6  C   UNL A   1     -24.943  -5.377  28.940  0.00  0.00    +0.000 A 
ENDROOT
TORSDOF 0
ENDMDL
ENDMDL
