MODEL 1492
MODEL 1
REMARK VINA RESULT:    -6.122      0.000      0.000
REMARK INTER + INTRA:          -8.221
REMARK INTER:                  -7.554
REMARK INTRA:                  -0.667
REMARK UNBOUND:                -0.667
REMARK  Name = No_1492-gen_results/8p0m/2024-11-26-14-13-15/
REMARK  4 active torsions:
REMARK  status: ('A' for Active; 'I' for Inactive)
REMARK    1  A    between atoms: C_3  and  C_10
REMARK    2  A    between atoms: C_5  and  C_7
REMARK    3  A    between atoms: C_11  and  C_12
REMARK    4  A    between atoms: C_13  and  C_14
REMARK                            x       y       z     vdW  Elec       q    Type
REMARK                         _______ _______ _______ _____ _____    ______ ____
ROOT
ATOM      1  C   UNL A   1     -24.917  -5.172  28.968  0.00  0.00    +0.000 A 
ATOM      2  C   UNL A   1     -24.105  -4.279  28.892  0.00  0.00    +0.000 A 
ATOM      3  C   UNL A   1     -24.337  -2.959  29.236  0.00  0.00    +0.000 A 
ATOM      4  C   UNL A   1     -25.629  -2.640  29.749  0.00  0.00    +0.005 A 
ATOM      5  C   UNL A   1     -26.457  -3.673  29.973  0.00  0.00    +0.057 A 
ATOM      6  C   UNL A   1     -26.136  -4.894  29.658  0.00  0.00    +0.005 A 
ENDROOT
BRANCH   5   7
ATOM      7  C   UNL A   1     -27.779  -3.302  30.538  0.00  0.00    +0.284 C 
ATOM      8  N   UNL A   1     -28.559  -4.127  31.047  0.00  0.00    -0.084 NA
ATOM      9  O   UNL A   1     -28.050  -2.058  30.706  0.00  0.00    -0.267 OA
ENDBRANCH   5   7
BRANCH   3  10
ATOM     10  C   UNL A   1     -23.345  -1.848  28.924  0.00  0.00    +0.000 C 
ATOM     11  C   UNL A   1     -23.832  -0.621  28.636  0.00  0.00    +0.000 C 
BRANCH  11  12
ATOM     12  C   UNL A   1     -23.538   0.200  27.792  0.00  0.00    +0.000 C 
ATOM     13  C   UNL A   1     -24.000   0.739  26.903  0.00  0.00    +0.000 C 
BRANCH  13  14
ATOM     14  C   UNL A   1     -25.205   0.073  26.302  0.00  0.00    +0.000 C 
ATOM     15  C   UNL A   1     -25.202  -0.018  24.911  0.00  0.00    +0.000 C 
ENDBRANCH  13  14
ENDBRANCH  11  12
ENDBRANCH   3  10
TORSDOF 4
ENDMDL
ENDMDL
