REMARK  Name = No_1492-gen_results/8p0m/2024-11-26-14-13-15/
REMARK  4 active torsions:
REMARK  status: ('A' for Active; 'I' for Inactive)
REMARK    1  A    between atoms: C_3  and  C_10
REMARK    2  A    between atoms: C_5  and  C_7
REMARK    3  A    between atoms: C_11  and  C_12
REMARK    4  A    between atoms: C_13  and  C_14
REMARK                            x       y       z     vdW  Elec       q    Type
REMARK                         _______ _______ _______ _____ _____    ______ ____
ROOT
ATOM      1  C   UNL A   1     -28.016  -0.814  28.878  0.00  0.00    +0.000 A 
ATOM      2  C   UNL A   1     -27.064  -0.119  28.608  0.00  0.00    +0.000 A 
ATOM      3  C   UNL A   1     -26.972   0.714  27.506  0.00  0.00    +0.000 A 
ATOM      4  C   UNL A   1     -28.105   0.774  26.642  0.00  0.00    +0.005 A 
ATOM      5  C   UNL A   1     -29.204   0.118  27.048  0.00  0.00    +0.057 A 
ATOM      6  C   UNL A   1     -29.213  -0.609  28.128  0.00  0.00    +0.005 A 
ENDROOT
BRANCH   5   7
ATOM      7  C   UNL A   1     -30.371   0.233  26.138  0.00  0.00    +0.284 C 
ATOM      8  N   UNL A   1     -30.284   0.131  24.901  0.00  0.00    -0.084 NA
ATOM      9  O   UNL A   1     -31.551   0.226  26.645  0.00  0.00    -0.267 OA
ENDBRANCH   5   7
BRANCH   3  10
ATOM     10  C   UNL A   1     -25.674   1.403  27.111  0.00  0.00    +0.000 C 
ATOM     11  C   UNL A   1     -24.545   1.061  27.770  0.00  0.00    +0.000 C 
BRANCH  11  12
ATOM     12  C   UNL A   1     -23.627   1.717  28.217  0.00  0.00    +0.000 C 
ATOM     13  C   UNL A   1     -22.527   1.606  28.486  0.00  0.00    +0.000 C 
BRANCH  13  14
ATOM     14  C   UNL A   1     -22.060   0.196  28.715  0.00  0.00    +0.000 C 
ATOM     15  C   UNL A   1     -23.020  -0.790  28.497  0.00  0.00    +0.000 C 
ENDBRANCH  13  14
ENDBRANCH  11  12
ENDBRANCH   3  10
TORSDOF 4
