MODEL 1494
MODEL 1
REMARK VINA RESULT:    -4.632      0.000      0.000
REMARK INTER + INTRA:          -4.921
REMARK INTER:                  -4.903
REMARK INTRA:                  -0.018
REMARK UNBOUND:                -0.018
REMARK  Name = No_1494-gen_results/8p0m/2024-11-26-14-13-15/
REMARK  1 active torsions:
REMARK  status: ('A' for Active; 'I' for Inactive)
REMARK    1  A    between atoms: C_5  and  C_6
REMARK                            x       y       z     vdW  Elec       q    Type
REMARK                         _______ _______ _______ _____ _____    ______ ____
ROOT
ATOM      1  C   UNL A   1     -24.756  -5.171  28.968  0.00  0.00    +0.000 A 
ATOM      2  C   UNL A   1     -25.883  -5.055  29.392  0.00  0.00    +0.000 A 
ATOM      3  C   UNL A   1     -26.440  -3.880  29.866  0.00  0.00    +0.000 A 
ATOM      4  C   UNL A   1     -25.624  -2.711  29.821  0.00  0.00    +0.002 A 
ATOM      5  C   UNL A   1     -24.438  -2.831  29.202  0.00  0.00    +0.021 A 
ATOM      6  C   UNL A   1     -23.984  -4.016  28.798  0.00  0.00    +0.002 A 
ENDROOT
BRANCH   5   7
ATOM      7  C   UNL A   1     -23.675  -1.639  29.091  0.00  0.00    +0.122 C 
ATOM      8  N   UNL A   1     -22.534  -1.572  28.888  0.00  0.00    -0.146 NA
ENDBRANCH   5   7
TORSDOF 1
ENDMDL
ENDMDL
