MODEL 1495
MODEL 1
REMARK VINA RESULT:    -4.621      0.000      0.000
REMARK INTER + INTRA:          -5.715
REMARK INTER:                  -5.431
REMARK INTRA:                  -0.284
REMARK UNBOUND:                -0.284
REMARK  Name = No_1495-gen_results/8p0m/2024-11-26-14-13-15/
REMARK  3 active torsions:
REMARK  status: ('A' for Active; 'I' for Inactive)
REMARK    1  A    between atoms: C_2  and  C_5
REMARK    2  A    between atoms: C_5  and  C_6
REMARK    3  A    between atoms: C_6  and  C_7
REMARK                            x       y       z     vdW  Elec       q    Type
REMARK                         _______ _______ _______ _____ _____    ______ ____
ROOT
ATOM      1  F   UNL A   1      -8.885 -11.384  18.057  0.00  0.00    -0.170 F 
ATOM      2  C   UNL A   1      -9.294 -10.381  17.687  0.00  0.00    +0.398 C 
ATOM      3  F   UNL A   1      -8.495 -10.015  16.925  0.00  0.00    -0.170 F 
ATOM      4  F   UNL A   1     -10.493 -10.477  17.086  0.00  0.00    -0.170 F 
ENDROOT
BRANCH   2   5
ATOM      5  C   UNL A   1      -9.397  -9.391  18.853  0.00  0.00    +0.108 C 
BRANCH   5   6
ATOM      6  C   UNL A   1      -8.594  -9.657  19.972  0.00  0.00    +0.035 C 
BRANCH   6   7
ATOM      7  C   UNL A   1      -7.383  -9.120  19.965  0.00  0.00    -0.026 C 
ATOM      8  C   UNL A   1      -7.030  -7.953  19.566  0.00  0.00    -0.005 C 
ENDBRANCH   6   7
ENDBRANCH   5   6
ENDBRANCH   2   5
TORSDOF 3
ENDMDL
ENDMDL
