REMARK  Name = No_1495-gen_results/8p0m/2024-11-26-14-13-15/
REMARK  3 active torsions:
REMARK  status: ('A' for Active; 'I' for Inactive)
REMARK    1  A    between atoms: C_2  and  C_5
REMARK    2  A    between atoms: C_5  and  C_6
REMARK    3  A    between atoms: C_6  and  C_7
REMARK                            x       y       z     vdW  Elec       q    Type
REMARK                         _______ _______ _______ _____ _____    ______ ____
ROOT
ATOM      1  F   UNL A   1     -28.073  -1.254  28.532  0.00  0.00    -0.170 F 
ATOM      2  C   UNL A   1     -27.359  -0.379  28.722  0.00  0.00    +0.398 C 
ATOM      3  F   UNL A   1     -26.976  -0.093  27.662  0.00  0.00    -0.170 F 
ATOM      4  F   UNL A   1     -27.949   0.682  29.300  0.00  0.00    -0.170 F 
ENDROOT
BRANCH   2   5
ATOM      5  C   UNL A   1     -26.186  -0.837  29.597  0.00  0.00    +0.108 C 
BRANCH   5   6
ATOM      6  C   UNL A   1     -25.408   0.175  30.180  0.00  0.00    +0.035 C 
BRANCH   6   7
ATOM      7  C   UNL A   1     -24.504   0.744  29.397  0.00  0.00    -0.026 C 
ATOM      8  C   UNL A   1     -24.429   0.719  28.116  0.00  0.00    -0.005 C 
ENDBRANCH   6   7
ENDBRANCH   5   6
ENDBRANCH   2   5
TORSDOF 3
