MODEL 1496
MODEL 1
REMARK VINA RESULT:    -6.251      0.000      0.000
REMARK INTER + INTRA:         -15.281
REMARK INTER:                 -10.636
REMARK INTRA:                  -4.645
REMARK UNBOUND:                -4.645
REMARK  Name = No_1496-gen_results/8p0m/2024-11-26-14-13-15/
REMARK  12 active torsions:
REMARK  status: ('A' for Active; 'I' for Inactive)
REMARK    1  A    between atoms: C_2  and  C_21
REMARK    2  A    between atoms: C_3  and  C_4
REMARK    3  A    between atoms: C_4  and  C_8
REMARK    4  A    between atoms: C_7  and  C_14
REMARK    5  A    between atoms: C_14  and  C_15
REMARK    6  A    between atoms: C_15  and  C_18
REMARK    7  A    between atoms: C_18  and  N_19
REMARK    8  A    between atoms: C_21  and  O_23
REMARK    9  A    between atoms: O_23  and  C_24
REMARK   10  A    between atoms: C_24  and  C_25
REMARK   11  A    between atoms: C_25  and  C_26
REMARK   12  A    between atoms: N_28  and  C_30
REMARK                            x       y       z     vdW  Elec       q    Type
REMARK                         _______ _______ _______ _____ _____    ______ ____
ROOT
ATOM      1  C   UNL A   1     -11.401   1.227  35.941  0.00  0.00    +0.002 A 
ATOM      2  C   UNL A   1     -11.562   1.474  34.929  0.00  0.00    +0.075 A 
ATOM      3  C   UNL A   1     -10.031   0.673  36.265  0.00  0.00    -0.021 A 
ATOM      4  C   UNL A   1     -10.642   1.593  33.791  0.00  0.00    +0.006 A 
ATOM      5  C   UNL A   1      -9.363   1.132  34.017  0.00  0.00    -0.004 A 
ATOM      6  C   UNL A   1      -8.997   0.686  35.261  0.00  0.00    -0.026 A 
ENDROOT
BRANCH   6   7
ATOM      7  C   UNL A   1      -7.669   0.245  35.491  0.00  0.00    +0.024 C 
ATOM      8  C   UNL A   1      -7.396  -1.128  35.028  0.00  0.00    +0.005 C 
BRANCH   7   9
ATOM      9  C   UNL A   1      -6.571   1.035  35.868  0.00  0.00    +0.028 C 
ATOM     10  C   UNL A   1      -6.301   1.244  37.274  0.00  0.00    +0.002 C 
BRANCH   9  11
ATOM     11  C   UNL A   1      -5.624   1.525  34.876  0.00  0.00    +0.126 C 
BRANCH  11  12
ATOM     12  N   UNL A   1      -5.822   2.198  34.002  0.00  0.00    -0.267 NA
ATOM     13  C   UNL A   1      -6.344   3.475  34.074  0.00  0.00    +0.113 C 
ENDBRANCH  11  12
ENDBRANCH   9  11
ENDBRANCH   7   9
ENDBRANCH   6   7
BRANCH   2  14
ATOM     14  C   UNL A   1     -13.003   2.064  34.576  0.00  0.00    +0.341 C 
ATOM     15  O   UNL A   1     -13.382   2.414  33.564  0.00  0.00    -0.245 OA
BRANCH  14  16
ATOM     16  O   UNL A   1     -13.764   2.198  35.641  0.00  0.00    -0.445 OA
BRANCH  16  17
ATOM     17  C   UNL A   1     -14.305   3.140  36.102  0.00  0.00    +0.218 C 
BRANCH  17  18
ATOM     18  C   UNL A   1     -13.875   3.583  37.353  0.00  0.00    +0.133 C 
BRANCH  18  19
ATOM     19  C   UNL A   1     -13.885   4.882  37.535  0.00  0.00    +0.233 C 
ATOM     20  O   UNL A   1     -14.919   5.371  37.734  0.00  0.00    -0.274 OA
ATOM     21  N   UNL A   1     -12.723   5.655  37.659  0.00  0.00    -0.257 N 
ATOM     22  C   UNL A   1     -12.742   7.099  37.863  0.00  0.00    +0.120 C 
BRANCH  21  23
ATOM     23  C   UNL A   1     -11.460   5.055  37.449  0.00  0.00    +0.054 A 
ATOM     24  C   UNL A   1     -10.842   4.485  38.099  0.00  0.00    +0.015 A 
ATOM     25  C   UNL A   1      -9.526   3.911  37.916  0.00  0.00    +0.001 A 
ATOM     26  C   UNL A   1      -9.098   4.040  36.577  0.00  0.00    +0.000 A 
ATOM     27  C   UNL A   1      -9.848   4.703  35.670  0.00  0.00    +0.001 A 
ATOM     28  C   UNL A   1     -10.968   5.273  36.067  0.00  0.00    +0.015 A 
ENDBRANCH  21  23
ENDBRANCH  18  19
ENDBRANCH  17  18
ENDBRANCH  16  17
ENDBRANCH  14  16
ENDBRANCH   2  14
BRANCH   3  29
ATOM     29  C   UNL A   1      -9.609   0.127  37.530  0.00  0.00    +0.052 C 
BRANCH  29  30
ATOM     30  C   UNL A   1     -10.563  -0.754  38.199  0.00  0.00    -0.018 A 
ATOM     31  C   UNL A   1     -11.023  -0.557  39.240  0.00  0.00    -0.004 A 
ATOM     32  C   UNL A   1     -12.018  -1.511  39.802  0.00  0.00    -0.000 A 
ATOM     33  C   UNL A   1     -12.381  -2.658  39.080  0.00  0.00    -0.000 A 
ATOM     34  C   UNL A   1     -11.021  -1.913  37.394  0.00  0.00    -0.004 A 
ATOM     35  C   UNL A   1     -11.893  -2.824  37.888  0.00  0.00    -0.000 A 
ENDBRANCH  29  30
ENDBRANCH   3  29
TORSDOF 12
ENDMDL
ENDMDL
