REMARK  Name = No_1496-gen_results/8p0m/2024-11-26-14-13-15/
REMARK  12 active torsions:
REMARK  status: ('A' for Active; 'I' for Inactive)
REMARK    1  A    between atoms: C_2  and  C_21
REMARK    2  A    between atoms: C_3  and  C_4
REMARK    3  A    between atoms: C_4  and  C_8
REMARK    4  A    between atoms: C_7  and  C_14
REMARK    5  A    between atoms: C_14  and  C_15
REMARK    6  A    between atoms: C_15  and  C_18
REMARK    7  A    between atoms: C_18  and  N_19
REMARK    8  A    between atoms: C_21  and  O_23
REMARK    9  A    between atoms: O_23  and  C_24
REMARK   10  A    between atoms: C_24  and  C_25
REMARK   11  A    between atoms: C_25  and  C_26
REMARK   12  A    between atoms: N_28  and  C_30
REMARK                            x       y       z     vdW  Elec       q    Type
REMARK                         _______ _______ _______ _____ _____    ______ ____
ROOT
ATOM      1  C   UNL A   1     -28.016  -0.814  28.878  0.00  0.00    +0.002 A 
ATOM      2  C   UNL A   1     -28.469  -0.785  29.829  0.00  0.00    +0.075 A 
ATOM      3  C   UNL A   1     -26.504  -0.778  28.877  0.00  0.00    -0.021 A 
ATOM      4  C   UNL A   1     -27.918  -0.937  31.182  0.00  0.00    +0.006 A 
ATOM      5  C   UNL A   1     -26.542  -0.940  31.261  0.00  0.00    -0.004 A 
ATOM      6  C   UNL A   1     -25.783  -0.893  30.120  0.00  0.00    -0.026 A 
ENDROOT
BRANCH   6   7
ATOM      7  C   UNL A   1     -24.368  -0.930  30.211  0.00  0.00    +0.024 C 
ATOM      8  C   UNL A   1     -23.775  -2.247  29.919  0.00  0.00    +0.005 C 
BRANCH   7   9
ATOM      9  C   UNL A   1     -23.500   0.170  30.301  0.00  0.00    +0.028 C 
ATOM     10  C   UNL A   1     -23.928   1.352  31.017  0.00  0.00    +0.002 C 
BRANCH   9  11
ATOM     11  C   UNL A   1     -22.131   0.086  29.811  0.00  0.00    +0.126 C 
BRANCH  11  12
ATOM     12  N   UNL A   1     -21.777  -0.203  28.787  0.00  0.00    -0.267 NA
ATOM     13  C   UNL A   1     -20.509   0.018  28.285  0.00  0.00    +0.113 C 
ENDBRANCH  11  12
ENDBRANCH   9  11
ENDBRANCH   7   9
ENDBRANCH   6   7
BRANCH   2  14
ATOM     14  C   UNL A   1     -30.065  -0.827  29.843  0.00  0.00    +0.341 C 
ATOM     15  O   UNL A   1     -30.736  -1.614  30.315  0.00  0.00    -0.245 OA
BRANCH  14  16
ATOM     16  O   UNL A   1     -30.598   0.155  29.148  0.00  0.00    -0.445 OA
BRANCH  16  17
ATOM     17  C   UNL A   1     -31.722   0.466  28.969  0.00  0.00    +0.218 C 
BRANCH  17  18
ATOM     18  C   UNL A   1     -31.970   1.481  28.044  0.00  0.00    +0.133 C 
BRANCH  18  19
ATOM     19  C   UNL A   1     -31.203   2.540  28.137  0.00  0.00    +0.233 C 
ATOM     20  O   UNL A   1     -30.220   2.526  27.520  0.00  0.00    -0.274 OA
ATOM     21  N   UNL A   1     -31.584   3.716  28.797  0.00  0.00    -0.257 N 
ATOM     22  C   UNL A   1     -30.726   4.891  28.895  0.00  0.00    +0.120 C 
BRANCH  21  23
ATOM     23  C   UNL A   1     -32.797   3.747  29.523  0.00  0.00    +0.054 A 
ATOM     24  C   UNL A   1     -33.319   4.555  29.975  0.00  0.00    +0.015 A 
ATOM     25  C   UNL A   1     -34.531   4.594  30.765  0.00  0.00    +0.001 A 
ATOM     26  C   UNL A   1     -35.163   3.332  30.788  0.00  0.00    +0.000 A 
ATOM     27  C   UNL A   1     -34.595   2.261  30.192  0.00  0.00    +0.001 A 
ATOM     28  C   UNL A   1     -33.412   2.401  29.628  0.00  0.00    +0.015 A 
ENDBRANCH  21  23
ENDBRANCH  18  19
ENDBRANCH  17  18
ENDBRANCH  16  17
ENDBRANCH  14  16
ENDBRANCH   2  14
BRANCH   3  29
ATOM     29  C   UNL A   1     -25.654  -0.660  27.719  0.00  0.00    +0.052 C 
BRANCH  29  30
ATOM     30  C   UNL A   1     -25.213   0.692  27.383  0.00  0.00    -0.018 A 
ATOM     31  C   UNL A   1     -25.882   1.633  27.430  0.00  0.00    -0.004 A 
ATOM     32  C   UNL A   1     -25.307   2.966  27.101  0.00  0.00    -0.000 A 
ATOM     33  C   UNL A   1     -23.964   3.079  26.714  0.00  0.00    -0.000 A 
ATOM     34  C   UNL A   1     -23.769   0.824  27.070  0.00  0.00    -0.004 A 
ATOM     35  C   UNL A   1     -23.221   2.014  26.726  0.00  0.00    -0.000 A 
ENDBRANCH  29  30
ENDBRANCH   3  29
TORSDOF 12
