MODEL 1497
MODEL 1
REMARK VINA RESULT:    -5.391      0.000      0.000
REMARK INTER + INTRA:          -6.272
REMARK INTER:                  -6.022
REMARK INTRA:                  -0.250
REMARK UNBOUND:                -0.250
REMARK  Name = No_1497-gen_results/8p0m/2024-11-26-14-13-15/
REMARK  2 active torsions:
REMARK  status: ('A' for Active; 'I' for Inactive)
REMARK    1  A    between atoms: C_2  and  C_7
REMARK    2  A    between atoms: C_7  and  C_8
REMARK                            x       y       z     vdW  Elec       q    Type
REMARK                         _______ _______ _______ _____ _____    ______ ____
ROOT
ATOM      1  C   UNL A   1     -23.874  -3.490  28.837  0.00  0.00    -0.004 A 
ATOM      2  C   UNL A   1     -24.584  -2.716  29.434  0.00  0.00    -0.018 A 
ATOM      3  C   UNL A   1     -25.808  -3.035  29.928  0.00  0.00    -0.004 A 
ATOM      4  C   UNL A   1     -26.285  -4.346  29.735  0.00  0.00    -0.000 A 
ATOM      5  C   UNL A   1     -24.256  -4.871  28.687  0.00  0.00    -0.000 A 
ATOM      6  C   UNL A   1     -25.489  -5.236  29.139  0.00  0.00    -0.000 A 
ENDROOT
BRANCH   2   7
ATOM      7  C   UNL A   1     -24.173  -1.278  29.724  0.00  0.00    +0.052 C 
BRANCH   7   8
ATOM      8  C   UNL A   1     -23.081  -0.753  28.825  0.00  0.00    -0.026 C 
ATOM      9  C   UNL A   1     -21.958  -0.361  29.328  0.00  0.00    -0.030 C 
ATOM     10  C   UNL A   1     -20.949   0.079  28.466  0.00  0.00    +0.030 C 
ENDBRANCH   7   8
ENDBRANCH   2   7
TORSDOF 2
ENDMDL
ENDMDL
