MODEL 1498
MODEL 1
REMARK VINA RESULT:    -4.940      0.000      0.000
REMARK INTER + INTRA:          -4.940
REMARK INTER:                  -4.940
REMARK INTRA:                   0.000
REMARK UNBOUND:                 0.000
REMARK  Name = No_1498-gen_results/8p0m/2024-11-26-14-13-15/
REMARK  0 active torsions:
REMARK  status: ('A' for Active; 'I' for Inactive)
REMARK                            x       y       z     vdW  Elec       q    Type
REMARK                         _______ _______ _______ _____ _____    ______ ____
ROOT
ATOM      1  C   UNL A   1      -8.827 -10.803  18.021  0.00  0.00    +0.042 A 
ATOM      2  C   UNL A   1      -7.986 -10.607  18.867  0.00  0.00    +0.003 A 
ATOM      3  C   UNL A   1      -8.250  -9.802  19.969  0.00  0.00    +0.000 A 
ATOM      4  C   UNL A   1      -9.520  -9.139  20.115  0.00  0.00    +0.003 A 
ATOM      5  C   UNL A   1     -10.426  -9.401  19.080  0.00  0.00    +0.042 A 
ATOM      6  C   UNL A   1     -10.121 -10.157  18.050  0.00  0.00    +0.196 A 
ATOM      7  O   UNL A   1     -11.047 -10.330  17.066  0.00  0.00    -0.287 OA
ENDROOT
TORSDOF 0
ENDMDL
ENDMDL
