MODEL 1499
MODEL 1
REMARK VINA RESULT:    -4.533      0.000      0.000
REMARK INTER + INTRA:          -4.850
REMARK INTER:                  -4.798
REMARK INTRA:                  -0.052
REMARK UNBOUND:                -0.052
REMARK  Name = No_1499-gen_results/8p0m/2024-11-26-14-13-15/
REMARK  1 active torsions:
REMARK  status: ('A' for Active; 'I' for Inactive)
REMARK    1  A    between atoms: C_3  and  C_8
REMARK                            x       y       z     vdW  Elec       q    Type
REMARK                         _______ _______ _______ _____ _____    ______ ____
ROOT
ATOM      1  C   UNL A   1     -24.222   0.579  27.671  0.00  0.00    +0.042 A 
ATOM      2  C   UNL A   1     -24.686  -0.528  27.815  0.00  0.00    +0.005 A 
ATOM      3  C   UNL A   1     -24.030  -1.489  28.576  0.00  0.00    +0.019 A 
ATOM      4  C   UNL A   1     -22.753  -1.210  29.181  0.00  0.00    +0.005 A 
ATOM      5  C   UNL A   1     -22.278   0.086  28.945  0.00  0.00    +0.042 A 
ATOM      6  C   UNL A   1     -22.930   0.953  28.203  0.00  0.00    +0.196 A 
ATOM      7  O   UNL A   1     -22.380   2.180  27.991  0.00  0.00    -0.287 OA
ENDROOT
BRANCH   3   8
ATOM      8  C   UNL A   1     -24.511  -2.896  28.838  0.00  0.00    +0.093 C 
ATOM      9  N   UNL A   1     -23.901  -3.929  28.518  0.00  0.00    -0.267 NA
ATOM     10  C   UNL A   1     -24.422  -5.173  28.871  0.00  0.00    +0.152 C 
ENDBRANCH   3   8
TORSDOF 1
ENDMDL
ENDMDL
