MODEL 149
MODEL 1
REMARK VINA RESULT:    -4.581      0.000      0.000
REMARK INTER + INTRA:          -4.581
REMARK INTER:                  -4.581
REMARK INTRA:                   0.000
REMARK UNBOUND:                 0.000
REMARK  Name = No_149-gen_results/8p0m/2024-11-26-14-13-15/
REMARK  0 active torsions:
REMARK  status: ('A' for Active; 'I' for Inactive)
REMARK                            x       y       z     vdW  Elec       q    Type
REMARK                         _______ _______ _______ _____ _____    ______ ____
ROOT
ATOM      1  C   UNL A   1     -10.142  -9.742  18.351  0.00  0.00    +0.030 A 
ATOM      2  C   UNL A   1      -9.182 -10.400  18.019  0.00  0.00    +0.140 A 
ATOM      3  C   UNL A   1      -8.066 -10.547  18.777  0.00  0.00    +0.030 A 
ATOM      4  C   UNL A   1      -8.015  -9.899  20.025  0.00  0.00    +0.002 A 
ATOM      5  C   UNL A   1     -10.197  -9.131  19.654  0.00  0.00    +0.002 A 
ATOM      6  C   UNL A   1      -9.090  -9.225  20.442  0.00  0.00    +0.000 A 
ATOM      7  F   UNL A   1      -9.158 -11.053  16.829  0.00  0.00    -0.204 F 
ENDROOT
TORSDOF 0
ENDMDL
ENDMDL
