MODEL 14
MODEL 1
REMARK VINA RESULT:    -3.839      0.000      0.000
REMARK INTER + INTRA:          -4.399
REMARK INTER:                  -4.287
REMARK INTRA:                  -0.112
REMARK UNBOUND:                -0.112
REMARK  Name = No_14-gen_results/8p0m/2024-11-26-14-13-15/
REMARK  2 active torsions:
REMARK  status: ('A' for Active; 'I' for Inactive)
REMARK    1  A    between atoms: C_2  and  C_3
REMARK    2  A    between atoms: C_3  and  C_4
REMARK                            x       y       z     vdW  Elec       q    Type
REMARK                         _______ _______ _______ _____ _____    ______ ____
ROOT
ATOM      1  C   UNL A   1     -24.261  -3.096  28.712  0.00  0.00    +0.103 C 
ENDROOT
BRANCH   1   2
ATOM      2  C   UNL A   1     -24.126  -4.445  28.669  0.00  0.00    -0.017 C 
ATOM      3  C   UNL A   1     -25.128  -5.290  29.094  0.00  0.00    -0.029 C 
ATOM      4  C   UNL A   1     -26.268  -4.633  29.685  0.00  0.00    +0.030 C 
ENDBRANCH   1   2
BRANCH   1   6
ATOM      5  C   UNL A   1     -22.973  -1.094  29.166  0.00  0.00    -0.014 C 
ATOM      6  C   UNL A   1     -23.460  -2.195  29.053  0.00  0.00    -0.073 C 
ENDBRANCH   1   6
TORSDOF 2
ENDMDL
ENDMDL
