REMARK  Name = No_150-gen_results/8p0m/2024-11-26-14-13-15/
REMARK  2 active torsions:
REMARK  status: ('A' for Active; 'I' for Inactive)
REMARK    1  A    between atoms: C_2  and  C_4
REMARK    2  A    between atoms: C_4  and  C_6
REMARK                            x       y       z     vdW  Elec       q    Type
REMARK                         _______ _______ _______ _____ _____    ______ ____
ROOT
ATOM      1  C   UNL A   1     -27.567  -0.077  31.001  0.00  0.00    +0.417 C 
ATOM      2  F   UNL A   1     -27.814   0.794  32.008  0.00  0.00    -0.188 F 
ATOM      3  F   UNL A   1     -27.210   0.860  31.058  0.00  0.00    -0.188 F 
ENDROOT
BRANCH   1   5
ATOM      4 CL   UNL A   1     -28.149  -0.820  28.908  0.00  0.00    -0.041 Cl
ATOM      5  C   UNL A   1     -28.532  -0.047  29.773  0.00  0.00    +0.393 C 
ATOM      6  F   UNL A   1     -29.668  -0.100  30.189  0.00  0.00    -0.180 F 
ATOM      7  F   UNL A   1     -28.358   1.247  29.278  0.00  0.00    -0.180 F 
ENDBRANCH   1   5
BRANCH   1   8
ATOM      8  C   UNL A   1     -26.723  -0.963  31.194  0.00  0.00    +0.462 C 
ATOM      9  F   UNL A   1     -25.946  -0.972  32.238  0.00  0.00    -0.165 F 
ATOM     10  F   UNL A   1     -25.782  -1.048  30.124  0.00  0.00    -0.165 F 
ATOM     11  F   UNL A   1     -27.278  -2.233  31.250  0.00  0.00    -0.165 F 
ENDBRANCH   1   8
TORSDOF 2
