MODEL 1500
MODEL 1
REMARK VINA RESULT:    -6.868      0.000      0.000
REMARK INTER + INTRA:          -9.724
REMARK INTER:                  -8.875
REMARK INTRA:                  -0.849
REMARK UNBOUND:                -0.849
REMARK  Name = No_1500-gen_results/8p0m/2024-11-26-14-13-15/
REMARK  5 active torsions:
REMARK  status: ('A' for Active; 'I' for Inactive)
REMARK    1  A    between atoms: C_3  and  C_7
REMARK    2  A    between atoms: C_6  and  O_20
REMARK    3  A    between atoms: C_7  and  C_8
REMARK    4  A    between atoms: O_20  and  C_21
REMARK    5  A    between atoms: C_21  and  C_22
REMARK                            x       y       z     vdW  Elec       q    Type
REMARK                         _______ _______ _______ _____ _____    ______ ____
ROOT
ATOM      1  C   UNL A   1     -10.427   0.152  36.944  0.00  0.00    +0.043 C 
ATOM      2  C   UNL A   1      -9.120   0.001  36.349  0.00  0.00    +0.006 C 
ENDROOT
BRANCH   1   3
ATOM      3  C   UNL A   1     -11.316   0.991  36.372  0.00  0.00    +0.104 C 
ATOM      4  N   UNL A   1     -11.534   1.232  35.367  0.00  0.00    -0.203 NA
ATOM      5  C   UNL A   1     -12.228   1.726  37.454  0.00  0.00    +0.049 C 
ATOM      6  C   UNL A   1     -13.364   2.358  36.991  0.00  0.00    -0.016 A 
ATOM      7  C   UNL A   1     -14.213   2.954  38.006  0.00  0.00    -0.004 A 
ATOM      8  C   UNL A   1     -15.406   3.557  37.454  0.00  0.00    -0.000 A 
ATOM      9  C   UNL A   1     -15.532   3.713  36.032  0.00  0.00    +0.000 A 
ATOM     10  C   UNL A   1     -14.654   3.157  35.176  0.00  0.00    +0.004 A 
ATOM     11  C   UNL A   1     -13.557   2.547  35.656  0.00  0.00    +0.051 A 
ATOM     12  C   UNL A   1     -12.659   1.866  34.727  0.00  0.00    +0.264 C 
ATOM     13  O   UNL A   1     -12.750   1.961  33.492  0.00  0.00    -0.268 OA
ENDBRANCH   1   3
BRANCH   1  16
ATOM     14  C   UNL A   1      -9.969  -1.076  40.285  0.00  0.00    +0.037 A 
ATOM     15  C   UNL A   1      -9.864  -0.447  39.258  0.00  0.00    -0.001 A 
ATOM     16  C   UNL A   1     -10.701  -0.623  38.157  0.00  0.00    -0.021 A 
ATOM     17  C   UNL A   1     -11.723  -1.650  38.203  0.00  0.00    -0.001 A 
ATOM     18  C   UNL A   1     -11.780  -2.350  39.430  0.00  0.00    +0.037 A 
ATOM     19  C   UNL A   1     -10.944  -2.118  40.410  0.00  0.00    +0.139 A 
BRANCH  19  20
ATOM     20  O   UNL A   1     -11.073  -2.826  41.577  0.00  0.00    -0.464 OA
BRANCH  20  21
ATOM     21  C   UNL A   1     -10.214  -2.483  42.643  0.00  0.00    +0.319 C 
BRANCH  21  22
ATOM     22  C   UNL A   1      -9.581  -3.641  43.168  0.00  0.00    +0.408 C 
ATOM     23  O   UNL A   1      -8.841  -4.220  42.364  0.00  0.00    -0.241 OA
ATOM     24  O   UNL A   1      -9.810  -4.079  44.280  0.00  0.00    -0.241 OA
ENDBRANCH  21  22
ENDBRANCH  20  21
ENDBRANCH  19  20
ENDBRANCH   1  16
TORSDOF 5
ENDMDL
ENDMDL
