REMARK  Name = No_1501-gen_results/8p0m/2024-11-26-14-13-15/
REMARK  5 active torsions:
REMARK  status: ('A' for Active; 'I' for Inactive)
REMARK    1  A    between atoms: C_1  and  C_2
REMARK    2  A    between atoms: C_3  and  C_13
REMARK    3  A    between atoms: C_5  and  C_9
REMARK    4  A    between atoms: C_7  and  C_20
REMARK    5  A    between atoms: C_23  and  N_28
REMARK                            x       y       z     vdW  Elec       q    Type
REMARK                         _______ _______ _______ _____ _____    ______ ____
ROOT
ATOM      1  C   UNL A   1     -27.064  -0.119  28.608  0.00  0.00    -0.005 A 
ATOM      2  C   UNL A   1     -25.765  -0.390  29.036  0.00  0.00    -0.021 A 
ATOM      3  C   UNL A   1     -24.552   0.406  28.765  0.00  0.00    -0.000 A 
ATOM      4  C   UNL A   1     -24.696   1.448  27.799  0.00  0.00    +0.071 A 
ATOM      5  C   UNL A   1     -25.976   1.725  27.308  0.00  0.00    +0.008 A 
ATOM      6  C   UNL A   1     -27.072   1.013  27.654  0.00  0.00    +0.051 A 
ENDROOT
BRANCH   6   7
ATOM      7  C   UNL A   1     -28.329   1.380  27.008  0.00  0.00    +0.249 C 
ATOM      8  N   UNL A   1     -29.011   2.244  27.562  0.00  0.00    -0.275 N 
ATOM      9  C   UNL A   1     -28.620   3.260  28.123  0.00  0.00    +0.110 C 
ATOM     10  C   UNL A   1     -29.592   4.186  28.803  0.00  0.00    +0.078 C 
ATOM     11  C   UNL A   1     -30.490   2.106  27.483  0.00  0.00    +0.094 C 
ATOM     12  C   UNL A   1     -31.359   2.919  28.159  0.00  0.00    +0.023 C 
ATOM     13  C   UNL A   1     -30.872   4.058  28.769  0.00  0.00    +0.019 C 
ATOM     14  O   UNL A   1     -28.455   0.955  25.834  0.00  0.00    -0.270 OA
BRANCH  10  15
ATOM     15  N   UNL A   1     -28.985   5.370  29.499  0.00  0.00    -0.268 NA
ATOM     16  C   UNL A   1     -27.755   5.418  29.833  0.00  0.00    +0.099 C 
ATOM     17  C   UNL A   1     -27.344   5.181  31.140  0.00  0.00    -0.009 C 
ATOM     18  C   UNL A   1     -27.803   5.348  32.082  0.00  0.00    -0.007 C 
ATOM     19  C   UNL A   1     -29.107   5.981  32.189  0.00  0.00    -0.021 C 
ATOM     20  C   UNL A   1     -29.781   5.992  33.475  0.00  0.00    -0.005 C 
ATOM     21  C   UNL A   1     -29.850   6.324  30.052  0.00  0.00    +0.077 C 
ATOM     22  C   UNL A   1     -30.120   6.124  31.450  0.00  0.00    +0.044 C 
ENDBRANCH  10  15
ENDBRANCH   6   7
BRANCH   2  23
ATOM     23  C   UNL A   1     -25.454  -1.516  29.937  0.00  0.00    +0.048 C 
ATOM     24  C   UNL A   1     -25.114  -1.359  31.020  0.00  0.00    -0.026 C 
ATOM     25  C   UNL A   1     -25.657  -2.822  29.352  0.00  0.00    +0.034 C 
ATOM     26  C   UNL A   1     -24.572  -3.479  28.846  0.00  0.00    -0.030 C 
ATOM     27  C   UNL A   1     -23.419  -2.722  28.960  0.00  0.00    -0.026 C 
ATOM     28  C   UNL A   1     -22.849  -1.966  30.021  0.00  0.00    +0.051 C 
ATOM     29  C   UNL A   1     -23.604  -1.156  30.878  0.00  0.00    -0.026 C 
ENDBRANCH   2  23
BRANCH   4  30
ATOM     30  C   UNL A   1     -23.488   2.179  27.480  0.00  0.00    +0.419 C 
ATOM     31  F   UNL A   1     -22.546   1.881  27.849  0.00  0.00    -0.166 F 
ATOM     32  F   UNL A   1     -23.392   2.187  26.011  0.00  0.00    -0.166 F 
ATOM     33  F   UNL A   1     -23.783   3.555  27.738  0.00  0.00    -0.166 F 
ENDBRANCH   4  30
BRANCH   1  34
ATOM     34  C   UNL A   1     -28.016  -0.814  28.878  0.00  0.00    +0.121 C 
ATOM     35 CL   UNL A   1     -28.607  -0.745  30.200  0.00  0.00    -0.108 Cl
ENDBRANCH   1  34
TORSDOF 5
