MODEL 1501
MODEL 1
REMARK VINA RESULT:    -7.836      0.000      0.000
REMARK INTER + INTRA:         -10.912
REMARK INTER:                 -10.126
REMARK INTRA:                  -0.786
REMARK UNBOUND:                -0.786
REMARK  Name = No_1501-gen_results/8p0m/2024-11-26-14-13-15/
REMARK  5 active torsions:
REMARK  status: ('A' for Active; 'I' for Inactive)
REMARK    1  A    between atoms: C_1  and  C_2
REMARK    2  A    between atoms: C_3  and  C_13
REMARK    3  A    between atoms: C_5  and  C_9
REMARK    4  A    between atoms: C_7  and  C_20
REMARK    5  A    between atoms: C_23  and  N_28
REMARK                            x       y       z     vdW  Elec       q    Type
REMARK                         _______ _______ _______ _____ _____    ______ ____
ROOT
ATOM      1  C   UNL A   1     -27.210   2.968  27.874  0.00  0.00    -0.005 A 
ATOM      2  C   UNL A   1     -27.155   2.605  26.529  0.00  0.00    -0.021 A 
ATOM      3  C   UNL A   1     -25.951   2.275  25.743  0.00  0.00    -0.000 A 
ATOM      4  C   UNL A   1     -24.700   2.551  26.376  0.00  0.00    +0.071 A 
ATOM      5  C   UNL A   1     -24.710   2.962  27.713  0.00  0.00    +0.008 A 
ATOM      6  C   UNL A   1     -25.847   3.172  28.414  0.00  0.00    +0.051 A 
ENDROOT
BRANCH   6   7
ATOM      7  C   UNL A   1     -25.697   3.663  29.782  0.00  0.00    +0.249 C 
ATOM      8  N   UNL A   1     -25.453   2.826  30.653  0.00  0.00    -0.275 N 
ATOM      9  C   UNL A   1     -24.714   1.853  30.569  0.00  0.00    +0.110 C 
ATOM     10  C   UNL A   1     -24.574   0.892  31.720  0.00  0.00    +0.078 C 
ATOM     11  C   UNL A   1     -26.046   3.044  31.999  0.00  0.00    +0.094 C 
ATOM     12  C   UNL A   1     -25.963   2.131  33.016  0.00  0.00    +0.023 C 
ATOM     13  C   UNL A   1     -25.109   1.054  32.878  0.00  0.00    +0.019 C 
ATOM     14  O   UNL A   1     -25.587   4.909  29.879  0.00  0.00    -0.270 OA
BRANCH  10  15
ATOM     15  N   UNL A   1     -23.679  -0.288  31.476  0.00  0.00    -0.268 NA
ATOM     16  C   UNL A   1     -22.566  -0.195  30.859  0.00  0.00    +0.099 C 
ATOM     17  C   UNL A   1     -22.438  -0.567  29.526  0.00  0.00    -0.009 C 
ATOM     18  C   UNL A   1     -22.924  -1.300  28.931  0.00  0.00    -0.007 C 
ATOM     19  C   UNL A   1     -23.918  -2.198  29.496  0.00  0.00    -0.021 C 
ATOM     20  C   UNL A   1     -24.703  -3.031  28.603  0.00  0.00    -0.005 C 
ATOM     21  C   UNL A   1     -24.209  -1.570  31.678  0.00  0.00    +0.077 C 
ATOM     22  C   UNL A   1     -24.709  -2.187  30.479  0.00  0.00    +0.044 C 
ENDBRANCH  10  15
ENDBRANCH   6   7
BRANCH   2  23
ATOM     23  C   UNL A   1     -28.372   2.409  25.719  0.00  0.00    +0.048 C 
ATOM     24  C   UNL A   1     -29.289   1.847  26.115  0.00  0.00    -0.026 C 
ATOM     25  C   UNL A   1     -28.322   3.020  24.410  0.00  0.00    +0.034 C 
ATOM     26  C   UNL A   1     -27.995   2.234  23.342  0.00  0.00    -0.030 C 
ATOM     27  C   UNL A   1     -27.722   0.934  23.731  0.00  0.00    -0.026 C 
ATOM     28  C   UNL A   1     -28.380   0.015  24.594  0.00  0.00    +0.051 C 
ATOM     29  C   UNL A   1     -28.948   0.385  25.819  0.00  0.00    -0.026 C 
ENDBRANCH   2  23
BRANCH   4  30
ATOM     30  C   UNL A   1     -23.522   2.296  25.575  0.00  0.00    +0.419 C 
ATOM     31  F   UNL A   1     -23.056   3.059  25.015  0.00  0.00    -0.166 F 
ATOM     32  F   UNL A   1     -22.509   1.761  26.499  0.00  0.00    -0.166 F 
ATOM     33  F   UNL A   1     -23.820   1.132  24.798  0.00  0.00    -0.166 F 
ENDBRANCH   4  30
BRANCH   1  34
ATOM     34  C   UNL A   1     -28.239   3.217  28.459  0.00  0.00    +0.121 C 
ATOM     35 CL   UNL A   1     -28.761   4.569  28.455  0.00  0.00    -0.108 Cl
ENDBRANCH   1  34
TORSDOF 5
ENDMDL
ENDMDL
