MODEL 1502
MODEL 1
REMARK VINA RESULT:    -4.266      0.000      0.000
REMARK INTER + INTRA:          -4.266
REMARK INTER:                  -4.266
REMARK INTRA:                   0.000
REMARK UNBOUND:                 0.000
REMARK  Name = No_1502-gen_results/8p0m/2024-11-26-14-13-15/
REMARK  0 active torsions:
REMARK  status: ('A' for Active; 'I' for Inactive)
REMARK                            x       y       z     vdW  Elec       q    Type
REMARK                         _______ _______ _______ _____ _____    ______ ____
ROOT
ATOM      1  C   UNL A   1     -26.371  -3.845  29.820  0.00  0.00    +0.000 A 
ATOM      2  C   UNL A   1     -26.092  -4.844  29.631  0.00  0.00    +0.000 A 
ATOM      3  C   UNL A   1     -25.379  -2.810  29.485  0.00  0.00    +0.000 A 
ATOM      4  C   UNL A   1     -24.171  -3.154  28.811  0.00  0.00    +0.000 A 
ATOM      5  C   UNL A   1     -24.947  -5.455  28.902  0.00  0.00    +0.000 A 
ATOM      6  C   UNL A   1     -24.001  -4.527  28.584  0.00  0.00    +0.000 A 
ENDROOT
TORSDOF 0
ENDMDL
ENDMDL
