REMARK  Name = No_1503-gen_results/8p0m/2024-11-26-14-13-15/
REMARK  5 active torsions:
REMARK  status: ('A' for Active; 'I' for Inactive)
REMARK    1  A    between atoms: C_2  and  C_7
REMARK    2  A    between atoms: C_6  and  O_13
REMARK    3  A    between atoms: O_13  and  C_14
REMARK    4  A    between atoms: C_14  and  C_15
REMARK    5  A    between atoms: C_14  and  C_21
REMARK                            x       y       z     vdW  Elec       q    Type
REMARK                         _______ _______ _______ _____ _____    ______ ____
ROOT
ATOM      1  C   UNL A   1     -30.101  -2.175  30.537  0.00  0.00    +0.171 C 
ATOM      2  C   UNL A   1     -30.293  -0.665  30.174  0.00  0.00    +0.053 C 
ENDROOT
BRANCH   1   3
ATOM      3  C   UNL A   1     -31.182  -2.890  30.120  0.00  0.00    +0.018 A 
ATOM      4  C   UNL A   1     -32.246  -2.207  29.611  0.00  0.00    -0.001 A 
ATOM      5  C   UNL A   1     -33.239  -2.857  28.902  0.00  0.00    -0.000 A 
ATOM      6  C   UNL A   1     -33.224  -4.285  28.824  0.00  0.00    -0.000 A 
ATOM      7  C   UNL A   1     -32.131  -4.980  29.345  0.00  0.00    -0.000 A 
ATOM      8  C   UNL A   1     -31.090  -4.259  29.907  0.00  0.00    -0.001 A 
ENDBRANCH   1   3
BRANCH   1   9
ATOM      9  C   UNL A   1     -30.035  -2.130  32.126  0.00  0.00    +0.018 A 
ATOM     10  C   UNL A   1     -29.980  -0.878  32.693  0.00  0.00    -0.001 A 
ATOM     11  C   UNL A   1     -30.160  -3.273  32.839  0.00  0.00    -0.001 A 
ATOM     12  C   UNL A   1     -29.951  -0.791  34.090  0.00  0.00    -0.000 A 
ATOM     13  C   UNL A   1     -30.113  -3.180  34.273  0.00  0.00    -0.000 A 
ATOM     14  C   UNL A   1     -30.020  -1.957  34.879  0.00  0.00    -0.000 A 
ENDBRANCH   1   9
BRANCH   1  15
ATOM     15  O   UNL A   1     -28.976  -2.719  30.160  0.00  0.00    -0.474 OA
BRANCH  15  21
ATOM     16  C   UNL A   1     -28.016  -0.814  28.878  0.00  0.00    +0.038 A 
ATOM     17  C   UNL A   1     -27.064  -0.119  28.608  0.00  0.00    +0.021 A 
ATOM     18  C   UNL A   1     -25.792  -0.430  29.076  0.00  0.00    +0.002 A 
ATOM     19  C   UNL A   1     -25.576  -1.565  29.936  0.00  0.00    +0.003 A 
ATOM     20  C   UNL A   1     -26.735  -2.300  30.217  0.00  0.00    +0.037 A 
ATOM     21  C   UNL A   1     -27.918  -1.954  29.763  0.00  0.00    +0.139 A 
BRANCH  17  22
ATOM     22  C   UNL A   1     -27.106   1.102  27.759  0.00  0.00    +0.081 A 
ATOM     23  N   UNL A   1     -26.235   1.456  27.015  0.00  0.00    -0.244 NA
ATOM     24  C   UNL A   1     -28.352   1.856  27.712  0.00  0.00    +0.019 A 
ATOM     25  C   UNL A   1     -26.264   2.550  26.188  0.00  0.00    +0.099 A 
ATOM     26  C   UNL A   1     -28.453   2.996  26.929  0.00  0.00    +0.003 A 
ATOM     27  C   UNL A   1     -27.360   3.378  26.156  0.00  0.00    +0.021 A 
ENDBRANCH  17  22
ENDBRANCH  15  21
ENDBRANCH   1  15
TORSDOF 5
