MODEL 1503
MODEL 1
REMARK VINA RESULT:    -8.028      0.000      0.000
REMARK INTER + INTRA:         -11.936
REMARK INTER:                 -10.375
REMARK INTRA:                  -1.561
REMARK UNBOUND:                -1.561
REMARK  Name = No_1503-gen_results/8p0m/2024-11-26-14-13-15/
REMARK  5 active torsions:
REMARK  status: ('A' for Active; 'I' for Inactive)
REMARK    1  A    between atoms: C_2  and  C_7
REMARK    2  A    between atoms: C_6  and  O_13
REMARK    3  A    between atoms: O_13  and  C_14
REMARK    4  A    between atoms: C_14  and  C_15
REMARK    5  A    between atoms: C_14  and  C_21
REMARK                            x       y       z     vdW  Elec       q    Type
REMARK                         _______ _______ _______ _____ _____    ______ ____
ROOT
ATOM      1  C   UNL A   1     -24.583  -1.130  29.501  0.00  0.00    +0.171 C 
ATOM      2  C   UNL A   1     -23.141  -0.903  28.938  0.00  0.00    +0.053 C 
ENDROOT
BRANCH   1   3
ATOM      3  C   UNL A   1     -24.628  -0.770  30.813  0.00  0.00    +0.018 A 
ATOM      4  C   UNL A   1     -25.784  -0.230  31.292  0.00  0.00    -0.001 A 
ATOM      5  C   UNL A   1     -26.011  -0.119  32.651  0.00  0.00    -0.000 A 
ATOM      6  C   UNL A   1     -24.960  -0.442  33.566  0.00  0.00    -0.000 A 
ATOM      7  C   UNL A   1     -23.779  -0.997  33.070  0.00  0.00    -0.000 A 
ATOM      8  C   UNL A   1     -23.672  -1.229  31.709  0.00  0.00    -0.001 A 
ENDBRANCH   1   3
BRANCH   1   9
ATOM      9  C   UNL A   1     -24.759  -2.704  29.342  0.00  0.00    +0.018 A 
ATOM     10  C   UNL A   1     -25.948  -3.227  29.794  0.00  0.00    -0.001 A 
ATOM     11  C   UNL A   1     -23.824  -3.423  28.679  0.00  0.00    -0.001 A 
ATOM     12  C   UNL A   1     -26.156  -4.604  29.647  0.00  0.00    -0.000 A 
ATOM     13  C   UNL A   1     -24.035  -4.839  28.545  0.00  0.00    -0.000 A 
ATOM     14  C   UNL A   1     -25.187  -5.409  29.015  0.00  0.00    -0.000 A 
ENDBRANCH   1   9
BRANCH   1  15
ATOM     15  O   UNL A   1     -25.559  -0.603  28.812  0.00  0.00    -0.474 OA
BRANCH  15  21
ATOM     16  C   UNL A   1     -25.447   1.789  28.134  0.00  0.00    +0.038 A 
ATOM     17  C   UNL A   1     -25.161   2.620  27.304  0.00  0.00    +0.021 A 
ATOM     18  C   UNL A   1     -24.773   2.250  26.021  0.00  0.00    +0.002 A 
ATOM     19  C   UNL A   1     -24.655   0.862  25.654  0.00  0.00    +0.003 A 
ATOM     20  C   UNL A   1     -24.981  -0.032  26.682  0.00  0.00    +0.037 A 
ATOM     21  C   UNL A   1     -25.326   0.369  27.884  0.00  0.00    +0.139 A 
BRANCH  17  22
ATOM     22  C   UNL A   1     -25.200   4.092  27.514  0.00  0.00    +0.081 A 
ATOM     23  N   UNL A   1     -25.533   4.636  28.530  0.00  0.00    -0.244 NA
ATOM     24  C   UNL A   1     -24.660   4.945  26.463  0.00  0.00    +0.019 A 
ATOM     25  C   UNL A   1     -25.536   5.987  28.768  0.00  0.00    +0.099 A 
ATOM     26  C   UNL A   1     -24.659   6.324  26.610  0.00  0.00    +0.003 A 
ATOM     27  C   UNL A   1     -25.140   6.873  27.795  0.00  0.00    +0.021 A 
ENDBRANCH  17  22
ENDBRANCH  15  21
ENDBRANCH   1  15
TORSDOF 5
ENDMDL
ENDMDL
