REMARK  Name = No_1504-gen_results/8p0m/2024-11-26-14-13-15/
REMARK  3 active torsions:
REMARK  status: ('A' for Active; 'I' for Inactive)
REMARK    1  A    between atoms: P_1  and  O_2
REMARK    2  A    between atoms: O_2  and  C_6
REMARK    3  A    between atoms: C_9  and  C_12
REMARK                            x       y       z     vdW  Elec       q    Type
REMARK                         _______ _______ _______ _____ _____    ______ ____
ROOT
ATOM      1  C   UNL A   1     -25.947   0.317  28.608  0.00  0.00    +0.188 A 
ATOM      2  C   UNL A   1     -25.142   0.746  27.576  0.00  0.00    +0.041 A 
ATOM      3  C   UNL A   1     -23.773   0.831  27.863  0.00  0.00    +0.007 A 
ATOM      4  C   UNL A   1     -23.118  -0.012  28.797  0.00  0.00    +0.075 A 
ATOM      5  C   UNL A   1     -23.932  -0.707  29.739  0.00  0.00    +0.049 A 
ATOM      6  C   UNL A   1     -25.292  -0.590  29.588  0.00  0.00    +0.230 A 
ATOM      7  O   UNL A   1     -25.630  -0.423  30.951  0.00  0.00    -0.283 OA
ENDROOT
BRANCH   4   8
ATOM      8  C   UNL A   1     -21.657   0.084  28.959  0.00  0.00    +0.419 C 
ATOM      9  F   UNL A   1     -21.132  -0.843  29.617  0.00  0.00    -0.166 F 
ATOM     10  F   UNL A   1     -21.051   0.087  27.705  0.00  0.00    -0.166 F 
ATOM     11  F   UNL A   1     -21.362   1.293  29.467  0.00  0.00    -0.166 F 
ENDBRANCH   4   8
BRANCH   1  12
ATOM     12  O   UNL A   1     -27.240   0.061  28.428  0.00  0.00    -0.397 OA
BRANCH  12  13
ATOM     13  P   UNL A   1     -27.951  -0.579  29.040  0.00  0.00    +0.589 P 
ATOM     14  O   UNL A   1     -27.244  -1.982  29.377  0.00  0.00    -0.104 OA
ATOM     15  O   UNL A   1     -28.184  -0.028  30.520  0.00  0.00    -0.104 OA
ATOM     16  O   UNL A   1     -29.384  -0.939  28.657  0.00  0.00    -0.211 OA
ENDBRANCH  12  13
ENDBRANCH   1  12
TORSDOF 3
