MODEL 1504
MODEL 1
REMARK VINA RESULT:    -5.809      0.000      0.000
REMARK INTER + INTRA:          -7.205
REMARK INTER:                  -6.827
REMARK INTRA:                  -0.377
REMARK UNBOUND:                -0.377
REMARK  Name = No_1504-gen_results/8p0m/2024-11-26-14-13-15/
REMARK  3 active torsions:
REMARK  status: ('A' for Active; 'I' for Inactive)
REMARK    1  A    between atoms: P_1  and  O_2
REMARK    2  A    between atoms: O_2  and  C_6
REMARK    3  A    between atoms: C_9  and  C_12
REMARK                            x       y       z     vdW  Elec       q    Type
REMARK                         _______ _______ _______ _____ _____    ______ ____
ROOT
ATOM      1  C   UNL A   1     -28.974 -12.480  31.807  0.00  0.00    +0.188 A 
ATOM      2  C   UNL A   1     -28.754 -11.399  30.981  0.00  0.00    +0.041 A 
ATOM      3  C   UNL A   1     -28.757 -11.670  29.606  0.00  0.00    +0.007 A 
ATOM      4  C   UNL A   1     -29.531 -12.702  29.016  0.00  0.00    +0.075 A 
ATOM      5  C   UNL A   1     -30.025 -13.727  29.876  0.00  0.00    +0.049 A 
ATOM      6  C   UNL A   1     -29.806 -13.565  31.222  0.00  0.00    +0.230 A 
ATOM      7  O   UNL A   1     -29.438 -14.897  31.525  0.00  0.00    -0.283 OA
ENDROOT
BRANCH   4   8
ATOM      8  C   UNL A   1     -29.548 -12.847  27.551  0.00  0.00    +0.419 C 
ATOM      9  F   UNL A   1     -29.536 -14.027  27.132  0.00  0.00    -0.166 F 
ATOM     10  F   UNL A   1     -30.695 -12.245  27.039  0.00  0.00    -0.166 F 
ATOM     11  F   UNL A   1     -28.541 -12.119  27.038  0.00  0.00    -0.166 F 
ENDBRANCH   4   8
BRANCH   1  12
ATOM     12  O   UNL A   1     -29.133 -12.337  33.120  0.00  0.00    -0.397 OA
BRANCH  12  13
ATOM     13  P   UNL A   1     -28.358 -12.256  33.946  0.00  0.00    +0.589 P 
ATOM     14  O   UNL A   1     -28.300 -10.738  34.471  0.00  0.00    -0.104 OA
ATOM     15  O   UNL A   1     -28.788 -12.995  35.294  0.00  0.00    -0.104 OA
ATOM     16  O   UNL A   1     -26.900 -12.697  33.850  0.00  0.00    -0.211 OA
ENDBRANCH  12  13
ENDBRANCH   1  12
TORSDOF 3
ENDMDL
ENDMDL
