MODEL 1505
MODEL 1
REMARK VINA RESULT:    -4.893      0.000      0.000
REMARK INTER + INTRA:          -4.893
REMARK INTER:                  -4.893
REMARK INTRA:                   0.000
REMARK UNBOUND:                 0.000
REMARK  Name = No_1505-gen_results/8p0m/2024-11-26-14-13-15/
REMARK  0 active torsions:
REMARK  status: ('A' for Active; 'I' for Inactive)
REMARK                            x       y       z     vdW  Elec       q    Type
REMARK                         _______ _______ _______ _____ _____    ______ ____
ROOT
ATOM      1  C   UNL A   1     -10.270  -9.328  19.400  0.00  0.00    +0.005 C 
ATOM      2  C   UNL A   1      -9.380  -9.076  19.905  0.00  0.00    +0.033 C 
ATOM      3  C   UNL A   1     -10.107  -9.704  17.944  0.00  0.00    +0.001 C 
ATOM      4  C   UNL A   1      -9.160 -10.663  17.622  0.00  0.00    +0.005 C 
ATOM      5  C   UNL A   1      -8.192 -10.099  19.997  0.00  0.00    +0.030 C 
ATOM      6  C   UNL A   1      -7.140  -9.955  20.894  0.00  0.00    +0.125 C 
ATOM      7  C   UNL A   1      -8.109 -10.854  18.734  0.00  0.00    +0.033 C 
ATOM      8  O   UNL A   1      -6.139  -9.524  20.650  0.00  0.00    -0.232 OA
ENDROOT
TORSDOF 0
ENDMDL
ENDMDL
