REMARK  Name = No_1505-gen_results/8p0m/2024-11-26-14-13-15/
REMARK  0 active torsions:
REMARK  status: ('A' for Active; 'I' for Inactive)
REMARK                            x       y       z     vdW  Elec       q    Type
REMARK                         _______ _______ _______ _____ _____    ______ ____
ROOT
ATOM      1  C   UNL A   1     -28.016  -0.814  28.878  0.00  0.00    +0.005 C 
ATOM      2  C   UNL A   1     -28.469  -0.785  29.829  0.00  0.00    +0.033 C 
ATOM      3  C   UNL A   1     -26.504  -0.778  28.877  0.00  0.00    +0.001 C 
ATOM      4  C   UNL A   1     -25.831  -1.681  29.685  0.00  0.00    +0.005 C 
ATOM      5  C   UNL A   1     -28.149  -1.885  30.903  0.00  0.00    +0.030 C 
ATOM      6  C   UNL A   1     -28.930  -2.083  32.036  0.00  0.00    +0.125 C 
ATOM      7  C   UNL A   1     -26.727  -2.259  30.799  0.00  0.00    +0.033 C 
ATOM      8  O   UNL A   1     -28.703  -1.682  33.054  0.00  0.00    -0.232 OA
ENDROOT
TORSDOF 0
