MODEL 1506
MODEL 1
REMARK VINA RESULT:    -7.547      0.000      0.000
REMARK INTER + INTRA:         -13.294
REMARK INTER:                 -11.076
REMARK INTRA:                  -2.218
REMARK UNBOUND:                -2.218
REMARK  Name = No_1506-gen_results/8p0m/2024-11-26-14-13-15/
REMARK  8 active torsions:
REMARK  status: ('A' for Active; 'I' for Inactive)
REMARK    1  A    between atoms: C_2  and  C_23
REMARK    2  A    between atoms: C_3  and  O_14
REMARK    3  A    between atoms: C_4  and  C_6
REMARK    4  A    between atoms: C_6  and  C_8
REMARK    5  A    between atoms: O_14  and  C_15
REMARK    6  A    between atoms: N_25  and  C_26
REMARK    7  A    between atoms: C_27  and  C_28
REMARK    8  A    between atoms: C_28  and  C_29
REMARK                            x       y       z     vdW  Elec       q    Type
REMARK                         _______ _______ _______ _____ _____    ______ ____
ROOT
ATOM      1  C   UNL A   1     -11.013   0.788  35.866  0.00  0.00    +0.042 A 
ATOM      2  C   UNL A   1     -11.096   1.355  34.982  0.00  0.00    +0.058 A 
ATOM      3  C   UNL A   1      -9.649   0.476  36.323  0.00  0.00    +0.142 A 
ATOM      4  C   UNL A   1      -8.517   1.042  35.667  0.00  0.00    +0.016 A 
ATOM      5  C   UNL A   1     -10.103   2.098  34.159  0.00  0.00    +0.004 A 
ATOM      6  C   UNL A   1      -8.802   1.852  34.568  0.00  0.00    -0.001 A 
ENDROOT
BRANCH   2   7
ATOM      7  C   UNL A   1     -12.589   1.747  34.476  0.00  0.00    +0.269 C 
ATOM      8  O   UNL A   1     -13.068   1.084  33.657  0.00  0.00    -0.268 OA
ATOM      9  N   UNL A   1     -13.098   2.878  34.966  0.00  0.00    -0.174 NA
BRANCH   9  10
ATOM     10  C   UNL A   1     -12.549   3.721  35.995  0.00  0.00    +0.085 C 
ATOM     11  C   UNL A   1     -12.983   3.861  37.102  0.00  0.00    -0.004 C 
BRANCH  11  12
ATOM     12  C   UNL A   1     -13.464   2.917  37.741  0.00  0.00    +0.053 C 
BRANCH  12  13
ATOM     13  C   UNL A   1     -12.814   2.211  38.753  0.00  0.00    -0.026 C 
ATOM     14  C   UNL A   1     -13.357   2.271  40.033  0.00  0.00    -0.030 C 
ATOM     15  C   UNL A   1     -14.506   2.992  40.289  0.00  0.00    +0.030 C 
ENDBRANCH  12  13
ENDBRANCH  11  12
ENDBRANCH   9  10
ENDBRANCH   2   7
BRANCH   4  16
ATOM     16  C   UNL A   1      -7.192   0.782  36.054  0.00  0.00    +0.048 C 
ATOM     17  C   UNL A   1      -6.557   1.510  37.064  0.00  0.00    +0.009 C 
BRANCH  16  18
ATOM     18  C   UNL A   1      -6.520  -0.199  35.287  0.00  0.00    -0.015 A 
ATOM     19  C   UNL A   1      -6.987  -1.256  34.714  0.00  0.00    -0.004 A 
ATOM     20  C   UNL A   1      -6.166  -2.277  34.161  0.00  0.00    +0.003 A 
ATOM     21  C   UNL A   1      -4.799  -2.122  34.416  0.00  0.00    +0.042 A 
ATOM     22  C   UNL A   1      -5.019  -0.300  35.312  0.00  0.00    +0.038 A 
ATOM     23  C   UNL A   1      -4.243  -1.126  34.858  0.00  0.00    +0.195 A 
ATOM     24  O   UNL A   1      -2.907  -1.106  35.020  0.00  0.00    -0.287 OA
ENDBRANCH  16  18
ENDBRANCH   4  16
BRANCH   3  25
ATOM     25  O   UNL A   1      -9.394  -0.353  37.359  0.00  0.00    -0.454 OA
BRANCH  25  26
ATOM     26  C   UNL A   1     -10.434  -0.961  38.096  0.00  0.00    +0.145 A 
ATOM     27  C   UNL A   1     -10.662  -0.469  39.348  0.00  0.00    +0.037 A 
ATOM     28  C   UNL A   1     -11.171  -2.051  37.596  0.00  0.00    +0.037 A 
ATOM     29  C   UNL A   1     -12.103  -2.716  38.332  0.00  0.00    +0.003 A 
ATOM     30  C   UNL A   1     -11.539  -1.204  40.191  0.00  0.00    +0.003 A 
ATOM     31  C   UNL A   1     -12.252  -2.288  39.675  0.00  0.00    +0.000 A 
ENDBRANCH  25  26
ENDBRANCH   3  25
TORSDOF 8
ENDMDL
ENDMDL
