REMARK  Name = No_1506-gen_results/8p0m/2024-11-26-14-13-15/
REMARK  8 active torsions:
REMARK  status: ('A' for Active; 'I' for Inactive)
REMARK    1  A    between atoms: C_2  and  C_23
REMARK    2  A    between atoms: C_3  and  O_14
REMARK    3  A    between atoms: C_4  and  C_6
REMARK    4  A    between atoms: C_6  and  C_8
REMARK    5  A    between atoms: O_14  and  C_15
REMARK    6  A    between atoms: N_25  and  C_26
REMARK    7  A    between atoms: C_27  and  C_28
REMARK    8  A    between atoms: C_28  and  C_29
REMARK                            x       y       z     vdW  Elec       q    Type
REMARK                         _______ _______ _______ _____ _____    ______ ____
ROOT
ATOM      1  C   UNL A   1     -28.016  -0.814  28.878  0.00  0.00    +0.042 A 
ATOM      2  C   UNL A   1     -28.469  -0.785  29.829  0.00  0.00    +0.058 A 
ATOM      3  C   UNL A   1     -26.546  -0.876  28.850  0.00  0.00    +0.142 A 
ATOM      4  C   UNL A   1     -25.804  -1.032  30.057  0.00  0.00    +0.016 A 
ATOM      5  C   UNL A   1     -27.944  -0.987  31.207  0.00  0.00    +0.004 A 
ATOM      6  C   UNL A   1     -26.561  -1.075  31.227  0.00  0.00    -0.001 A 
ENDROOT
BRANCH   2   7
ATOM      7  C   UNL A   1     -30.092  -0.754  29.890  0.00  0.00    +0.269 C 
ATOM      8  O   UNL A   1     -30.641  -1.758  30.060  0.00  0.00    -0.268 OA
ATOM      9  N   UNL A   1     -30.668   0.419  29.622  0.00  0.00    -0.174 NA
BRANCH   9  10
ATOM     10  C   UNL A   1     -30.028   1.693  29.424  0.00  0.00    +0.085 C 
ATOM     11  C   UNL A   1     -30.578   2.743  29.255  0.00  0.00    -0.004 C 
BRANCH  11  12
ATOM     12  C   UNL A   1     -31.617   3.042  29.857  0.00  0.00    +0.053 C 
BRANCH  12  13
ATOM     13  C   UNL A   1     -32.338   4.224  29.688  0.00  0.00    -0.026 C 
ATOM     14  C   UNL A   1     -31.823   5.173  28.810  0.00  0.00    -0.030 C 
ATOM     15  C   UNL A   1     -30.650   4.946  28.119  0.00  0.00    +0.030 C 
ENDBRANCH  12  13
ENDBRANCH  11  12
ENDBRANCH   9  10
ENDBRANCH   2   7
BRANCH   4  16
ATOM     16  C   UNL A   1     -24.401  -1.097  30.096  0.00  0.00    +0.048 C 
ATOM     17  C   UNL A   1     -23.720  -2.287  30.366  0.00  0.00    +0.009 C 
BRANCH  16  18
ATOM     18  C   UNL A   1     -23.734   0.141  29.938  0.00  0.00    -0.015 A 
ATOM     19  C   UNL A   1     -23.987   1.285  30.478  0.00  0.00    -0.004 A 
ATOM     20  C   UNL A   1     -23.376   2.500  30.063  0.00  0.00    +0.003 A 
ATOM     21  C   UNL A   1     -22.581   2.387  28.918  0.00  0.00    +0.042 A 
ATOM     22  C   UNL A   1     -22.772   0.357  28.802  0.00  0.00    +0.038 A 
ATOM     23  C   UNL A   1     -22.198   1.353  28.389  0.00  0.00    +0.195 A 
ATOM     24  O   UNL A   1     -21.402   1.395  27.305  0.00  0.00    -0.287 OA
ENDBRANCH  16  18
ENDBRANCH   4  16
BRANCH   3  25
ATOM     25  O   UNL A   1     -25.829  -0.782  27.709  0.00  0.00    -0.454 OA
BRANCH  25  26
ATOM     26  C   UNL A   1     -25.812   0.402  26.939  0.00  0.00    +0.145 A 
ATOM     27  C   UNL A   1     -25.289   0.305  25.683  0.00  0.00    +0.037 A 
ATOM     28  C   UNL A   1     -26.263   1.635  27.447  0.00  0.00    +0.037 A 
ATOM     29  C   UNL A   1     -26.157   2.805  26.759  0.00  0.00    +0.003 A 
ATOM     30  C   UNL A   1     -25.050   1.516  24.977  0.00  0.00    +0.003 A 
ATOM     31  C   UNL A   1     -25.498   2.728  25.506  0.00  0.00    +0.000 A 
ENDBRANCH  25  26
ENDBRANCH   3  25
TORSDOF 8
