MODEL 1507
MODEL 1
REMARK VINA RESULT:    -7.819      0.000      0.000
REMARK INTER + INTRA:         -11.091
REMARK INTER:                 -10.105
REMARK INTRA:                  -0.987
REMARK UNBOUND:                -0.987
REMARK  Name = No_1507-gen_results/8p0m/2024-11-26-14-13-15/
REMARK  5 active torsions:
REMARK  status: ('A' for Active; 'I' for Inactive)
REMARK    1  A    between atoms: C_5  and  C_11
REMARK    2  A    between atoms: C_7  and  C_25
REMARK    3  A    between atoms: C_8  and  C_14
REMARK    4  A    between atoms: N_12  and  C_28
REMARK    5  A    between atoms: C_21  and  C_22
REMARK                            x       y       z     vdW  Elec       q    Type
REMARK                         _______ _______ _______ _____ _____    ______ ____
ROOT
ATOM      1  C   UNL A   1     -25.170  -1.754  30.240  0.00  0.00    +0.005 A 
ATOM      2  C   UNL A   1     -26.161  -2.443  30.321  0.00  0.00    +0.006 A 
ATOM      3  C   UNL A   1     -26.147  -3.771  29.909  0.00  0.00    +0.000 A 
ATOM      4  C   UNL A   1     -27.300  -4.716  29.948  0.00  0.00    +0.005 A 
ATOM      5  C   UNL A   1     -28.470  -4.246  30.613  0.00  0.00    +0.055 A 
ATOM      6  C   UNL A   1     -28.442  -2.915  31.077  0.00  0.00    +0.011 A 
ATOM      7  C   UNL A   1     -27.390  -2.263  30.947  0.00  0.00    +0.080 A 
ATOM      8  C   UNL A   1     -24.225  -1.943  29.087  0.00  0.00    +0.054 A 
ATOM      9  C   UNL A   1     -23.900  -3.322  28.836  0.00  0.00    +0.004 A 
ATOM     10  C   UNL A   1     -25.007  -4.269  29.019  0.00  0.00    +0.000 A 
ENDROOT
BRANCH   8  11
ATOM     11  C   UNL A   1     -23.073  -1.041  28.869  0.00  0.00    +0.249 C 
ATOM     12  N   UNL A   1     -23.304  -0.008  28.082  0.00  0.00    -0.276 N 
ATOM     13  C   UNL A   1     -24.233  -0.049  27.228  0.00  0.00    +0.094 C 
ATOM     14  C   UNL A   1     -22.505   1.183  28.257  0.00  0.00    +0.094 C 
ATOM     15  O   UNL A   1     -21.926  -1.453  29.071  0.00  0.00    -0.270 OA
ATOM     16  C   UNL A   1     -24.702   1.181  26.576  0.00  0.00    +0.028 C 
ATOM     17  C   UNL A   1     -23.052   2.401  27.757  0.00  0.00    +0.028 C 
ATOM     18  C   UNL A   1     -24.028   2.340  26.784  0.00  0.00    +0.080 C 
BRANCH  18  19
ATOM     19  C   UNL A   1     -24.484   3.586  26.138  0.00  0.00    +0.330 C 
ATOM     20 CL   UNL A   1     -24.967   4.803  27.084  0.00  0.00    -0.047 Cl
ATOM     21  F   UNL A   1     -23.561   3.889  25.180  0.00  0.00    -0.187 F 
ATOM     22  F   UNL A   1     -25.637   3.235  25.444  0.00  0.00    -0.187 F 
ENDBRANCH  18  19
ENDBRANCH   8  11
BRANCH   5  23
ATOM     23  C   UNL A   1     -29.613  -5.192  30.744  0.00  0.00    +0.265 C 
ATOM     24  N   UNL A   1     -30.745  -4.962  30.115  0.00  0.00    -0.202 NA
ATOM     25  O   UNL A   1     -29.388  -6.234  31.422  0.00  0.00    -0.268 OA
BRANCH  24  26
ATOM     26  C   UNL A   1     -31.259  -5.077  29.252  0.00  0.00    +0.116 C 
ATOM     27  C   UNL A   1     -30.826  -5.995  28.169  0.00  0.00    +0.025 C 
ENDBRANCH  24  26
ENDBRANCH   5  23
BRANCH   7  28
ATOM     28  C   UNL A   1     -27.515  -0.775  31.544  0.00  0.00    +0.388 C 
ATOM     29  O   UNL A   1     -27.922   0.109  30.967  0.00  0.00    -0.241 OA
ATOM     30  O   UNL A   1     -27.154  -0.642  32.804  0.00  0.00    -0.241 OA
ENDBRANCH   7  28
TORSDOF 5
ENDMDL
ENDMDL
