REMARK  Name = No_1507-gen_results/8p0m/2024-11-26-14-13-15/
REMARK  5 active torsions:
REMARK  status: ('A' for Active; 'I' for Inactive)
REMARK    1  A    between atoms: C_5  and  C_11
REMARK    2  A    between atoms: C_7  and  C_25
REMARK    3  A    between atoms: C_8  and  C_14
REMARK    4  A    between atoms: N_12  and  C_28
REMARK    5  A    between atoms: C_21  and  C_22
REMARK                            x       y       z     vdW  Elec       q    Type
REMARK                         _______ _______ _______ _____ _____    ______ ____
ROOT
ATOM      1  C   UNL A   1     -28.016  -0.814  28.878  0.00  0.00    +0.005 A 
ATOM      2  C   UNL A   1     -27.064  -0.119  28.608  0.00  0.00    +0.006 A 
ATOM      3  C   UNL A   1     -25.792  -0.430  29.076  0.00  0.00    +0.000 A 
ATOM      4  C   UNL A   1     -24.546   0.349  28.823  0.00  0.00    +0.005 A 
ATOM      5  C   UNL A   1     -24.659   1.420  27.888  0.00  0.00    +0.055 A 
ATOM      6  C   UNL A   1     -25.947   1.681  27.379  0.00  0.00    +0.011 A 
ATOM      7  C   UNL A   1     -26.881   0.930  27.712  0.00  0.00    +0.080 A 
ATOM      8  C   UNL A   1     -28.093  -1.481  30.223  0.00  0.00    +0.054 A 
ATOM      9  C   UNL A   1     -26.869  -2.133  30.607  0.00  0.00    +0.004 A 
ATOM     10  C   UNL A   1     -25.638  -1.430  30.224  0.00  0.00    +0.000 A 
ENDROOT
BRANCH   8  11
ATOM     11  C   UNL A   1     -29.293  -2.231  30.652  0.00  0.00    +0.249 C 
ATOM     12  N   UNL A   1     -30.421  -1.547  30.642  0.00  0.00    -0.276 N 
ATOM     13  C   UNL A   1     -30.407  -0.288  30.734  0.00  0.00    +0.094 C 
ATOM     14  C   UNL A   1     -31.662  -2.268  30.471  0.00  0.00    +0.094 C 
ATOM     15  O   UNL A   1     -29.165  -3.252  31.335  0.00  0.00    -0.270 OA
ATOM     16  C   UNL A   1     -31.606   0.497  30.410  0.00  0.00    +0.028 C 
ATOM     17  C   UNL A   1     -32.779  -1.519  30.000  0.00  0.00    +0.028 C 
ATOM     18  C   UNL A   1     -32.773  -0.148  30.158  0.00  0.00    +0.080 C 
BRANCH  18  19
ATOM     19  C   UNL A   1     -33.988   0.623  29.831  0.00  0.00    +0.330 C 
ATOM     20 CL   UNL A   1     -34.228   2.027  30.593  0.00  0.00    -0.047 Cl
ATOM     21  F   UNL A   1     -34.082   0.645  28.470  0.00  0.00    -0.187 F 
ATOM     22  F   UNL A   1     -35.048  -0.168  30.263  0.00  0.00    -0.187 F 
ENDBRANCH  18  19
ENDBRANCH   8  11
BRANCH   5  23
ATOM     23  C   UNL A   1     -23.417   2.168  27.548  0.00  0.00    +0.265 C 
ATOM     24  N   UNL A   1     -22.248   1.753  27.985  0.00  0.00    -0.202 NA
ATOM     25  O   UNL A   1     -23.564   3.154  26.772  0.00  0.00    -0.268 OA
BRANCH  24  26
ATOM     26  C   UNL A   1     -21.459   1.144  27.810  0.00  0.00    +0.116 C 
ATOM     27  C   UNL A   1     -21.142  -0.032  28.657  0.00  0.00    +0.025 C 
ENDBRANCH  24  26
ENDBRANCH   5  23
BRANCH   7  28
ATOM     28  C   UNL A   1     -28.276   1.349  27.032  0.00  0.00    +0.388 C 
ATOM     29  O   UNL A   1     -28.427   1.478  25.918  0.00  0.00    -0.241 OA
ATOM     30  O   UNL A   1     -29.288   1.490  27.864  0.00  0.00    -0.241 OA
ENDBRANCH   7  28
TORSDOF 5
