REMARK  Name = No_1508-gen_results/8p0m/2024-11-26-14-13-15/
REMARK  7 active torsions:
REMARK  status: ('A' for Active; 'I' for Inactive)
REMARK    1  A    between atoms: C_3  and  C_7
REMARK    2  A    between atoms: C_7  and  C_8
REMARK    3  A    between atoms: C_7  and  C_14
REMARK    4  A    between atoms: C_10  and  C_17
REMARK    5  A    between atoms: N_15  and  C_16
REMARK    6  A    between atoms: C_16  and  C_21
REMARK    7  A    between atoms: C_21  and  C_22
REMARK                            x       y       z     vdW  Elec       q    Type
REMARK                         _______ _______ _______ _____ _____    ______ ____
ROOT
ATOM      1  C   UNL A   1     -27.459   0.493  26.770  0.00  0.00    +0.085 C 
ENDROOT
BRANCH   1   4
ATOM      2  C   UNL A   1     -28.016  -0.814  28.878  0.00  0.00    -0.004 A 
ATOM      3  C   UNL A   1     -28.469  -0.785  29.829  0.00  0.00    -0.000 A 
ATOM      4  C   UNL A   1     -28.182   0.428  28.113  0.00  0.00    -0.013 A 
ATOM      5  C   UNL A   1     -28.984   1.415  28.515  0.00  0.00    -0.004 A 
ATOM      6  C   UNL A   1     -29.380   0.138  30.461  0.00  0.00    -0.000 A 
ATOM      7  C   UNL A   1     -29.541   1.274  29.724  0.00  0.00    -0.000 A 
ENDBRANCH   1   4
BRANCH   1   8
ATOM      8  C   UNL A   1     -26.026   0.384  26.762  0.00  0.00    -0.013 A 
ATOM      9  C   UNL A   1     -25.237   0.206  27.926  0.00  0.00    +0.001 A 
ATOM     10  C   UNL A   1     -23.868   0.288  27.861  0.00  0.00    +0.055 A 
ATOM     11  C   UNL A   1     -23.274   0.971  26.804  0.00  0.00    +0.004 A 
ATOM     12  C   UNL A   1     -24.037   1.418  25.727  0.00  0.00    -0.000 A 
ATOM     13  C   UNL A   1     -25.385   1.165  25.687  0.00  0.00    -0.004 A 
BRANCH  10  14
ATOM     14  C   UNL A   1     -22.817  -0.012  28.894  0.00  0.00    +0.265 C 
ATOM     15  N   UNL A   1     -23.239  -0.614  30.014  0.00  0.00    -0.200 NA
ATOM     16  O   UNL A   1     -21.628   0.411  28.883  0.00  0.00    -0.268 OA
ATOM     17  C   UNL A   1     -22.389  -1.008  31.174  0.00  0.00    +0.139 C 
ENDBRANCH  10  14
ENDBRANCH   1   8
BRANCH   1  18
ATOM     18  C   UNL A   1     -28.192   0.360  25.621  0.00  0.00    +0.075 C 
ATOM     19  N   UNL A   1     -28.562   1.038  24.813  0.00  0.00    -0.273 NA
BRANCH  19  20
ATOM     20  C   UNL A   1     -28.472   2.455  25.105  0.00  0.00    +0.130 C 
BRANCH  20  21
ATOM     21  C   UNL A   1     -29.639   3.239  24.517  0.00  0.00    +0.053 C 
BRANCH  21  22
ATOM     22  C   UNL A   1     -30.855   2.978  25.124  0.00  0.00    -0.020 A 
ATOM     23  C   UNL A   1     -31.945   3.564  24.454  0.00  0.00    -0.004 A 
ATOM     24  C   UNL A   1     -33.166   3.718  25.059  0.00  0.00    -0.000 A 
ATOM     25  C   UNL A   1     -33.325   3.088  26.334  0.00  0.00    -0.000 A 
ATOM     26  C   UNL A   1     -32.377   2.497  26.839  0.00  0.00    -0.000 A 
ATOM     27  C   UNL A   1     -31.062   2.524  26.413  0.00  0.00    -0.004 A 
ENDBRANCH  21  22
ENDBRANCH  20  21
ENDBRANCH  19  20
ENDBRANCH   1  18
TORSDOF 7
