MODEL 1508
MODEL 1
REMARK VINA RESULT:    -7.122      0.000      0.000
REMARK INTER + INTRA:         -13.693
REMARK INTER:                 -10.037
REMARK INTRA:                  -3.657
REMARK UNBOUND:                -3.657
REMARK  Name = No_1508-gen_results/8p0m/2024-11-26-14-13-15/
REMARK  7 active torsions:
REMARK  status: ('A' for Active; 'I' for Inactive)
REMARK    1  A    between atoms: C_3  and  C_7
REMARK    2  A    between atoms: C_7  and  C_8
REMARK    3  A    between atoms: C_7  and  C_14
REMARK    4  A    between atoms: C_10  and  C_17
REMARK    5  A    between atoms: N_15  and  C_16
REMARK    6  A    between atoms: C_16  and  C_21
REMARK    7  A    between atoms: C_21  and  C_22
REMARK                            x       y       z     vdW  Elec       q    Type
REMARK                         _______ _______ _______ _____ _____    ______ ____
ROOT
ATOM      1  C   UNL A   1     -23.911  -1.012  29.044  0.00  0.00    +0.085 C 
ENDROOT
BRANCH   1   4
ATOM      2  C   UNL A   1     -22.881   0.950  27.798  0.00  0.00    -0.004 A 
ATOM      3  C   UNL A   1     -22.903   1.537  26.923  0.00  0.00    -0.000 A 
ATOM      4  C   UNL A   1     -23.949  -0.056  27.854  0.00  0.00    -0.013 A 
ATOM      5  C   UNL A   1     -24.948  -0.089  26.972  0.00  0.00    -0.004 A 
ATOM      6  C   UNL A   1     -23.869   1.694  25.864  0.00  0.00    -0.000 A 
ATOM      7  C   UNL A   1     -24.866   0.768  25.947  0.00  0.00    -0.000 A 
ENDBRANCH   1   4
BRANCH   1   8
ATOM      8  C   UNL A   1     -24.673  -2.228  28.965  0.00  0.00    -0.013 A 
ATOM      9  C   UNL A   1     -25.871  -2.463  29.685  0.00  0.00    +0.001 A 
ATOM     10  C   UNL A   1     -26.446  -3.710  29.696  0.00  0.00    +0.055 A 
ATOM     11  C   UNL A   1     -25.666  -4.824  29.404  0.00  0.00    +0.004 A 
ATOM     12  C   UNL A   1     -24.363  -4.678  28.933  0.00  0.00    -0.000 A 
ATOM     13  C   UNL A   1     -23.843  -3.425  28.727  0.00  0.00    -0.004 A 
BRANCH  10  14
ATOM     14  C   UNL A   1     -27.770  -4.174  30.238  0.00  0.00    +0.265 C 
ATOM     15  N   UNL A   1     -28.737  -3.250  30.318  0.00  0.00    -0.200 NA
ATOM     16  O   UNL A   1     -27.994  -5.288  30.787  0.00  0.00    -0.268 OA
ATOM     17  C   UNL A   1     -30.123  -3.471  30.820  0.00  0.00    +0.139 C 
ENDBRANCH  10  14
ENDBRANCH   1   8
BRANCH   1  18
ATOM     18  C   UNL A   1     -22.950  -0.832  30.002  0.00  0.00    +0.075 C 
ATOM     19  N   UNL A   1     -22.922  -0.505  31.071  0.00  0.00    -0.273 NA
BRANCH  19  20
ATOM     20  C   UNL A   1     -24.139   0.111  31.561  0.00  0.00    +0.130 C 
BRANCH  20  21
ATOM     21  C   UNL A   1     -24.188   1.605  31.264  0.00  0.00    +0.053 C 
BRANCH  21  22
ATOM     22  C   UNL A   1     -25.276   1.992  30.502  0.00  0.00    -0.020 A 
ATOM     23  C   UNL A   1     -26.342   1.075  30.553  0.00  0.00    -0.004 A 
ATOM     24  C   UNL A   1     -27.352   1.089  29.626  0.00  0.00    -0.000 A 
ATOM     25  C   UNL A   1     -27.363   2.196  28.719  0.00  0.00    -0.000 A 
ATOM     26  C   UNL A   1     -26.469   3.033  28.775  0.00  0.00    -0.000 A 
ATOM     27  C   UNL A   1     -25.295   2.944  29.499  0.00  0.00    -0.004 A 
ENDBRANCH  21  22
ENDBRANCH  20  21
ENDBRANCH  19  20
ENDBRANCH   1  18
TORSDOF 7
ENDMDL
ENDMDL
