REMARK  Name = No_1509-gen_results/8p0m/2024-11-26-14-13-15/
REMARK  0 active torsions:
REMARK  status: ('A' for Active; 'I' for Inactive)
REMARK                            x       y       z     vdW  Elec       q    Type
REMARK                         _______ _______ _______ _____ _____    ______ ____
ROOT
ATOM      1  C   UNL A   1     -28.016  -0.814  28.878  0.00  0.00    +0.081 A 
ATOM      2  C   UNL A   1     -28.469  -0.785  29.829  0.00  0.00    +0.019 A 
ATOM      3  N   UNL A   1     -28.303   0.247  28.034  0.00  0.00    -0.244 NA
ATOM      4  C   UNL A   1     -27.358   0.761  27.179  0.00  0.00    +0.099 A 
ATOM      5  C   UNL A   1     -26.012   0.329  27.288  0.00  0.00    +0.021 A 
ATOM      6  C   UNL A   1     -25.640  -0.632  28.271  0.00  0.00    +0.003 A 
ATOM      7  C   UNL A   1     -26.582  -1.010  29.146  0.00  0.00    +0.014 A 
ATOM      8  C   UNL A   1     -28.294  -1.892  30.874  0.00  0.00    +0.001 A 
ATOM      9  C   UNL A   1     -27.014  -2.397  31.044  0.00  0.00    -0.004 A 
ATOM     10  C   UNL A   1     -26.103  -1.978  30.135  0.00  0.00    -0.020 A 
ATOM     11  C   UNL A   1     -24.777  -2.543  30.076  0.00  0.00    +0.031 C 
ENDROOT
TORSDOF 0
