MODEL 1509
MODEL 1
REMARK VINA RESULT:    -5.515      0.000      0.000
REMARK INTER + INTRA:          -5.515
REMARK INTER:                  -5.515
REMARK INTRA:                   0.000
REMARK UNBOUND:                 0.000
REMARK  Name = No_1509-gen_results/8p0m/2024-11-26-14-13-15/
REMARK  0 active torsions:
REMARK  status: ('A' for Active; 'I' for Inactive)
REMARK                            x       y       z     vdW  Elec       q    Type
REMARK                         _______ _______ _______ _____ _____    ______ ____
ROOT
ATOM      1  C   UNL A   1     -23.960  -3.056  29.296  0.00  0.00    +0.081 A 
ATOM      2  C   UNL A   1     -24.038  -3.938  28.724  0.00  0.00    +0.019 A 
ATOM      3  N   UNL A   1     -23.087  -2.093  28.814  0.00  0.00    -0.244 NA
ATOM      4  C   UNL A   1     -23.364  -0.752  28.928  0.00  0.00    +0.099 A 
ATOM      5  C   UNL A   1     -24.645  -0.341  29.375  0.00  0.00    +0.021 A 
ATOM      6  C   UNL A   1     -25.637  -1.306  29.708  0.00  0.00    +0.003 A 
ATOM      7  C   UNL A   1     -25.346  -2.592  29.469  0.00  0.00    +0.014 A 
ATOM      8  C   UNL A   1     -24.923  -5.122  29.128  0.00  0.00    +0.001 A 
ATOM      9  C   UNL A   1     -26.193  -4.823  29.597  0.00  0.00    -0.004 A 
ATOM     10  C   UNL A   1     -26.433  -3.510  29.816  0.00  0.00    -0.020 A 
ATOM     11  C   UNL A   1     -27.642  -3.058  30.461  0.00  0.00    +0.031 C 
ENDROOT
TORSDOF 0
ENDMDL
ENDMDL
