MODEL 150
MODEL 1
REMARK VINA RESULT:    -6.093      0.000      0.000
REMARK INTER + INTRA:          -6.918
REMARK INTER:                  -6.806
REMARK INTRA:                  -0.112
REMARK UNBOUND:                -0.112
REMARK  Name = No_150-gen_results/8p0m/2024-11-26-14-13-15/
REMARK  2 active torsions:
REMARK  status: ('A' for Active; 'I' for Inactive)
REMARK    1  A    between atoms: C_2  and  C_4
REMARK    2  A    between atoms: C_4  and  C_6
REMARK                            x       y       z     vdW  Elec       q    Type
REMARK                         _______ _______ _______ _____ _____    ______ ____
ROOT
ATOM      1  C   UNL A   1      -9.520  -9.652  18.786  0.00  0.00    +0.417 C 
ATOM      2  F   UNL A   1     -10.648  -8.928  18.981  0.00  0.00    -0.188 F 
ATOM      3  F   UNL A   1     -10.312  -9.946  19.331  0.00  0.00    -0.188 F 
ENDROOT
BRANCH   1   5
ATOM      4 CL   UNL A   1      -7.654  -8.545  19.538  0.00  0.00    -0.041 Cl
ATOM      5  C   UNL A   1      -8.373  -9.488  19.833  0.00  0.00    +0.393 C 
ATOM      6  F   UNL A   1      -8.861  -9.569  20.939  0.00  0.00    -0.180 F 
ATOM      7  F   UNL A   1      -7.623 -10.652  19.652  0.00  0.00    -0.180 F 
ENDBRANCH   1   5
BRANCH   1   8
ATOM      8  C   UNL A   1      -9.389 -10.243  17.706  0.00  0.00    +0.462 C 
ATOM      9  F   UNL A   1      -8.444  -9.951  16.860  0.00  0.00    -0.165 F 
ATOM     10  F   UNL A   1     -10.558 -10.137  16.893  0.00  0.00    -0.165 F 
ATOM     11  F   UNL A   1      -9.213 -11.610  17.858  0.00  0.00    -0.165 F 
ENDBRANCH   1   8
TORSDOF 2
ENDMDL
ENDMDL
