REMARK  Name = No_151-gen_results/8p0m/2024-11-26-14-13-15/
REMARK  1 active torsions:
REMARK  status: ('A' for Active; 'I' for Inactive)
REMARK    1  A    between atoms: C_4  and  C_7
REMARK                            x       y       z     vdW  Elec       q    Type
REMARK                         _______ _______ _______ _____ _____    ______ ____
ROOT
ATOM      1  C   UNL A   1     -28.016  -0.814  28.878  0.00  0.00    +0.007 A 
ATOM      2  C   UNL A   1     -28.469  -0.785  29.829  0.00  0.00    +0.035 A 
ATOM      3  C   UNL A   1     -26.504  -0.778  28.877  0.00  0.00    +0.001 A 
ATOM      4  C   UNL A   1     -25.810  -0.853  30.103  0.00  0.00    +0.000 A 
ATOM      5  C   UNL A   1     -27.991  -0.892  31.226  0.00  0.00    +0.007 A 
ATOM      6  C   UNL A   1     -26.604  -0.868  31.265  0.00  0.00    +0.001 A 
ATOM      7 BR   UNL A   1     -30.435  -0.640  29.646  0.00  0.00    -0.049 Br
ENDROOT
BRANCH   4   8
ATOM      8  C   UNL A   1     -24.389  -0.805  30.164  0.00  0.00    +0.000 A 
ATOM      9  C   UNL A   1     -23.766  -0.950  31.068  0.00  0.00    +0.000 A 
ATOM     10  C   UNL A   1     -23.667  -0.595  28.884  0.00  0.00    +0.000 A 
ATOM     11  C   UNL A   1     -22.265  -0.407  28.933  0.00  0.00    +0.000 A 
ATOM     12  C   UNL A   1     -22.270  -0.843  31.296  0.00  0.00    +0.000 A 
ATOM     13  C   UNL A   1     -21.596  -0.541  30.103  0.00  0.00    +0.000 A 
ENDBRANCH   4   8
TORSDOF 1
