MODEL 1510
MODEL 1
REMARK VINA RESULT:    -5.931      0.000      0.000
REMARK INTER + INTRA:          -6.928
REMARK INTER:                  -6.624
REMARK INTRA:                  -0.304
REMARK UNBOUND:                -0.304
REMARK  Name = No_1510-gen_results/8p0m/2024-11-26-14-13-15/
REMARK  2 active torsions:
REMARK  status: ('A' for Active; 'I' for Inactive)
REMARK    1  A    between atoms: C_3  and  C_4
REMARK    2  A    between atoms: C_8  and  C_9
REMARK                            x       y       z     vdW  Elec       q    Type
REMARK                         _______ _______ _______ _____ _____    ______ ____
ROOT
ATOM      1  C   UNL A   1     -25.582  -2.400  29.916  0.00  0.00    -0.000 A 
ATOM      2  C   UNL A   1     -26.323  -3.143  30.007  0.00  0.00    +0.000 A 
ATOM      3  C   UNL A   1     -24.337  -2.774  29.363  0.00  0.00    -0.000 A 
ATOM      4  C   UNL A   1     -26.309  -4.577  29.666  0.00  0.00    +0.000 A 
ATOM      5  C   UNL A   1     -25.106  -5.019  29.116  0.00  0.00    +0.000 A 
ATOM      6  C   UNL A   1     -24.105  -4.126  28.906  0.00  0.00    -0.000 A 
ENDROOT
BRANCH   3   7
ATOM      7  C   UNL A   1     -23.229  -1.829  29.066  0.00  0.00    -0.000 C 
ATOM      8  C   UNL A   1     -23.135  -0.707  28.933  0.00  0.00    -0.000 C 
BRANCH   8   9
ATOM      9  C   UNL A   1     -22.000   0.116  28.667  0.00  0.00    -0.005 C 
ATOM     10  C   UNL A   1     -22.008   1.233  27.850  0.00  0.00    -0.026 C 
ATOM     11  C   UNL A   1     -23.199   1.554  27.190  0.00  0.00    +0.031 C 
ENDBRANCH   8   9
ENDBRANCH   3   7
TORSDOF 2
ENDMDL
ENDMDL
