MODEL 1511
MODEL 1
REMARK VINA RESULT:    -7.918      0.000      0.000
REMARK INTER + INTRA:         -11.006
REMARK INTER:                 -10.233
REMARK INTRA:                  -0.773
REMARK UNBOUND:                -0.773
REMARK  Name = No_1511-gen_results/8p0m/2024-11-26-14-13-15/
REMARK  5 active torsions:
REMARK  status: ('A' for Active; 'I' for Inactive)
REMARK    1  A    between atoms: C_5  and  C_11
REMARK    2  A    between atoms: C_8  and  C_14
REMARK    3  A    between atoms: N_15  and  C_17
REMARK    4  A    between atoms: C_17  and  C_18
REMARK    5  A    between atoms: C_21  and  C_25
REMARK                            x       y       z     vdW  Elec       q    Type
REMARK                         _______ _______ _______ _____ _____    ______ ____
ROOT
ATOM      1  C   UNL A   1      -9.861   1.794  34.186  0.00  0.00    +0.267 C 
ATOM      2  N   UNL A   1     -10.905   1.244  34.456  0.00  0.00    -0.165 NA
ATOM      3  O   UNL A   1      -9.909   3.021  33.764  0.00  0.00    -0.268 OA
ENDROOT
BRANCH   1  11
ATOM      4  C   UNL A   1      -8.225  -0.192  34.591  0.00  0.00    +0.005 A 
ATOM      5  C   UNL A   1      -7.086  -0.596  34.642  0.00  0.00    +0.000 A 
ATOM      6  C   UNL A   1      -6.037   0.253  34.974  0.00  0.00    +0.000 A 
ATOM      7  C   UNL A   1      -4.595  -0.120  35.059  0.00  0.00    +0.005 A 
ATOM      8  C   UNL A   1      -4.303  -1.511  34.937  0.00  0.00    +0.057 A 
ATOM      9  C   UNL A   1      -5.391  -2.363  34.660  0.00  0.00    +0.005 A 
ATOM     10  C   UNL A   1      -6.664  -1.958  34.542  0.00  0.00    +0.000 A 
ATOM     11  C   UNL A   1      -8.510   1.253  34.305  0.00  0.00    +0.055 A 
ATOM     12  C   UNL A   1      -7.492   2.178  34.738  0.00  0.00    +0.005 A 
ATOM     13  C   UNL A   1      -6.202   1.708  34.971  0.00  0.00    +0.000 A 
BRANCH   8  14
ATOM     14  C   UNL A   1      -2.914  -1.956  35.105  0.00  0.00    +0.284 C 
ATOM     15  N   UNL A   1      -2.580  -2.388  36.224  0.00  0.00    -0.084 NA
ATOM     16  O   UNL A   1      -2.095  -2.010  34.152  0.00  0.00    -0.267 OA
ENDBRANCH   8  14
ENDBRANCH   1  11
BRANCH   2  17
ATOM     17  C   UNL A   1     -12.277   1.734  34.306  0.00  0.00    +0.279 C 
ATOM     18  F   UNL A   1     -12.707   1.537  33.103  0.00  0.00    -0.208 F 
BRANCH  17  19
ATOM     19  C   UNL A   1     -12.881   2.219  35.288  0.00  0.00    +0.031 A 
ATOM     20  C   UNL A   1     -14.093   2.798  35.172  0.00  0.00    +0.000 A 
ATOM     21  C   UNL A   1     -14.916   3.285  36.270  0.00  0.00    +0.004 A 
ATOM     22  C   UNL A   1     -14.453   3.075  37.559  0.00  0.00    +0.071 A 
ATOM     23  C   UNL A   1     -13.236   2.433  37.742  0.00  0.00    +0.004 A 
ATOM     24  C   UNL A   1     -12.493   1.965  36.675  0.00  0.00    +0.000 A 
BRANCH  22  25
ATOM     25  C   UNL A   1     -15.246   3.617  38.639  0.00  0.00    +0.419 C 
ATOM     26  F   UNL A   1     -15.466   4.762  38.642  0.00  0.00    -0.166 F 
ATOM     27  F   UNL A   1     -16.495   3.018  38.572  0.00  0.00    -0.166 F 
ATOM     28  F   UNL A   1     -14.661   3.247  39.799  0.00  0.00    -0.166 F 
ENDBRANCH  22  25
ENDBRANCH  17  19
ENDBRANCH   2  17
TORSDOF 5
ENDMDL
ENDMDL
