REMARK  Name = No_1511-gen_results/8p0m/2024-11-26-14-13-15/
REMARK  5 active torsions:
REMARK  status: ('A' for Active; 'I' for Inactive)
REMARK    1  A    between atoms: C_5  and  C_11
REMARK    2  A    between atoms: C_8  and  C_14
REMARK    3  A    between atoms: N_15  and  C_17
REMARK    4  A    between atoms: C_17  and  C_18
REMARK    5  A    between atoms: C_21  and  C_25
REMARK                            x       y       z     vdW  Elec       q    Type
REMARK                         _______ _______ _______ _____ _____    ______ ____
ROOT
ATOM      1  C   UNL A   1     -29.160  -2.471  30.531  0.00  0.00    +0.267 C 
ATOM      2  N   UNL A   1     -29.146  -3.628  30.886  0.00  0.00    -0.165 NA
ATOM      3  O   UNL A   1     -30.299  -1.849  30.523  0.00  0.00    -0.268 OA
ENDROOT
BRANCH   1  11
ATOM      4  C   UNL A   1     -28.016  -0.814  28.878  0.00  0.00    +0.005 A 
ATOM      5  C   UNL A   1     -27.064  -0.119  28.608  0.00  0.00    +0.000 A 
ATOM      6  C   UNL A   1     -25.792  -0.430  29.076  0.00  0.00    +0.000 A 
ATOM      7  C   UNL A   1     -24.546   0.349  28.823  0.00  0.00    +0.005 A 
ATOM      8  C   UNL A   1     -24.659   1.420  27.888  0.00  0.00    +0.057 A 
ATOM      9  C   UNL A   1     -25.947   1.681  27.379  0.00  0.00    +0.005 A 
ATOM     10  C   UNL A   1     -27.044   0.974  27.687  0.00  0.00    +0.000 A 
ATOM     11  C   UNL A   1     -28.024  -1.647  30.126  0.00  0.00    +0.055 A 
ATOM     12  C   UNL A   1     -26.728  -2.085  30.581  0.00  0.00    +0.005 A 
ATOM     13  C   UNL A   1     -25.591  -1.406  30.149  0.00  0.00    +0.000 A 
BRANCH   8  14
ATOM     14  C   UNL A   1     -23.449   2.167  27.524  0.00  0.00    +0.284 C 
ATOM     15  N   UNL A   1     -23.597   3.322  27.084  0.00  0.00    -0.084 NA
ATOM     16  O   UNL A   1     -22.288   1.729  27.733  0.00  0.00    -0.267 OA
ENDBRANCH   8  14
ENDBRANCH   1  11
BRANCH   2  17
ATOM     17  C   UNL A   1     -30.264  -4.499  31.252  0.00  0.00    +0.279 C 
ATOM     18  F   UNL A   1     -30.501  -4.436  32.521  0.00  0.00    -0.208 F 
BRANCH  17  19
ATOM     19  C   UNL A   1     -30.873  -5.143  30.369  0.00  0.00    +0.031 A 
ATOM     20  C   UNL A   1     -30.641  -4.957  29.054  0.00  0.00    +0.000 A 
ATOM     21  C   UNL A   1     -31.215  -5.735  27.966  0.00  0.00    +0.004 A 
ATOM     22  C   UNL A   1     -32.018  -6.813  28.304  0.00  0.00    +0.071 A 
ATOM     23  C   UNL A   1     -32.248  -7.088  29.646  0.00  0.00    +0.004 A 
ATOM     24  C   UNL A   1     -31.667  -6.339  30.651  0.00  0.00    +0.000 A 
BRANCH  22  25
ATOM     25  C   UNL A   1     -32.633  -7.541  27.218  0.00  0.00    +0.419 C 
ATOM     26  F   UNL A   1     -31.957  -7.889  26.334  0.00  0.00    -0.166 F 
ATOM     27  F   UNL A   1     -33.150  -8.713  27.749  0.00  0.00    -0.166 F 
ATOM     28  F   UNL A   1     -33.661  -6.795  26.758  0.00  0.00    -0.166 F 
ENDBRANCH  22  25
ENDBRANCH  17  19
ENDBRANCH   2  17
TORSDOF 5
