MODEL 1512
MODEL 1
REMARK VINA RESULT:    -5.698      0.000      0.000
REMARK INTER + INTRA:          -6.938
REMARK INTER:                  -6.697
REMARK INTRA:                  -0.240
REMARK UNBOUND:                -0.240
REMARK  Name = No_1512-gen_results/8p0m/2024-11-26-14-13-15/
REMARK  3 active torsions:
REMARK  status: ('A' for Active; 'I' for Inactive)
REMARK    1  A    between atoms: C_2  and  C_3
REMARK    2  A    between atoms: C_3  and  C_5
REMARK    3  A    between atoms: C_8  and  C_13
REMARK                            x       y       z     vdW  Elec       q    Type
REMARK                         _______ _______ _______ _____ _____    ______ ____
ROOT
ATOM      1  C   UNL A   1     -24.109  -0.623  28.530  0.00  0.00    -0.013 A 
ATOM      2  C   UNL A   1     -23.129   0.357  28.669  0.00  0.00    -0.004 A 
ATOM      3  C   UNL A   1     -22.892   1.346  27.578  0.00  0.00    -0.000 A 
ATOM      4  C   UNL A   1     -23.714   1.305  26.473  0.00  0.00    -0.000 A 
ATOM      5  C   UNL A   1     -24.711   0.365  26.353  0.00  0.00    -0.000 A 
ATOM      6  C   UNL A   1     -24.891  -0.537  27.350  0.00  0.00    -0.004 A 
ENDROOT
BRANCH   4   7
ATOM      7  C   UNL A   1     -23.482   2.424  25.478  0.00  0.00    -0.005 C 
ATOM      8  C   UNL A   1     -24.110   3.681  25.858  0.00  0.00    -0.026 C 
ATOM      9  C   UNL A   1     -25.475   3.486  26.239  0.00  0.00    +0.031 C 
ENDBRANCH   4   7
BRANCH   1  10
ATOM     10  C   UNL A   1     -24.102  -1.626  29.577  0.00  0.00    +0.112 C 
BRANCH  10  12
ATOM     11  O   UNL A   1     -23.445  -3.342  28.703  0.00  0.00    -0.275 OA
ATOM     12  C   UNL A   1     -24.107  -2.630  29.311  0.00  0.00    +0.230 C 
ATOM     13  N   UNL A   1     -25.464  -3.317  29.602  0.00  0.00    -0.276 N 
ATOM     14  C   UNL A   1     -26.521  -2.746  30.302  0.00  0.00    +0.115 C 
ATOM     15  C   UNL A   1     -25.597  -4.810  29.342  0.00  0.00    +0.115 C 
ENDBRANCH  10  12
ENDBRANCH   1  10
TORSDOF 3
ENDMDL
ENDMDL
