REMARK  Name = No_1512-gen_results/8p0m/2024-11-26-14-13-15/
REMARK  3 active torsions:
REMARK  status: ('A' for Active; 'I' for Inactive)
REMARK    1  A    between atoms: C_2  and  C_3
REMARK    2  A    between atoms: C_3  and  C_5
REMARK    3  A    between atoms: C_8  and  C_13
REMARK                            x       y       z     vdW  Elec       q    Type
REMARK                         _______ _______ _______ _____ _____    ______ ____
ROOT
ATOM      1  C   UNL A   1     -27.582   1.265  28.148  0.00  0.00    -0.013 A 
ATOM      2  C   UNL A   1     -26.274   1.047  28.573  0.00  0.00    -0.004 A 
ATOM      3  C   UNL A   1     -25.124   1.518  27.748  0.00  0.00    -0.000 A 
ATOM      4  C   UNL A   1     -25.396   2.233  26.602  0.00  0.00    -0.000 A 
ATOM      5  C   UNL A   1     -26.688   2.487  26.202  0.00  0.00    -0.000 A 
ATOM      6  C   UNL A   1     -27.715   2.028  26.960  0.00  0.00    -0.004 A 
ENDROOT
BRANCH   4   7
ATOM      7  C   UNL A   1     -24.170   2.778  25.899  0.00  0.00    -0.005 C 
ATOM      8  C   UNL A   1     -23.103   1.800  25.745  0.00  0.00    -0.026 C 
ATOM      9  C   UNL A   1     -22.841   1.119  26.976  0.00  0.00    +0.031 C 
ENDBRANCH   4   7
BRANCH   1  10
ATOM     10  C   UNL A   1     -28.589   0.592  28.946  0.00  0.00    +0.112 C 
BRANCH  10  12
ATOM     11  O   UNL A   1     -28.123  -1.335  28.487  0.00  0.00    -0.275 OA
ATOM     12  C   UNL A   1     -28.521  -0.436  29.078  0.00  0.00    +0.230 C 
ATOM     13  N   UNL A   1     -29.375  -0.943  30.266  0.00  0.00    -0.276 N 
ATOM     14  C   UNL A   1     -30.030  -0.135  31.188  0.00  0.00    +0.115 C 
ATOM     15  C   UNL A   1     -29.311  -2.418  30.634  0.00  0.00    +0.115 C 
ENDBRANCH  10  12
ENDBRANCH   1  10
TORSDOF 3
