MODEL 1513
MODEL 1
REMARK VINA RESULT:    -5.938      0.000      0.000
REMARK INTER + INTRA:          -8.355
REMARK INTER:                  -7.673
REMARK INTRA:                  -0.682
REMARK UNBOUND:                -0.682
REMARK  Name = No_1513-gen_results/8p0m/2024-11-26-14-13-15/
REMARK  5 active torsions:
REMARK  status: ('A' for Active; 'I' for Inactive)
REMARK    1  A    between atoms: C_2  and  C_10
REMARK    2  A    between atoms: C_3  and  C_4
REMARK    3  A    between atoms: C_6  and  C_13
REMARK    4  A    between atoms: C_13  and  N_14
REMARK    5  A    between atoms: C_15  and  C_16
REMARK                            x       y       z     vdW  Elec       q    Type
REMARK                         _______ _______ _______ _____ _____    ______ ____
ROOT
ATOM      1  C   UNL A   1     -26.092  -3.309  29.661  0.00  0.00    +0.013 A 
ATOM      2  C   UNL A   1     -25.083  -3.514  29.438  0.00  0.00    +0.080 A 
ATOM      3  C   UNL A   1     -26.325  -1.941  30.121  0.00  0.00    +0.080 A 
ATOM      4  C   UNL A   1     -23.844  -2.748  29.478  0.00  0.00    +0.007 A 
ATOM      5  C   UNL A   1     -24.021  -1.453  29.920  0.00  0.00    +0.034 A 
ATOM      6  C   UNL A   1     -25.259  -1.007  30.199  0.00  0.00    +0.007 A 
ENDROOT
BRANCH   3   7
ATOM      7  C   UNL A   1     -27.668  -1.384  30.396  0.00  0.00    +0.388 C 
ATOM      8  O   UNL A   1     -27.988  -1.444  31.550  0.00  0.00    -0.241 OA
ATOM      9  O   UNL A   1     -28.376  -0.975  29.458  0.00  0.00    -0.241 OA
ENDBRANCH   3   7
BRANCH   2  10
ATOM     10  C   UNL A   1     -24.697  -4.979  28.834  0.00  0.00    +0.388 C 
ATOM     11  O   UNL A   1     -24.938  -5.989  29.422  0.00  0.00    -0.241 OA
ATOM     12  O   UNL A   1     -23.643  -5.014  28.116  0.00  0.00    -0.241 OA
ENDBRANCH   2  10
BRANCH   5  13
ATOM     13  C   UNL A   1     -22.855  -0.534  30.065  0.00  0.00    +0.287 C 
ATOM     14  F   UNL A   1     -23.146   0.165  31.365  0.00  0.00    -0.205 F 
BRANCH  13  15
ATOM     15  N   UNL A   1     -22.003  -0.458  29.467  0.00  0.00    -0.234 NA
ATOM     16  C   UNL A   1     -21.691   0.398  28.376  0.00  0.00    +0.096 C 
BRANCH  16  17
ATOM     17  C   UNL A   1     -22.589   1.378  28.142  0.00  0.00    +0.020 C 
ATOM     18  C   UNL A   1     -22.545   1.951  26.855  0.00  0.00    +0.002 C 
ENDBRANCH  16  17
ENDBRANCH  13  15
ENDBRANCH   5  13
TORSDOF 5
ENDMDL
ENDMDL
