REMARK  Name = No_1513-gen_results/8p0m/2024-11-26-14-13-15/
REMARK  5 active torsions:
REMARK  status: ('A' for Active; 'I' for Inactive)
REMARK    1  A    between atoms: C_2  and  C_10
REMARK    2  A    between atoms: C_3  and  C_4
REMARK    3  A    between atoms: C_6  and  C_13
REMARK    4  A    between atoms: C_13  and  N_14
REMARK    5  A    between atoms: C_15  and  C_16
REMARK                            x       y       z     vdW  Elec       q    Type
REMARK                         _______ _______ _______ _____ _____    ______ ____
ROOT
ATOM      1  C   UNL A   1     -28.016  -0.814  28.878  0.00  0.00    +0.013 A 
ATOM      2  C   UNL A   1     -28.469  -0.785  29.829  0.00  0.00    +0.080 A 
ATOM      3  C   UNL A   1     -27.087   0.290  28.638  0.00  0.00    +0.080 A 
ATOM      4  C   UNL A   1     -28.391   0.104  30.980  0.00  0.00    +0.007 A 
ATOM      5  C   UNL A   1     -27.533   1.167  30.787  0.00  0.00    +0.034 A 
ATOM      6  C   UNL A   1     -26.828   1.256  29.645  0.00  0.00    +0.007 A 
ENDROOT
BRANCH   3   7
ATOM      7  C   UNL A   1     -26.252   0.411  27.422  0.00  0.00    +0.388 C 
ATOM      8  O   UNL A   1     -25.936   1.538  27.165  0.00  0.00    -0.241 OA
ATOM      9  O   UNL A   1     -26.000  -0.597  26.738  0.00  0.00    -0.241 OA
ENDBRANCH   3   7
BRANCH   2  10
ATOM     10  C   UNL A   1     -29.464  -2.004  30.258  0.00  0.00    +0.388 C 
ATOM     11  O   UNL A   1     -30.130  -1.959  31.247  0.00  0.00    -0.241 OA
ATOM     12  O   UNL A   1     -29.072  -3.172  29.927  0.00  0.00    -0.241 OA
ENDBRANCH   2  10
BRANCH   5  13
ATOM     13  C   UNL A   1     -27.358   2.204  31.845  0.00  0.00    +0.287 C 
ATOM     14  F   UNL A   1     -28.568   1.995  32.715  0.00  0.00    -0.205 F 
BRANCH  13  15
ATOM     15  N   UNL A   1     -26.554   2.851  32.001  0.00  0.00    -0.234 NA
ATOM     16  C   UNL A   1     -26.330   3.857  32.980  0.00  0.00    +0.096 C 
BRANCH  16  17
ATOM     17  C   UNL A   1     -27.250   3.910  33.966  0.00  0.00    +0.020 C 
ATOM     18  C   UNL A   1     -27.047   4.914  34.935  0.00  0.00    +0.002 C 
ENDBRANCH  16  17
ENDBRANCH  13  15
ENDBRANCH   5  13
TORSDOF 5
