MODEL 1514
MODEL 1
REMARK VINA RESULT:    -5.291      0.000      0.000
REMARK INTER + INTRA:          -5.750
REMARK INTER:                  -5.600
REMARK INTRA:                  -0.150
REMARK UNBOUND:                -0.150
REMARK  Name = No_1514-gen_results/8p0m/2024-11-26-14-13-15/
REMARK  1 active torsions:
REMARK  status: ('A' for Active; 'I' for Inactive)
REMARK    1  A    between atoms: C_4  and  C_7
REMARK                            x       y       z     vdW  Elec       q    Type
REMARK                         _______ _______ _______ _____ _____    ______ ____
ROOT
ATOM      1  C   UNL A   1     -26.635  -3.966  29.853  0.00  0.00    -0.000 A 
ATOM      2  C   UNL A   1     -26.140  -4.873  29.645  0.00  0.00    -0.000 A 
ATOM      3  C   UNL A   1     -25.833  -2.712  29.585  0.00  0.00    -0.000 A 
ATOM      4  C   UNL A   1     -24.572  -2.818  28.961  0.00  0.00    -0.000 A 
ATOM      5  C   UNL A   1     -24.876  -5.253  28.976  0.00  0.00    -0.000 A 
ATOM      6  C   UNL A   1     -24.113  -4.124  28.709  0.00  0.00    -0.000 A 
ENDROOT
BRANCH   4   7
ATOM      7  C   UNL A   1     -23.766  -1.675  28.701  0.00  0.00    -0.005 C 
ATOM      8  C   UNL A   1     -22.709  -1.395  29.342  0.00  0.00    -0.026 C 
ATOM      9  C   UNL A   1     -21.811  -0.285  28.973  0.00  0.00    +0.031 C 
ENDBRANCH   4   7
TORSDOF 1
ENDMDL
ENDMDL
