REMARK  Name = No_1515-gen_results/8p0m/2024-11-26-14-13-15/
REMARK  3 active torsions:
REMARK  status: ('A' for Active; 'I' for Inactive)
REMARK    1  A    between atoms: C_1  and  C_2
REMARK    2  A    between atoms: C_1  and  C_8
REMARK    3  A    between atoms: C_5  and  C_10
REMARK                            x       y       z     vdW  Elec       q    Type
REMARK                         _______ _______ _______ _____ _____    ______ ____
ROOT
ATOM      1  C   UNL A   1     -27.064  -0.119  28.608  0.00  0.00    -0.021 A 
ATOM      2  C   UNL A   1     -26.972   0.714  27.506  0.00  0.00    -0.004 A 
ATOM      3  C   UNL A   1     -25.820   1.491  27.116  0.00  0.00    +0.001 A 
ATOM      4  C   UNL A   1     -24.656   1.424  27.918  0.00  0.00    +0.021 A 
ATOM      5  C   UNL A   1     -24.711   0.542  29.051  0.00  0.00    +0.001 A 
ATOM      6  C   UNL A   1     -25.804  -0.206  29.388  0.00  0.00    -0.004 A 
ENDROOT
BRANCH   4   7
ATOM      7  C   UNL A   1     -23.461   2.160  27.614  0.00  0.00    +0.122 C 
ATOM      8  N   UNL A   1     -22.500   2.160  28.524  0.00  0.00    -0.146 NA
ENDBRANCH   4   7
BRANCH   1   9
ATOM      9  C   UNL A   1     -28.016  -0.814  28.878  0.00  0.00    +0.047 C 
BRANCH   9  10
ATOM     10  C   UNL A   1     -28.743  -0.442  30.140  0.00  0.00    +0.114 C 
ATOM     11  N   UNL A   1     -29.784  -1.243  30.580  0.00  0.00    -0.131 NA
ENDBRANCH   9  10
ENDBRANCH   1   9
TORSDOF 3
