MODEL 1515
MODEL 1
REMARK VINA RESULT:    -4.739      0.000      0.000
REMARK INTER + INTRA:          -5.645
REMARK INTER:                  -5.570
REMARK INTRA:                  -0.075
REMARK UNBOUND:                -0.075
REMARK  Name = No_1515-gen_results/8p0m/2024-11-26-14-13-15/
REMARK  3 active torsions:
REMARK  status: ('A' for Active; 'I' for Inactive)
REMARK    1  A    between atoms: C_1  and  C_2
REMARK    2  A    between atoms: C_1  and  C_8
REMARK    3  A    between atoms: C_5  and  C_10
REMARK                            x       y       z     vdW  Elec       q    Type
REMARK                         _______ _______ _______ _____ _____    ______ ____
ROOT
ATOM      1  C   UNL A   1     -24.139  -2.049  28.919  0.00  0.00    -0.021 A 
ATOM      2  C   UNL A   1     -22.921  -1.502  29.286  0.00  0.00    -0.004 A 
ATOM      3  C   UNL A   1     -22.388  -0.233  28.852  0.00  0.00    +0.001 A 
ATOM      4  C   UNL A   1     -23.155   0.552  27.959  0.00  0.00    +0.021 A 
ATOM      5  C   UNL A   1     -24.438   0.025  27.585  0.00  0.00    +0.001 A 
ATOM      6  C   UNL A   1     -24.936  -1.168  28.029  0.00  0.00    -0.004 A 
ENDROOT
BRANCH   4   7
ATOM      7  C   UNL A   1     -22.710   1.827  27.469  0.00  0.00    +0.122 C 
ATOM      8  N   UNL A   1     -23.560   2.838  27.549  0.00  0.00    -0.146 NA
ENDBRANCH   4   7
BRANCH   1   9
ATOM      9  C   UNL A   1     -24.596  -3.082  29.348  0.00  0.00    +0.047 C 
BRANCH   9  10
ATOM     10  C   UNL A   1     -24.217  -4.318  28.581  0.00  0.00    +0.114 C 
ATOM     11  N   UNL A   1     -24.746  -5.539  28.965  0.00  0.00    -0.131 NA
ENDBRANCH   9  10
ENDBRANCH   1   9
TORSDOF 3
ENDMDL
ENDMDL
