REMARK  Name = No_1516-gen_results/8p0m/2024-11-26-14-13-15/
REMARK  3 active torsions:
REMARK  status: ('A' for Active; 'I' for Inactive)
REMARK    1  A    between atoms: C_7  and  C_8
REMARK    2  A    between atoms: C_8  and  C_9
REMARK    3  A    between atoms: C_11  and  C_16
REMARK                            x       y       z     vdW  Elec       q    Type
REMARK                         _______ _______ _______ _____ _____    ______ ____
ROOT
ATOM      1  C   UNL A   1     -25.798  -0.426  29.845  0.00  0.00    +0.032 C 
ATOM      2  C   UNL A   1     -25.690  -1.858  30.252  0.00  0.00    +0.005 C 
ENDROOT
BRANCH   1   9
ATOM      3  F   UNL A   1     -28.073  -1.254  28.532  0.00  0.00    -0.237 F 
ATOM      4  C   UNL A   1     -28.266  -0.421  29.193  0.00  0.00    +0.168 C 
ATOM      5  C   UNL A   1     -29.445   0.076  29.339  0.00  0.00    +0.036 C 
ATOM      6  C   UNL A   1     -29.707   1.174  30.228  0.00  0.00    +0.011 C 
ATOM      7  C   UNL A   1     -28.597   1.711  30.911  0.00  0.00    +0.065 C 
ATOM      8  C   UNL A   1     -27.302   1.182  30.791  0.00  0.00    +0.153 C 
ATOM      9  C   UNL A   1     -27.122   0.122  29.980  0.00  0.00    +0.094 C 
ATOM     10  O   UNL A   1     -26.343   1.770  31.445  0.00  0.00    -0.296 OA
ENDBRANCH   1   9
BRANCH   1  11
ATOM     11  C   UNL A   1     -24.860   0.187  29.258  0.00  0.00    -0.022 A 
ATOM     12  C   UNL A   1     -24.799   0.921  28.250  0.00  0.00    -0.000 A 
ATOM     13  C   UNL A   1     -23.652   1.643  27.757  0.00  0.00    +0.071 A 
ATOM     14  C   UNL A   1     -22.455   1.437  28.359  0.00  0.00    +0.004 A 
ATOM     15  C   UNL A   1     -23.454   0.063  29.942  0.00  0.00    -0.004 A 
ATOM     16  C   UNL A   1     -22.363   0.699  29.477  0.00  0.00    -0.000 A 
BRANCH  13  17
ATOM     17  C   UNL A   1     -23.906   2.554  26.635  0.00  0.00    +0.419 C 
ATOM     18  F   UNL A   1     -23.145   3.318  26.276  0.00  0.00    -0.166 F 
ATOM     19  F   UNL A   1     -25.085   3.301  26.901  0.00  0.00    -0.166 F 
ATOM     20  F   UNL A   1     -24.305   1.769  25.549  0.00  0.00    -0.166 F 
ENDBRANCH  13  17
ENDBRANCH   1  11
TORSDOF 3
