MODEL 1516
MODEL 1
REMARK VINA RESULT:    -7.753      0.000      0.000
REMARK INTER + INTRA:         -10.239
REMARK INTER:                  -9.112
REMARK INTRA:                  -1.127
REMARK UNBOUND:                -1.127
REMARK  Name = No_1516-gen_results/8p0m/2024-11-26-14-13-15/
REMARK  3 active torsions:
REMARK  status: ('A' for Active; 'I' for Inactive)
REMARK    1  A    between atoms: C_7  and  C_8
REMARK    2  A    between atoms: C_8  and  C_9
REMARK    3  A    between atoms: C_11  and  C_16
REMARK                            x       y       z     vdW  Elec       q    Type
REMARK                         _______ _______ _______ _____ _____    ______ ____
ROOT
ATOM      1  C   UNL A   1     -23.908  -1.027  29.552  0.00  0.00    +0.032 C 
ATOM      2  C   UNL A   1     -22.986  -0.873  30.716  0.00  0.00    +0.005 C 
ENDROOT
BRANCH   1   9
ATOM      3  F   UNL A   1     -23.270  -3.532  28.601  0.00  0.00    -0.237 F 
ATOM      4  C   UNL A   1     -24.257  -3.503  29.039  0.00  0.00    +0.168 C 
ATOM      5  C   UNL A   1     -25.003  -4.551  29.112  0.00  0.00    +0.036 C 
ATOM      6  C   UNL A   1     -26.310  -4.518  29.707  0.00  0.00    +0.011 C 
ATOM      7  C   UNL A   1     -26.758  -3.268  30.179  0.00  0.00    +0.065 C 
ATOM      8  C   UNL A   1     -25.964  -2.110  30.133  0.00  0.00    +0.153 C 
ATOM      9  C   UNL A   1     -24.728  -2.208  29.608  0.00  0.00    +0.094 C 
ATOM     10  O   UNL A   1     -26.484  -1.000  30.571  0.00  0.00    -0.296 OA
ENDBRANCH   1   9
BRANCH   1  11
ATOM     11  C   UNL A   1     -23.835  -0.292  28.524  0.00  0.00    -0.022 A 
ATOM     12  C   UNL A   1     -24.398  -0.299  27.410  0.00  0.00    -0.000 A 
ATOM     13  C   UNL A   1     -24.283   0.685  26.362  0.00  0.00    +0.071 A 
ATOM     14  C   UNL A   1     -23.383   1.687  26.516  0.00  0.00    +0.004 A 
ATOM     15  C   UNL A   1     -22.871   0.938  28.654  0.00  0.00    -0.004 A 
ATOM     16  C   UNL A   1     -22.722   1.849  27.674  0.00  0.00    -0.000 A 
BRANCH  13  17
ATOM     17  C   UNL A   1     -25.180   0.503  25.215  0.00  0.00    +0.419 C 
ATOM     18  F   UNL A   1     -26.029   1.219  24.976  0.00  0.00    -0.166 F 
ATOM     19  F   UNL A   1     -25.788  -0.779  25.300  0.00  0.00    -0.166 F 
ATOM     20  F   UNL A   1     -24.375   0.361  24.081  0.00  0.00    -0.166 F 
ENDBRANCH  13  17
ENDBRANCH   1  11
TORSDOF 3
ENDMDL
ENDMDL
