MODEL 1517
MODEL 1
REMARK VINA RESULT:    -5.166      0.000      0.000
REMARK INTER + INTRA:          -5.644
REMARK INTER:                  -5.468
REMARK INTRA:                  -0.176
REMARK UNBOUND:                -0.176
REMARK  Name = No_1517-gen_results/8p0m/2024-11-26-14-13-15/
REMARK  1 active torsions:
REMARK  status: ('A' for Active; 'I' for Inactive)
REMARK    1  A    between atoms: C_2  and  C_7
REMARK                            x       y       z     vdW  Elec       q    Type
REMARK                         _______ _______ _______ _____ _____    ______ ____
ROOT
ATOM      1  C   UNL A   1     -23.923  -3.745  28.880  0.00  0.00    +0.004 A 
ATOM      2  C   UNL A   1     -24.345  -2.859  29.262  0.00  0.00    +0.071 A 
ATOM      3  C   UNL A   1     -24.773  -4.987  29.030  0.00  0.00    -0.000 A 
ATOM      4  C   UNL A   1     -26.090  -4.868  29.521  0.00  0.00    -0.000 A 
ATOM      5  C   UNL A   1     -25.675  -2.463  29.778  0.00  0.00    +0.004 A 
ATOM      6  C   UNL A   1     -26.487  -3.579  29.924  0.00  0.00    -0.000 A 
ENDROOT
BRANCH   2   7
ATOM      7  C   UNL A   1     -23.470  -1.521  29.104  0.00  0.00    +0.419 C 
ATOM      8  F   UNL A   1     -22.402  -1.784  28.891  0.00  0.00    -0.166 F 
ATOM      9  F   UNL A   1     -23.630  -0.769  30.238  0.00  0.00    -0.166 F 
ATOM     10  F   UNL A   1     -24.002  -0.758  28.093  0.00  0.00    -0.166 F 
ENDBRANCH   2   7
TORSDOF 1
ENDMDL
ENDMDL
