REMARK  Name = No_1518-gen_results/8p0m/2024-11-26-14-13-15/
REMARK  5 active torsions:
REMARK  status: ('A' for Active; 'I' for Inactive)
REMARK    1  A    between atoms: C_3  and  C_7
REMARK    2  A    between atoms: C_7  and  C_16
REMARK    3  A    between atoms: C_8  and  C_9
REMARK    4  A    between atoms: C_16  and  C_17
REMARK    5  A    between atoms: C_17  and  C_19
REMARK                            x       y       z     vdW  Elec       q    Type
REMARK                         _______ _______ _______ _____ _____    ______ ____
ROOT
ATOM      1  C   UNL A   1     -26.399   0.295  27.228  0.00  0.00    -0.026 C 
ATOM      2  C   UNL A   1     -26.902   0.728  26.213  0.00  0.00    -0.026 C 
ATOM      3  C   UNL A   1     -26.146   0.517  24.921  0.00  0.00    +0.031 C 
ENDROOT
BRANCH   1   6
ATOM      4  C   UNL A   1     -28.016  -0.814  28.878  0.00  0.00    -0.000 A 
ATOM      5  C   UNL A   1     -28.469  -0.785  29.829  0.00  0.00    -0.000 A 
ATOM      6  C   UNL A   1     -27.136   0.236  28.535  0.00  0.00    -0.004 A 
ATOM      7  C   UNL A   1     -26.875   1.282  29.398  0.00  0.00    -0.000 A 
ATOM      8  C   UNL A   1     -28.361   0.199  30.924  0.00  0.00    -0.000 A 
ATOM      9  C   UNL A   1     -27.528   1.223  30.636  0.00  0.00    -0.000 A 
ENDBRANCH   1   6
BRANCH   2  10
ATOM     10  C   UNL A   1     -28.229   1.259  26.197  0.00  0.00    -0.004 A 
ATOM     11  C   UNL A   1     -28.863   1.644  27.229  0.00  0.00    -0.000 A 
ATOM     12  C   UNL A   1     -29.915   2.234  27.253  0.00  0.00    -0.000 A 
ATOM     13  C   UNL A   1     -30.584   2.509  25.940  0.00  0.00    -0.000 A 
ATOM     14  C   UNL A   1     -29.926   2.186  24.778  0.00  0.00    -0.000 A 
ATOM     15  C   UNL A   1     -28.707   1.668  24.844  0.00  0.00    -0.000 A 
ENDBRANCH   2  10
BRANCH   1  16
ATOM     16  C   UNL A   1     -25.002   0.037  27.290  0.00  0.00    +0.026 C 
BRANCH  16  17
ATOM     17  C   UNL A   1     -24.178   0.791  28.178  0.00  0.00    +0.004 C 
ATOM     18  C   UNL A   1     -23.591   1.884  27.766  0.00  0.00    +0.000 C 
BRANCH  17  19
ATOM     19  C   UNL A   1     -23.847   0.194  29.457  0.00  0.00    +0.000 C 
ATOM     20  C   UNL A   1     -23.153  -0.804  29.643  0.00  0.00    +0.000 C 
ENDBRANCH  17  19
ENDBRANCH  16  17
ENDBRANCH   1  16
TORSDOF 5
