MODEL 1518
MODEL 1
REMARK VINA RESULT:    -6.609      0.000      0.000
REMARK INTER + INTRA:         -10.651
REMARK INTER:                  -8.541
REMARK INTRA:                  -2.110
REMARK UNBOUND:                -2.110
REMARK  Name = No_1518-gen_results/8p0m/2024-11-26-14-13-15/
REMARK  5 active torsions:
REMARK  status: ('A' for Active; 'I' for Inactive)
REMARK    1  A    between atoms: C_3  and  C_7
REMARK    2  A    between atoms: C_7  and  C_16
REMARK    3  A    between atoms: C_8  and  C_9
REMARK    4  A    between atoms: C_16  and  C_17
REMARK    5  A    between atoms: C_17  and  C_19
REMARK                            x       y       z     vdW  Elec       q    Type
REMARK                         _______ _______ _______ _____ _____    ______ ____
ROOT
ATOM      1  C   UNL A   1     -23.981   0.117  28.899  0.00  0.00    -0.026 C 
ATOM      2  C   UNL A   1     -23.697  -0.875  29.536  0.00  0.00    -0.026 C 
ATOM      3  C   UNL A   1     -22.725  -0.708  30.682  0.00  0.00    +0.031 C 
ENDROOT
BRANCH   1   6
ATOM      4  C   UNL A   1     -24.996  -0.478  26.622  0.00  0.00    -0.000 A 
ATOM      5  C   UNL A   1     -25.836  -0.433  25.988  0.00  0.00    -0.000 A 
ATOM      6  C   UNL A   1     -25.092   0.139  27.889  0.00  0.00    -0.004 A 
ATOM      7  C   UNL A   1     -26.237   0.796  28.296  0.00  0.00    -0.000 A 
ATOM      8  C   UNL A   1     -27.160   0.191  26.177  0.00  0.00    -0.000 A 
ATOM      9  C   UNL A   1     -27.295   0.795  27.378  0.00  0.00    -0.000 A 
ENDBRANCH   1   6
BRANCH   2  10
ATOM     10  C   UNL A   1     -24.376  -2.118  29.338  0.00  0.00    -0.004 A 
ATOM     11  C   UNL A   1     -23.851  -3.149  28.813  0.00  0.00    -0.000 A 
ATOM     12  C   UNL A   1     -24.327  -4.256  28.762  0.00  0.00    -0.000 A 
ATOM     13  C   UNL A   1     -25.702  -4.445  29.329  0.00  0.00    -0.000 A 
ATOM     14  C   UNL A   1     -26.305  -3.393  29.975  0.00  0.00    -0.000 A 
ATOM     15  C   UNL A   1     -25.646  -2.250  30.109  0.00  0.00    -0.000 A 
ENDBRANCH   2  10
BRANCH   1  16
ATOM     16  C   UNL A   1     -23.123   1.250  28.904  0.00  0.00    +0.026 C 
BRANCH  16  17
ATOM     17  C   UNL A   1     -22.321   1.541  27.760  0.00  0.00    +0.004 C 
ATOM     18  C   UNL A   1     -21.090   1.106  27.689  0.00  0.00    +0.000 C 
BRANCH  17  19
ATOM     19  C   UNL A   1     -22.838   2.500  26.804  0.00  0.00    +0.000 C 
ATOM     20  C   UNL A   1     -22.981   2.326  25.595  0.00  0.00    +0.000 C 
ENDBRANCH  17  19
ENDBRANCH  16  17
ENDBRANCH   1  16
TORSDOF 5
ENDMDL
ENDMDL
