MODEL 1519
MODEL 1
REMARK VINA RESULT:    -6.552      0.000      0.000
REMARK INTER + INTRA:          -7.332
REMARK INTER:                  -6.935
REMARK INTRA:                  -0.397
REMARK UNBOUND:                -0.397
REMARK  Name = No_1519-gen_results/8p0m/2024-11-26-14-13-15/
REMARK  1 active torsions:
REMARK  status: ('A' for Active; 'I' for Inactive)
REMARK    1  A    between atoms: C_3  and  C_4
REMARK                            x       y       z     vdW  Elec       q    Type
REMARK                         _______ _______ _______ _____ _____    ______ ____
ROOT
ATOM      1  C   UNL A   1     -25.740  -2.580  29.776  0.00  0.00    +0.000 A 
ATOM      2  C   UNL A   1     -26.301  -3.467  29.870  0.00  0.00    +0.000 A 
ATOM      3  C   UNL A   1     -24.452  -2.672  29.203  0.00  0.00    +0.000 A 
ATOM      4  C   UNL A   1     -25.983  -4.860  29.513  0.00  0.00    +0.000 A 
ATOM      5  C   UNL A   1     -24.722  -5.029  28.942  0.00  0.00    +0.000 A 
ATOM      6  C   UNL A   1     -23.941  -3.938  28.728  0.00  0.00    +0.000 A 
ENDROOT
BRANCH   3   7
ATOM      7  C   UNL A   1     -23.579  -1.508  28.900  0.00  0.00    +0.000 A 
ATOM      8  C   UNL A   1     -22.537  -1.178  29.201  0.00  0.00    +0.000 A 
ATOM      9  C   UNL A   1     -21.770  -0.033  28.829  0.00  0.00    +0.000 A 
ATOM     10  C   UNL A   1     -22.511   0.870  27.957  0.00  0.00    +0.000 A 
ATOM     11  C   UNL A   1     -23.740   0.562  27.656  0.00  0.00    +0.000 A 
ATOM     12  C   UNL A   1     -24.328  -0.544  28.046  0.00  0.00    +0.000 A 
ENDBRANCH   3   7
TORSDOF 1
ENDMDL
ENDMDL
