MODEL 151
MODEL 1
REMARK VINA RESULT:    -6.169      0.000      0.000
REMARK INTER + INTRA:          -6.842
REMARK INTER:                  -6.529
REMARK INTRA:                  -0.312
REMARK UNBOUND:                -0.312
REMARK  Name = No_151-gen_results/8p0m/2024-11-26-14-13-15/
REMARK  1 active torsions:
REMARK  status: ('A' for Active; 'I' for Inactive)
REMARK    1  A    between atoms: C_4  and  C_7
REMARK                            x       y       z     vdW  Elec       q    Type
REMARK                         _______ _______ _______ _____ _____    ______ ____
ROOT
ATOM      1  C   UNL A   1     -24.748   0.590  26.460  0.00  0.00    +0.007 A 
ATOM      2  C   UNL A   1     -23.878   0.999  26.892  0.00  0.00    +0.035 A 
ATOM      3  C   UNL A   1     -25.168  -0.760  26.999  0.00  0.00    +0.001 A 
ATOM      4  C   UNL A   1     -24.484  -1.306  28.106  0.00  0.00    +0.000 A 
ATOM      5  C   UNL A   1     -23.020   0.663  28.050  0.00  0.00    +0.007 A 
ATOM      6  C   UNL A   1     -23.380  -0.570  28.576  0.00  0.00    +0.001 A 
ATOM      7 BR   UNL A   1     -23.360   2.658  25.944  0.00  0.00    -0.049 Br
ENDROOT
BRANCH   4   8
ATOM      8  C   UNL A   1     -24.823  -2.579  28.643  0.00  0.00    +0.000 A 
ATOM      9  C   UNL A   1     -24.239  -3.514  28.533  0.00  0.00    +0.000 A 
ATOM     10  C   UNL A   1     -26.048  -2.652  29.478  0.00  0.00    +0.000 A 
ATOM     11  C   UNL A   1     -26.484  -3.928  29.911  0.00  0.00    +0.000 A 
ATOM     12  C   UNL A   1     -24.518  -4.940  28.970  0.00  0.00    +0.000 A 
ATOM     13  C   UNL A   1     -25.730  -5.027  29.671  0.00  0.00    +0.000 A 
ENDBRANCH   4   8
TORSDOF 1
ENDMDL
ENDMDL
