REMARK  Name = No_152-gen_results/8p0m/2024-11-26-14-13-15/
REMARK  3 active torsions:
REMARK  status: ('A' for Active; 'I' for Inactive)
REMARK    1  A    between atoms: C_7  and  C_13
REMARK    2  A    between atoms: N_14  and  C_15
REMARK    3  A    between atoms: C_15  and  C_16
REMARK                            x       y       z     vdW  Elec       q    Type
REMARK                         _______ _______ _______ _____ _____    ______ ____
ROOT
ATOM      1  C   UNL A   1     -28.016  -0.814  28.878  0.00  0.00    +0.007 A 
ATOM      2  C   UNL A   1     -27.064  -0.119  28.608  0.00  0.00    +0.037 A 
ATOM      3  C   UNL A   1     -25.792  -0.430  29.076  0.00  0.00    +0.003 A 
ATOM      4  C   UNL A   1     -24.546   0.349  28.823  0.00  0.00    +0.001 A 
ATOM      5  C   UNL A   1     -23.241   0.022  29.332  0.00  0.00    -0.000 A 
ATOM      6  C   UNL A   1     -22.136   0.769  29.006  0.00  0.00    +0.003 A 
ATOM      7  C   UNL A   1     -27.905  -1.898  29.873  0.00  0.00    +0.055 A 
ATOM      8  C   UNL A   1     -26.680  -2.314  30.318  0.00  0.00    +0.005 A 
ATOM      9  C   UNL A   1     -25.520  -1.556  29.977  0.00  0.00    +0.000 A 
ATOM     10  C   UNL A   1     -22.116   1.734  28.026  0.00  0.00    +0.037 A 
ATOM     11  C   UNL A   1     -24.522   1.391  27.791  0.00  0.00    +0.035 A 
ATOM     12  C   UNL A   1     -23.325   2.052  27.447  0.00  0.00    +0.138 A 
ATOM     13  O   UNL A   1     -23.420   2.987  26.486  0.00  0.00    -0.457 OA
ATOM     14  C   UNL A   1     -24.748   3.398  26.157  0.00  0.00    +0.300 C 
ATOM     15  C   UNL A   1     -25.686   1.730  27.110  0.00  0.00    +0.163 C 
ATOM     16  N   UNL A   1     -25.702   2.818  26.355  0.00  0.00    -0.165 NA
ATOM     17  C   UNL A   1     -26.962   1.099  27.422  0.00  0.00    +0.193 C 
ATOM     18  O   UNL A   1     -28.099   1.248  26.926  0.00  0.00    -0.289 OA
ENDROOT
BRANCH   7  19
ATOM     19  C   UNL A   1     -29.064  -2.719  30.298  0.00  0.00    +0.265 C 
ATOM     20  N   UNL A   1     -28.971  -4.001  30.494  0.00  0.00    -0.193 NA
ATOM     21  O   UNL A   1     -30.182  -2.180  30.418  0.00  0.00    -0.268 OA
BRANCH  20  22
ATOM     22  C   UNL A   1     -29.997  -4.879  30.202  0.00  0.00    +0.218 C 
BRANCH  22  23
ATOM     23  C   UNL A   1     -30.415  -5.714  31.271  0.00  0.00    +0.417 C 
ATOM     24  F   UNL A   1     -31.470  -5.231  31.897  0.00  0.00    -0.168 F 
ATOM     25  F   UNL A   1     -29.419  -5.744  32.219  0.00  0.00    -0.168 F 
ATOM     26  F   UNL A   1     -30.683  -6.996  30.899  0.00  0.00    -0.168 F 
ENDBRANCH  22  23
ENDBRANCH  20  22
ENDBRANCH   7  19
TORSDOF 3
