REMARK  Name = No_1520-gen_results/8p0m/2024-11-26-14-13-15/
REMARK  8 active torsions:
REMARK  status: ('A' for Active; 'I' for Inactive)
REMARK    1  A    between atoms: C_1  and  C_2
REMARK    2  A    between atoms: C_1  and  C_8
REMARK    3  A    between atoms: C_3  and  O_29
REMARK    4  A    between atoms: C_5  and  C_15
REMARK    5  A    between atoms: C_9  and  C_12
REMARK    6  A    between atoms: C_12  and  C_19
REMARK    7  A    between atoms: C_12  and  C_20
REMARK    8  A    between atoms: C_23  and  C_26
REMARK                            x       y       z     vdW  Elec       q    Type
REMARK                         _______ _______ _______ _____ _____    ______ ____
ROOT
ATOM      1  C   UNL A   1     -29.210  -0.026  29.343  0.00  0.00    -0.021 A 
ATOM      2  C   UNL A   1     -29.483  -0.093  30.563  0.00  0.00    -0.018 A 
ATOM      3  C   UNL A   1     -30.027   0.433  28.304  0.00  0.00    -0.004 A 
ATOM      4  C   UNL A   1     -31.253   1.040  28.668  0.00  0.00    -0.000 A 
ATOM      5  C   UNL A   1     -31.549   1.064  30.047  0.00  0.00    -0.000 A 
ATOM      6  C   UNL A   1     -30.724   0.569  30.992  0.00  0.00    -0.004 A 
ENDROOT
BRANCH   1   7
ATOM      7  C   UNL A   1     -28.016  -0.814  28.878  0.00  0.00    +0.055 C 
BRANCH   7   8
ATOM      8  C   UNL A   1     -27.064  -0.119  28.608  0.00  0.00    +0.016 A 
ATOM      9  C   UNL A   1     -25.792  -0.430  29.076  0.00  0.00    +0.135 A 
ATOM     10  C   UNL A   1     -24.546   0.349  28.823  0.00  0.00    +0.040 A 
ATOM     11  C   UNL A   1     -24.659   1.420  27.888  0.00  0.00    +0.074 A 
ATOM     12  C   UNL A   1     -25.947   1.681  27.379  0.00  0.00    +0.004 A 
ATOM     13  C   UNL A   1     -27.044   0.974  27.687  0.00  0.00    -0.001 A 
BRANCH  11  14
ATOM     14  C   UNL A   1     -23.484   2.181  27.598  0.00  0.00    +0.419 C 
ATOM     15  F   UNL A   1     -23.656   3.339  27.308  0.00  0.00    -0.166 F 
ATOM     16  F   UNL A   1     -22.727   1.566  26.554  0.00  0.00    -0.166 F 
ATOM     17  F   UNL A   1     -22.580   2.227  28.631  0.00  0.00    -0.166 F 
ENDBRANCH  11  14
BRANCH   9  18
ATOM     18  O   UNL A   1     -25.561  -1.444  29.932  0.00  0.00    -0.472 OA
ATOM     19  C   UNL A   1     -24.355  -1.844  30.369  0.00  0.00    +0.253 C 
ENDBRANCH   9  18
ENDBRANCH   7   8
ENDBRANCH   1   7
BRANCH   2  20
ATOM     20  C   UNL A   1     -28.703  -0.646  31.672  0.00  0.00    +0.066 C 
BRANCH  20  21
ATOM     21  C   UNL A   1     -29.026  -1.794  32.187  0.00  0.00    -0.014 A 
ATOM     22  C   UNL A   1     -28.830  -3.052  31.439  0.00  0.00    -0.004 A 
ATOM     23  C   UNL A   1     -29.327  -4.262  31.902  0.00  0.00    -0.000 A 
ATOM     24  C   UNL A   1     -29.875  -4.346  33.189  0.00  0.00    -0.000 A 
ATOM     25  C   UNL A   1     -30.043  -3.205  33.967  0.00  0.00    -0.000 A 
ATOM     26  C   UNL A   1     -29.674  -1.948  33.495  0.00  0.00    -0.004 A 
ENDBRANCH  20  21
BRANCH  20  27
ATOM     27  C   UNL A   1     -27.599   0.109  32.149  0.00  0.00    -0.014 A 
ATOM     28  C   UNL A   1     -26.735  -0.382  33.107  0.00  0.00    -0.004 A 
ATOM     29  C   UNL A   1     -27.372   1.494  31.684  0.00  0.00    +0.003 A 
ATOM     30  C   UNL A   1     -26.145   2.142  32.057  0.00  0.00    +0.080 A 
ATOM     31  C   UNL A   1     -25.531   0.305  33.521  0.00  0.00    -0.000 A 
ATOM     32  C   UNL A   1     -25.317   1.608  33.005  0.00  0.00    +0.007 A 
BRANCH  30  33
ATOM     33  C   UNL A   1     -25.898   3.523  31.554  0.00  0.00    +0.388 C 
ATOM     34  O   UNL A   1     -26.620   4.137  31.096  0.00  0.00    -0.241 OA
ATOM     35  O   UNL A   1     -24.649   3.951  31.866  0.00  0.00    -0.241 OA
ENDBRANCH  30  33
ENDBRANCH  20  27
ENDBRANCH   2  20
TORSDOF 8
