MODEL 1521
MODEL 1
REMARK VINA RESULT:    -6.562      0.000      0.000
REMARK INTER + INTRA:          -8.810
REMARK INTER:                  -8.480
REMARK INTRA:                  -0.330
REMARK UNBOUND:                -0.330
REMARK  Name = No_1521-gen_results/8p0m/2024-11-26-14-13-15/
REMARK  5 active torsions:
REMARK  status: ('A' for Active; 'I' for Inactive)
REMARK    1  A    between atoms: C_4  and  C_11
REMARK    2  A    between atoms: C_7  and  C_15
REMARK    3  A    between atoms: C_11  and  N_12
REMARK    4  A    between atoms: N_16  and  C_18
REMARK    5  A    between atoms: C_18  and  C_19
REMARK                            x       y       z     vdW  Elec       q    Type
REMARK                         _______ _______ _______ _____ _____    ______ ____
ROOT
ATOM      1  C   UNL A   1     -26.399  -0.403  27.026  0.00  0.00    +0.005 A 
ATOM      2  C   UNL A   1     -25.423  -0.479  27.736  0.00  0.00    -0.000 A 
ATOM      3  C   UNL A   1     -24.245   0.232  27.508  0.00  0.00    -0.003 A 
ATOM      4  C   UNL A   1     -23.009   0.191  28.312  0.00  0.00    -0.006 A 
ATOM      5  C   UNL A   1     -21.794   0.909  28.023  0.00  0.00    -0.003 A 
ATOM      6  C   UNL A   1     -21.905   1.860  27.003  0.00  0.00    -0.000 A 
ATOM      7  C   UNL A   1     -26.264   0.377  25.748  0.00  0.00    +0.055 A 
ATOM      8  C   UNL A   1     -25.176   1.178  25.486  0.00  0.00    +0.005 A 
ATOM      9  C   UNL A   1     -24.080   1.120  26.328  0.00  0.00    -0.000 A 
ATOM     10  C   UNL A   1     -22.956   1.918  26.113  0.00  0.00    -0.000 A 
ENDROOT
BRANCH   7  11
ATOM     11  C   UNL A   1     -27.457   0.381  24.806  0.00  0.00    +0.265 C 
ATOM     12  N   UNL A   1     -28.496  -0.273  25.136  0.00  0.00    -0.193 NA
ATOM     13  O   UNL A   1     -27.348   0.986  23.713  0.00  0.00    -0.268 OA
BRANCH  12  14
ATOM     14  C   UNL A   1     -29.675  -0.282  24.256  0.00  0.00    +0.218 C 
BRANCH  14  15
ATOM     15  C   UNL A   1     -29.975  -1.447  23.813  0.00  0.00    +0.417 C 
ATOM     16  F   UNL A   1     -30.237  -2.143  24.491  0.00  0.00    -0.168 F 
ATOM     17  F   UNL A   1     -31.091  -1.280  22.874  0.00  0.00    -0.168 F 
ATOM     18  F   UNL A   1     -29.024  -1.855  22.855  0.00  0.00    -0.168 F 
ENDBRANCH  14  15
ENDBRANCH  12  14
ENDBRANCH   7  11
BRANCH   4  19
ATOM     19  C   UNL A   1     -22.932  -0.686  29.525  0.00  0.00    +0.099 C 
BRANCH  19  20
ATOM     20  N   UNL A   1     -23.186  -0.158  30.674  0.00  0.00    -0.267 NA
ATOM     21  C   UNL A   1     -23.692   1.033  30.801  0.00  0.00    +0.090 C 
ATOM     22  C   UNL A   1     -22.916  -0.838  31.875  0.00  0.00    +0.090 C 
ENDBRANCH  19  20
ENDBRANCH   4  19
TORSDOF 5
ENDMDL
ENDMDL
