REMARK  Name = No_1521-gen_results/8p0m/2024-11-26-14-13-15/
REMARK  5 active torsions:
REMARK  status: ('A' for Active; 'I' for Inactive)
REMARK    1  A    between atoms: C_4  and  C_11
REMARK    2  A    between atoms: C_7  and  C_15
REMARK    3  A    between atoms: C_11  and  N_12
REMARK    4  A    between atoms: N_16  and  C_18
REMARK    5  A    between atoms: C_18  and  C_19
REMARK                            x       y       z     vdW  Elec       q    Type
REMARK                         _______ _______ _______ _____ _____    ______ ____
ROOT
ATOM      1  C   UNL A   1     -28.016  -0.814  28.878  0.00  0.00    +0.005 A 
ATOM      2  C   UNL A   1     -27.064  -0.119  28.608  0.00  0.00    -0.000 A 
ATOM      3  C   UNL A   1     -25.765  -0.390  29.036  0.00  0.00    -0.003 A 
ATOM      4  C   UNL A   1     -24.552   0.406  28.765  0.00  0.00    -0.006 A 
ATOM      5  C   UNL A   1     -23.230   0.118  29.258  0.00  0.00    -0.003 A 
ATOM      6  C   UNL A   1     -23.094  -1.131  29.873  0.00  0.00    -0.000 A 
ATOM      7  C   UNL A   1     -27.798  -1.934  29.856  0.00  0.00    +0.055 A 
ATOM      8  C   UNL A   1     -26.542  -2.327  30.258  0.00  0.00    +0.005 A 
ATOM      9  C   UNL A   1     -25.451  -1.552  29.908  0.00  0.00    -0.000 A 
ATOM     10  C   UNL A   1     -24.156  -1.910  30.281  0.00  0.00    -0.000 A 
ENDROOT
BRANCH   7  11
ATOM     11  C   UNL A   1     -29.018  -2.739  30.275  0.00  0.00    +0.265 C 
ATOM     12  N   UNL A   1     -30.146  -2.155  30.325  0.00  0.00    -0.193 NA
ATOM     13  O   UNL A   1     -28.853  -3.937  30.609  0.00  0.00    -0.268 OA
BRANCH  12  14
ATOM     14  C   UNL A   1     -31.351  -2.904  30.714  0.00  0.00    +0.218 C 
BRANCH  14  15
ATOM     15  C   UNL A   1     -32.389  -2.597  30.028  0.00  0.00    +0.417 C 
ATOM     16  F   UNL A   1     -32.444  -1.657  29.672  0.00  0.00    -0.168 F 
ATOM     17  F   UNL A   1     -32.446  -3.521  28.889  0.00  0.00    -0.168 F 
ATOM     18  F   UNL A   1     -33.549  -3.074  30.674  0.00  0.00    -0.168 F 
ENDBRANCH  14  15
ENDBRANCH  12  14
ENDBRANCH   7  11
BRANCH   4  19
ATOM     19  C   UNL A   1     -24.645   1.658  27.946  0.00  0.00    +0.099 C 
BRANCH  19  20
ATOM     20  N   UNL A   1     -23.723   1.882  27.072  0.00  0.00    -0.267 NA
ATOM     21  C   UNL A   1     -22.463   1.952  27.385  0.00  0.00    +0.090 C 
ATOM     22  C   UNL A   1     -24.027   2.081  25.713  0.00  0.00    +0.090 C 
ENDBRANCH  19  20
ENDBRANCH   4  19
TORSDOF 5
