MODEL 1522
MODEL 1
REMARK VINA RESULT:    -6.109      0.000      0.000
REMARK INTER + INTRA:          -7.496
REMARK INTER:                  -6.823
REMARK INTRA:                  -0.674
REMARK UNBOUND:                -0.674
REMARK  Name = No_1522-gen_results/8p0m/2024-11-26-14-13-15/
REMARK  2 active torsions:
REMARK  status: ('A' for Active; 'I' for Inactive)
REMARK    1  A    between atoms: C_3  and  C_7
REMARK    2  A    between atoms: C_8  and  C_9
REMARK                            x       y       z     vdW  Elec       q    Type
REMARK                         _______ _______ _______ _____ _____    ______ ____
ROOT
ATOM      1  C   UNL A   1     -24.701  -1.167  28.535  0.00  0.00    +0.000 C 
ATOM      2  C   UNL A   1     -24.414  -0.309  29.392  0.00  0.00    +0.000 C 
ENDROOT
BRANCH   1   5
ATOM      3  C   UNL A   1     -26.126  -3.053  29.534  0.00  0.00    +0.000 A 
ATOM      4  C   UNL A   1     -26.223  -4.085  29.721  0.00  0.00    +0.000 A 
ATOM      5  C   UNL A   1     -24.957  -2.609  28.878  0.00  0.00    +0.000 A 
ATOM      6  C   UNL A   1     -23.956  -3.482  28.498  0.00  0.00    +0.000 A 
ATOM      7  C   UNL A   1     -24.168  -4.822  28.777  0.00  0.00    +0.000 A 
ATOM      8  C   UNL A   1     -25.350  -5.201  29.386  0.00  0.00    +0.000 A 
ENDBRANCH   1   5
BRANCH   2   9
ATOM      9  C   UNL A   1     -24.257  -0.674  30.756  0.00  0.00    +0.000 A 
ATOM     10  C   UNL A   1     -25.341  -0.300  31.659  0.00  0.00    +0.000 A 
ATOM     11  C   UNL A   1     -25.234  -0.587  33.015  0.00  0.00    +0.000 A 
ATOM     12  C   UNL A   1     -24.032  -1.071  33.543  0.00  0.00    +0.000 A 
ATOM     13  C   UNL A   1     -22.992  -1.321  32.671  0.00  0.00    +0.000 A 
ATOM     14  C   UNL A   1     -23.066  -1.082  31.384  0.00  0.00    +0.000 A 
ENDBRANCH   2   9
TORSDOF 2
ENDMDL
ENDMDL
