REMARK  Name = No_1522-gen_results/8p0m/2024-11-26-14-13-15/
REMARK  2 active torsions:
REMARK  status: ('A' for Active; 'I' for Inactive)
REMARK    1  A    between atoms: C_3  and  C_7
REMARK    2  A    between atoms: C_8  and  C_9
REMARK                            x       y       z     vdW  Elec       q    Type
REMARK                         _______ _______ _______ _____ _____    ______ ____
ROOT
ATOM      1  C   UNL A   1     -26.411   0.307  27.219  0.00  0.00    +0.000 C 
ATOM      2  C   UNL A   1     -26.875   0.894  26.223  0.00  0.00    +0.000 C 
ENDROOT
BRANCH   1   5
ATOM      3  C   UNL A   1     -28.016  -0.814  28.878  0.00  0.00    +0.000 A 
ATOM      4  C   UNL A   1     -28.469  -0.785  29.829  0.00  0.00    +0.000 A 
ATOM      5  C   UNL A   1     -27.136   0.236  28.535  0.00  0.00    +0.000 A 
ATOM      6  C   UNL A   1     -26.875   1.282  29.398  0.00  0.00    +0.000 A 
ATOM      7  C   UNL A   1     -27.507   1.238  30.630  0.00  0.00    +0.000 A 
ATOM      8  C   UNL A   1     -28.327   0.164  30.924  0.00  0.00    +0.000 A 
ENDBRANCH   1   5
BRANCH   2   9
ATOM      9  C   UNL A   1     -28.113   1.587  26.303  0.00  0.00    +0.000 A 
ATOM     10  C   UNL A   1     -28.664   2.082  25.046  0.00  0.00    +0.000 A 
ATOM     11  C   UNL A   1     -29.851   2.806  25.055  0.00  0.00    +0.000 A 
ATOM     12  C   UNL A   1     -30.424   3.209  26.266  0.00  0.00    +0.000 A 
ATOM     13  C   UNL A   1     -29.820   2.805  27.439  0.00  0.00    +0.000 A 
ATOM     14  C   UNL A   1     -28.712   2.103  27.466  0.00  0.00    +0.000 A 
ENDBRANCH   2   9
TORSDOF 2
