MODEL 1523
MODEL 1
REMARK VINA RESULT:    -4.215      0.000      0.000
REMARK INTER + INTRA:          -4.215
REMARK INTER:                  -4.215
REMARK INTRA:                   0.000
REMARK UNBOUND:                 0.000
REMARK  Name = No_1523-gen_results/8p0m/2024-11-26-14-13-15/
REMARK  0 active torsions:
REMARK  status: ('A' for Active; 'I' for Inactive)
REMARK                            x       y       z     vdW  Elec       q    Type
REMARK                         _______ _______ _______ _____ _____    ______ ____
ROOT
ATOM      1  C   UNL A   1     -26.137  -3.369  29.947  0.00  0.00    +0.000 A 
ATOM      2  C   UNL A   1     -25.296  -2.854  29.574  0.00  0.00    +0.000 A 
ATOM      3  C   UNL A   1     -26.114  -4.805  29.672  0.00  0.00    +0.000 A 
ATOM      4  C   UNL A   1     -25.073  -5.404  29.006  0.00  0.00    +0.000 A 
ATOM      5  C   UNL A   1     -24.075  -3.216  28.855  0.00  0.00    +0.000 A 
ATOM      6  C   UNL A   1     -24.042  -4.604  28.584  0.00  0.00    +0.000 A 
ENDROOT
TORSDOF 0
ENDMDL
ENDMDL
