MODEL 1524
MODEL 1
REMARK VINA RESULT:    -6.331      0.000      0.000
REMARK INTER + INTRA:          -7.599
REMARK INTER:                  -7.071
REMARK INTRA:                  -0.528
REMARK UNBOUND:                -0.528
REMARK  Name = No_1524-gen_results/8p0m/2024-11-26-14-13-15/
REMARK  2 active torsions:
REMARK  status: ('A' for Active; 'I' for Inactive)
REMARK    1  A    between atoms: C_1  and  C_2
REMARK    2  A    between atoms: C_1  and  C_3
REMARK                            x       y       z     vdW  Elec       q    Type
REMARK                         _______ _______ _______ _____ _____    ______ ____
ROOT
ATOM      1  C   UNL A   1     -23.575  -1.489  29.762  0.00  0.00    +0.053 C 
ENDROOT
BRANCH   1   2
ATOM      2  C   UNL A   1     -24.273  -2.250  29.554  0.00  0.00    -0.018 A 
ATOM      3  C   UNL A   1     -23.817  -3.555  28.900  0.00  0.00    -0.004 A 
ATOM      4  C   UNL A   1     -24.544  -4.695  28.920  0.00  0.00    -0.000 A 
ATOM      5  C   UNL A   1     -25.893  -4.642  29.390  0.00  0.00    -0.000 A 
ATOM      6  C   UNL A   1     -26.399  -3.571  29.997  0.00  0.00    -0.000 A 
ATOM      7  C   UNL A   1     -25.662  -2.475  30.170  0.00  0.00    -0.004 A 
ENDBRANCH   1   2
BRANCH   1   8
ATOM      8  C   UNL A   1     -23.452  -0.414  28.705  0.00  0.00    -0.018 A 
ATOM      9  C   UNL A   1     -24.439  -0.079  27.710  0.00  0.00    -0.004 A 
ATOM     10  C   UNL A   1     -24.105   1.006  26.821  0.00  0.00    -0.000 A 
ATOM     11  C   UNL A   1     -22.864   1.639  26.863  0.00  0.00    -0.000 A 
ATOM     12  C   UNL A   1     -21.922   1.325  27.774  0.00  0.00    -0.000 A 
ATOM     13  C   UNL A   1     -22.173   0.318  28.662  0.00  0.00    -0.004 A 
ENDBRANCH   1   8
TORSDOF 2
ENDMDL
ENDMDL
