REMARK  Name = No_1524-gen_results/8p0m/2024-11-26-14-13-15/
REMARK  2 active torsions:
REMARK  status: ('A' for Active; 'I' for Inactive)
REMARK    1  A    between atoms: C_1  and  C_2
REMARK    2  A    between atoms: C_1  and  C_3
REMARK                            x       y       z     vdW  Elec       q    Type
REMARK                         _______ _______ _______ _____ _____    ______ ____
ROOT
ATOM      1  C   UNL A   1     -28.016  -0.814  28.878  0.00  0.00    +0.053 C 
ENDROOT
BRANCH   1   2
ATOM      2  C   UNL A   1     -28.469  -0.785  29.829  0.00  0.00    -0.018 A 
ATOM      3  C   UNL A   1     -29.992  -0.813  29.958  0.00  0.00    -0.004 A 
ATOM      4  C   UNL A   1     -30.640  -1.132  31.102  0.00  0.00    -0.000 A 
ATOM      5  C   UNL A   1     -29.884  -1.250  32.309  0.00  0.00    -0.000 A 
ATOM      6  C   UNL A   1     -28.553  -1.262  32.324  0.00  0.00    -0.000 A 
ATOM      7  C   UNL A   1     -27.859  -1.135  31.195  0.00  0.00    -0.004 A 
ENDBRANCH   1   2
BRANCH   1   8
ATOM      8  C   UNL A   1     -26.504  -0.778  28.877  0.00  0.00    -0.018 A 
ATOM      9  C   UNL A   1     -25.654  -0.660  27.719  0.00  0.00    -0.004 A 
ATOM     10  C   UNL A   1     -24.235  -0.622  27.972  0.00  0.00    -0.000 A 
ATOM     11  C   UNL A   1     -23.709  -0.779  29.253  0.00  0.00    -0.000 A 
ATOM     12  C   UNL A   1     -24.489  -0.910  30.345  0.00  0.00    -0.000 A 
ATOM     13  C   UNL A   1     -25.845  -0.937  30.186  0.00  0.00    -0.004 A 
ENDBRANCH   1   8
TORSDOF 2
