REMARK  Name = No_1525-gen_results/8p0m/2024-11-26-14-13-15/
REMARK  1 active torsions:
REMARK  status: ('A' for Active; 'I' for Inactive)
REMARK    1  A    between atoms: C_3  and  C_4
REMARK                            x       y       z     vdW  Elec       q    Type
REMARK                         _______ _______ _______ _____ _____    ______ ____
ROOT
ATOM      1 CL   UNL A   1     -28.149  -0.820  28.908  0.00  0.00    -0.081 Cl
ATOM      2  C   UNL A   1     -26.912  -0.080  28.945  0.00  0.00    +0.068 C 
ATOM      3  C   UNL A   1     -25.966  -0.212  29.623  0.00  0.00    +0.012 C 
ENDROOT
BRANCH   3   4
ATOM      4  C   UNL A   1     -25.905  -1.367  30.620  0.00  0.00    +0.001 C 
ATOM      5  C   UNL A   1     -27.101  -2.160  30.565  0.00  0.00    +0.000 C 
ENDBRANCH   3   4
TORSDOF 1
