MODEL 1525
MODEL 1
REMARK VINA RESULT:    -3.072      0.000      0.000
REMARK INTER + INTRA:          -3.322
REMARK INTER:                  -3.251
REMARK INTRA:                  -0.071
REMARK UNBOUND:                -0.071
REMARK  Name = No_1525-gen_results/8p0m/2024-11-26-14-13-15/
REMARK  1 active torsions:
REMARK  status: ('A' for Active; 'I' for Inactive)
REMARK    1  A    between atoms: C_3  and  C_4
REMARK                            x       y       z     vdW  Elec       q    Type
REMARK                         _______ _______ _______ _____ _____    ______ ____
ROOT
ATOM      1 CL   UNL A   1     -26.228  -4.855  29.666  0.00  0.00    -0.081 Cl
ATOM      2  C   UNL A   1     -24.916  -5.146  29.142  0.00  0.00    +0.068 C 
ATOM      3  C   UNL A   1     -24.131  -4.447  28.625  0.00  0.00    +0.012 C 
ENDROOT
BRANCH   3   4
ATOM      4  C   UNL A   1     -24.418  -2.953  28.493  0.00  0.00    +0.001 C 
ATOM      5  C   UNL A   1     -23.693  -2.200  29.477  0.00  0.00    +0.000 C 
ENDBRANCH   3   4
TORSDOF 1
ENDMDL
ENDMDL
