REMARK  Name = No_1526-gen_results/8p0m/2024-11-26-14-13-15/
REMARK  3 active torsions:
REMARK  status: ('A' for Active; 'I' for Inactive)
REMARK    1  A    between atoms: C_4  and  C_6
REMARK    2  A    between atoms: C_6  and  C_8
REMARK    3  A    between atoms: C_6  and  C_17
REMARK                            x       y       z     vdW  Elec       q    Type
REMARK                         _______ _______ _______ _____ _____    ______ ____
ROOT
ATOM      1  C   UNL A   1     -24.399  -0.861  29.970  0.00  0.00    +0.053 C 
ATOM      2  C   UNL A   1     -23.953  -2.346  29.854  0.00  0.00    +0.013 C 
ENDROOT
BRANCH   1   6
ATOM      3  C   UNL A   1     -28.016  -0.814  28.878  0.00  0.00    +0.029 A 
ATOM      4  C   UNL A   1     -28.469  -0.785  29.829  0.00  0.00    +0.140 A 
ATOM      5  C   UNL A   1     -26.546  -0.876  28.850  0.00  0.00    -0.001 A 
ATOM      6  C   UNL A   1     -25.897  -0.827  29.889  0.00  0.00    -0.015 A 
ATOM      7  C   UNL A   1     -27.913  -0.839  31.194  0.00  0.00    +0.029 A 
ATOM      8  C   UNL A   1     -26.523  -0.857  31.173  0.00  0.00    -0.001 A 
ATOM      9  F   UNL A   1     -29.936  -0.775  29.904  0.00  0.00    -0.204 F 
ENDBRANCH   1   6
BRANCH   1  10
ATOM     10  C   UNL A   1     -23.714  -0.079  29.046  0.00  0.00    -0.015 A 
ATOM     11  C   UNL A   1     -22.306  -0.069  29.066  0.00  0.00    -0.004 A 
ATOM     12  C   UNL A   1     -21.628   0.739  28.135  0.00  0.00    +0.001 A 
ATOM     13  C   UNL A   1     -22.304   1.669  27.326  0.00  0.00    +0.011 A 
ATOM     14  C   UNL A   1     -23.680   1.772  27.450  0.00  0.00    +0.057 A 
ATOM     15  C   UNL A   1     -24.390   0.935  28.326  0.00  0.00    +0.008 A 
ATOM     16 CL   UNL A   1     -24.469   2.924  26.474  0.00  0.00    -0.082 Cl
ENDBRANCH   1  10
BRANCH   1  17
ATOM     17  C   UNL A   1     -23.946  -0.422  31.482  0.00  0.00    -0.037 C 
ATOM     18  C   UNL A   1     -23.366  -1.268  32.350  0.00  0.00    -0.009 C 
ATOM     19  C   UNL A   1     -24.227   0.965  31.817  0.00  0.00    +0.027 C 
ENDBRANCH   1  17
TORSDOF 3
