MODEL 1527
MODEL 1
REMARK VINA RESULT:    -4.278      0.000      0.000
REMARK INTER + INTRA:          -4.278
REMARK INTER:                  -4.278
REMARK INTRA:                   0.000
REMARK UNBOUND:                 0.000
REMARK  Name = No_1527-gen_results/8p0m/2024-11-26-14-13-15/
REMARK  0 active torsions:
REMARK  status: ('A' for Active; 'I' for Inactive)
REMARK                            x       y       z     vdW  Elec       q    Type
REMARK                         _______ _______ _______ _____ _____    ______ ____
ROOT
ATOM      1  C   UNL A   1     -26.063  -4.841  29.656  0.00  0.00    +0.000 A 
ATOM      2  C   UNL A   1     -26.186  -3.640  29.713  0.00  0.00    +0.000 A 
ATOM      3  C   UNL A   1     -25.210  -2.751  29.309  0.00  0.00    +0.000 A 
ATOM      4  C   UNL A   1     -24.010  -3.283  28.759  0.00  0.00    +0.000 A 
ATOM      5  C   UNL A   1     -23.989  -4.621  28.559  0.00  0.00    +0.000 A 
ATOM      6  C   UNL A   1     -24.989  -5.392  28.941  0.00  0.00    +0.000 A 
ENDROOT
TORSDOF 0
ENDMDL
ENDMDL
