REMARK  Name = No_1528-gen_results/8p0m/2024-11-26-14-13-15/
REMARK  5 active torsions:
REMARK  status: ('A' for Active; 'I' for Inactive)
REMARK    1  A    between atoms: C_2  and  C_27
REMARK    2  A    between atoms: C_3  and  C_7
REMARK    3  A    between atoms: C_8  and  C_9
REMARK    4  A    between atoms: C_9  and  C_10
REMARK    5  A    between atoms: C_16  and  C_17
REMARK                            x       y       z     vdW  Elec       q    Type
REMARK                         _______ _______ _______ _____ _____    ______ ____
ROOT
ATOM      1  C   UNL A   1     -27.460   0.380  26.709  0.00  0.00    -0.004 A 
ATOM      2  C   UNL A   1     -26.009   0.332  26.724  0.00  0.00    -0.018 A 
ATOM      3  C   UNL A   1     -28.204   0.349  25.556  0.00  0.00    -0.000 A 
ATOM      4  C   UNL A   1     -27.418   0.833  24.408  0.00  0.00    -0.000 A 
ATOM      5  C   UNL A   1     -25.370   0.558  25.483  0.00  0.00    -0.004 A 
ATOM      6  C   UNL A   1     -26.080   0.675  24.357  0.00  0.00    -0.000 A 
ENDROOT
BRANCH   3   7
ATOM      7  C   UNL A   1     -29.409  -0.017  25.482  0.00  0.00    +0.001 A 
ATOM      8  C   UNL A   1     -30.050  -0.000  24.162  0.00  0.00    +0.000 A 
ATOM      9  C   UNL A   1     -31.386  -0.429  24.047  0.00  0.00    +0.001 A 
ATOM     10  C   UNL A   1     -31.987  -1.100  25.099  0.00  0.00    +0.011 A 
ATOM     11  C   UNL A   1     -31.430  -1.089  26.386  0.00  0.00    +0.058 A 
ATOM     12  C   UNL A   1     -30.189  -0.599  26.595  0.00  0.00    +0.011 A 
ATOM     13 CL   UNL A   1     -32.367  -1.733  27.697  0.00  0.00    -0.082 Cl
ENDBRANCH   3   7
BRANCH   1  16
ATOM     14  C   UNL A   1     -28.016  -0.814  28.878  0.00  0.00    +0.007 A 
ATOM     15  C   UNL A   1     -28.469  -0.785  29.829  0.00  0.00    +0.080 A 
ATOM     16  C   UNL A   1     -28.196   0.348  28.055  0.00  0.00    -0.000 A 
ATOM     17  C   UNL A   1     -29.019   1.350  28.378  0.00  0.00    -0.000 A 
ATOM     18  C   UNL A   1     -29.411   0.180  30.378  0.00  0.00    +0.007 A 
ATOM     19  C   UNL A   1     -29.606   1.250  29.619  0.00  0.00    +0.000 A 
BRANCH  15  20
ATOM     20  C   UNL A   1     -28.281  -1.994  30.878  0.00  0.00    +0.388 C 
ATOM     21  O   UNL A   1     -28.936  -2.399  31.613  0.00  0.00    -0.241 OA
ATOM     22  O   UNL A   1     -26.949  -2.372  30.875  0.00  0.00    -0.241 OA
ENDBRANCH  15  20
ENDBRANCH   1  16
BRANCH   2  23
ATOM     23  C   UNL A   1     -25.237   0.212  27.905  0.00  0.00    +0.053 C 
BRANCH  23  24
ATOM     24  C   UNL A   1     -23.870   0.304  27.853  0.00  0.00    -0.018 A 
ATOM     25  C   UNL A   1     -23.081  -0.010  29.009  0.00  0.00    -0.004 A 
ATOM     26  C   UNL A   1     -21.695   0.189  28.940  0.00  0.00    -0.000 A 
ATOM     27  C   UNL A   1     -21.128   1.032  28.004  0.00  0.00    -0.000 A 
ATOM     28  C   UNL A   1     -21.982   1.695  27.067  0.00  0.00    -0.000 A 
ATOM     29  C   UNL A   1     -23.343   1.390  27.118  0.00  0.00    -0.004 A 
ENDBRANCH  23  24
ENDBRANCH   2  23
TORSDOF 5
