REMARK  Name = No_153-gen_results/8p0m/2024-11-26-14-13-15/
REMARK  5 active torsions:
REMARK  status: ('A' for Active; 'I' for Inactive)
REMARK    1  A    between atoms: C_2  and  C_3
REMARK    2  A    between atoms: C_2  and  N_8
REMARK    3  A    between atoms: C_3  and  O_4
REMARK    4  A    between atoms: O_4  and  C_5
REMARK    5  A    between atoms: N_8  and  C_12
REMARK                            x       y       z     vdW  Elec       q    Type
REMARK                         _______ _______ _______ _____ _____    ______ ____
ROOT
ATOM      1  O   UNL A   1     -26.001   0.701  29.980  0.00  0.00    -0.471 OA
ENDROOT
BRANCH   1   2
ATOM      2  C   UNL A   1     -25.085   0.877  29.078  0.00  0.00    +0.139 A 
ATOM      3  C   UNL A   1     -23.774   1.121  29.584  0.00  0.00    +0.037 A 
ATOM      4  C   UNL A   1     -22.673   1.266  28.647  0.00  0.00    +0.003 A 
ATOM      5  C   UNL A   1     -23.048   1.611  27.306  0.00  0.00    +0.000 A 
ATOM      6  C   UNL A   1     -24.317   1.476  26.859  0.00  0.00    +0.003 A 
ATOM      7  C   UNL A   1     -25.329   1.130  27.757  0.00  0.00    +0.037 A 
ENDBRANCH   1   2
BRANCH   1   8
ATOM      8  C   UNL A   1     -27.025   0.188  29.736  0.00  0.00    +0.261 C 
BRANCH   8  10
ATOM      9  O   UNL A   1     -28.123  -1.335  28.487  0.00  0.00    -0.195 OA
ATOM     10  C   UNL A   1     -27.064  -0.824  28.869  0.00  0.00    +0.288 C 
BRANCH  10  11
ATOM     11  N   UNL A   1     -25.881  -1.501  28.664  0.00  0.00    -0.204 NA
BRANCH  11  12
ATOM     12  C   UNL A   1     -25.190  -2.447  29.454  0.00  0.00    +0.083 C 
ATOM     13  C   UNL A   1     -24.073  -3.111  29.008  0.00  0.00    +0.019 C 
ENDBRANCH  11  12
ENDBRANCH  10  11
ENDBRANCH   8  10
ENDBRANCH   1   8
TORSDOF 5
