MODEL 1530
MODEL 1
REMARK VINA RESULT:    -5.839      0.000      0.000
REMARK INTER + INTRA:          -5.839
REMARK INTER:                  -5.839
REMARK INTRA:                   0.000
REMARK UNBOUND:                 0.000
REMARK  Name = No_1530-gen_results/8p0m/2024-11-26-14-13-15/
REMARK  0 active torsions:
REMARK  status: ('A' for Active; 'I' for Inactive)
REMARK                            x       y       z     vdW  Elec       q    Type
REMARK                         _______ _______ _______ _____ _____    ______ ____
ROOT
ATOM      1  C   UNL A   1     -26.367  -3.596  29.884  0.00  0.00    -0.004 A 
ATOM      2  C   UNL A   1     -26.206  -4.605  29.626  0.00  0.00    -0.000 A 
ATOM      3  C   UNL A   1     -25.302  -2.689  29.693  0.00  0.00    -0.018 A 
ATOM      4  C   UNL A   1     -24.317  -2.971  29.170  0.00  0.00    -0.004 A 
ATOM      5  C   UNL A   1     -25.046  -5.214  28.976  0.00  0.00    -0.000 A 
ATOM      6  C   UNL A   1     -23.131  -2.028  28.883  0.00  0.00    -0.000 C 
ATOM      7  C   UNL A   1     -24.037  -4.304  28.750  0.00  0.00    -0.000 A 
ATOM      8  C   UNL A   1     -23.163  -0.801  28.945  0.00  0.00    -0.000 C 
ATOM      9  C   UNL A   1     -24.308  -0.082  28.785  0.00  0.00    -0.004 C 
ATOM     10  C   UNL A   1     -25.301  -0.541  28.055  0.00  0.00    -0.021 C 
ATOM     11  C   UNL A   1     -25.995  -1.650  28.865  0.00  0.00    +0.052 C 
ENDROOT
TORSDOF 0
ENDMDL
ENDMDL
