REMARK  Name = No_1530-gen_results/8p0m/2024-11-26-14-13-15/
REMARK  0 active torsions:
REMARK  status: ('A' for Active; 'I' for Inactive)
REMARK                            x       y       z     vdW  Elec       q    Type
REMARK                         _______ _______ _______ _____ _____    ______ ____
ROOT
ATOM      1  C   UNL A   1     -28.016  -0.814  28.878  0.00  0.00    -0.004 A 
ATOM      2  C   UNL A   1     -28.469  -0.785  29.829  0.00  0.00    -0.000 A 
ATOM      3  C   UNL A   1     -27.136   0.236  28.535  0.00  0.00    -0.018 A 
ATOM      4  C   UNL A   1     -26.805   1.051  29.276  0.00  0.00    -0.004 A 
ATOM      5  C   UNL A   1     -28.237   0.150  30.930  0.00  0.00    -0.000 A 
ATOM      6  C   UNL A   1     -25.814   2.198  28.992  0.00  0.00    -0.000 C 
ATOM      7  C   UNL A   1     -27.337   1.137  30.596  0.00  0.00    -0.000 A 
ATOM      8  C   UNL A   1     -25.055   2.263  28.028  0.00  0.00    -0.000 C 
ATOM      9  C   UNL A   1     -24.613   1.163  27.358  0.00  0.00    -0.004 C 
ATOM     10  C   UNL A   1     -24.507  -0.001  27.962  0.00  0.00    -0.021 C 
ATOM     11  C   UNL A   1     -25.929  -0.560  28.140  0.00  0.00    +0.052 C 
ENDROOT
TORSDOF 0
