MODEL 1531
MODEL 1
REMARK VINA RESULT:    -4.633      0.000      0.000
REMARK INTER + INTRA:          -5.134
REMARK INTER:                  -4.904
REMARK INTRA:                  -0.230
REMARK UNBOUND:                -0.230
REMARK  Name = No_1531-gen_results/8p0m/2024-11-26-14-13-15/
REMARK  1 active torsions:
REMARK  status: ('A' for Active; 'I' for Inactive)
REMARK    1  A    between atoms: C_3  and  C_8
REMARK                            x       y       z     vdW  Elec       q    Type
REMARK                         _______ _______ _______ _____ _____    ______ ____
ROOT
ATOM      1  C   UNL A   1     -21.940  -0.081  28.976  0.00  0.00    +0.042 A 
ATOM      2  C   UNL A   1     -22.600  -0.903  29.569  0.00  0.00    +0.003 A 
ATOM      3  C   UNL A   1     -23.916  -1.165  29.204  0.00  0.00    -0.000 A 
ATOM      4  C   UNL A   1     -24.550  -0.433  28.138  0.00  0.00    +0.003 A 
ATOM      5  C   UNL A   1     -23.722   0.515  27.523  0.00  0.00    +0.042 A 
ATOM      6  C   UNL A   1     -22.489   0.737  27.917  0.00  0.00    +0.196 A 
ATOM      7  O   UNL A   1     -21.764   1.704  27.290  0.00  0.00    -0.287 OA
ENDROOT
BRANCH   3   8
ATOM      8  C   UNL A   1     -24.835  -2.171  29.855  0.00  0.00    -0.005 C 
ATOM      9  C   UNL A   1     -24.856  -3.424  29.438  0.00  0.00    -0.026 C 
ATOM     10  C   UNL A   1     -24.069  -4.026  28.491  0.00  0.00    +0.031 C 
ENDBRANCH   3   8
TORSDOF 1
ENDMDL
ENDMDL
