MODEL 1532
MODEL 1
REMARK VINA RESULT:    -5.969      0.000      0.000
REMARK INTER + INTRA:          -6.388
REMARK INTER:                  -6.318
REMARK INTRA:                  -0.070
REMARK UNBOUND:                -0.070
REMARK  Name = No_1532-gen_results/8p0m/2024-11-26-14-13-15/
REMARK  1 active torsions:
REMARK  status: ('A' for Active; 'I' for Inactive)
REMARK    1  A    between atoms: C_1  and  C_8
REMARK                            x       y       z     vdW  Elec       q    Type
REMARK                         _______ _______ _______ _____ _____    ______ ____
ROOT
ATOM      1  C   UNL A   1     -28.191 -11.470  32.224  0.00  0.00    +0.080 A 
ATOM      2  C   UNL A   1     -28.999 -10.705  32.697  0.00  0.00    +0.007 A 
ATOM      3  C   UNL A   1     -29.941 -10.027  31.947  0.00  0.00    +0.000 A 
ATOM      4  C   UNL A   1     -29.983 -10.277  30.546  0.00  0.00    +0.003 A 
ATOM      5  C   UNL A   1     -30.808  -9.613  29.723  0.00  0.00    +0.021 A 
ATOM      6  C   UNL A   1     -28.369 -11.963  30.901  0.00  0.00    +0.008 A 
ATOM      7  C   UNL A   1     -29.194 -11.294  30.114  0.00  0.00    +0.019 A 
ATOM      8  C   UNL A   1     -29.136 -11.813  28.743  0.00  0.00    +0.099 A 
ATOM      9  N   UNL A   1     -29.929 -11.058  27.821  0.00  0.00    -0.242 NA
ATOM     10  C   UNL A   1     -30.878 -10.040  28.279  0.00  0.00    +0.099 A 
ENDROOT
BRANCH   1  11
ATOM     11  C   UNL A   1     -27.191 -12.221  33.140  0.00  0.00    +0.388 C 
ATOM     12  O   UNL A   1     -26.377 -12.961  32.613  0.00  0.00    -0.241 OA
ATOM     13  O   UNL A   1     -27.294 -12.185  34.385  0.00  0.00    -0.241 OA
ENDBRANCH   1  11
TORSDOF 1
ENDMDL
ENDMDL
