REMARK  Name = No_1532-gen_results/8p0m/2024-11-26-14-13-15/
REMARK  1 active torsions:
REMARK  status: ('A' for Active; 'I' for Inactive)
REMARK    1  A    between atoms: C_1  and  C_8
REMARK                            x       y       z     vdW  Elec       q    Type
REMARK                         _______ _______ _______ _____ _____    ______ ____
ROOT
ATOM      1  C   UNL A   1     -28.016  -0.814  28.878  0.00  0.00    +0.080 A 
ATOM      2  C   UNL A   1     -27.064  -0.119  28.608  0.00  0.00    +0.007 A 
ATOM      3  C   UNL A   1     -27.001   0.691  27.491  0.00  0.00    +0.000 A 
ATOM      4  C   UNL A   1     -28.137   0.736  26.635  0.00  0.00    +0.003 A 
ATOM      5  C   UNL A   1     -28.144   1.432  25.488  0.00  0.00    +0.021 A 
ATOM      6  C   UNL A   1     -29.262  -0.596  28.226  0.00  0.00    +0.008 A 
ATOM      7  C   UNL A   1     -29.241   0.099  27.101  0.00  0.00    +0.019 A 
ATOM      8  C   UNL A   1     -30.561   0.086  26.461  0.00  0.00    +0.099 A 
ATOM      9  N   UNL A   1     -30.573   0.734  25.184  0.00  0.00    -0.242 NA
ATOM     10  C   UNL A   1     -29.435   1.530  24.716  0.00  0.00    +0.099 A 
ENDROOT
BRANCH   1  11
ATOM     11  C   UNL A   1     -28.024  -1.667  30.172  0.00  0.00    +0.388 C 
ATOM     12  O   UNL A   1     -27.088  -2.426  30.363  0.00  0.00    -0.241 OA
ATOM     13  O   UNL A   1     -29.015  -1.688  30.933  0.00  0.00    -0.241 OA
ENDBRANCH   1  11
TORSDOF 1
