MODEL 1534
MODEL 1
REMARK VINA RESULT:    -6.958      0.000      0.000
REMARK INTER + INTRA:         -10.950
REMARK INTER:                  -9.398
REMARK INTRA:                  -1.552
REMARK UNBOUND:                -1.552
REMARK  Name = No_1534-gen_results/8p0m/2024-11-26-14-13-15/
REMARK  6 active torsions:
REMARK  status: ('A' for Active; 'I' for Inactive)
REMARK    1  A    between atoms: C_2  and  C_7
REMARK    2  A    between atoms: C_6  and  C_13
REMARK    3  A    between atoms: C_12  and  C_16
REMARK    4  A    between atoms: C_16  and  C_17
REMARK    5  A    between atoms: C_18  and  C_19
REMARK    6  A    between atoms: C_20  and  C_21
REMARK                            x       y       z     vdW  Elec       q    Type
REMARK                         _______ _______ _______ _____ _____    ______ ____
ROOT
ATOM      1  C   UNL A   1     -29.328 -11.247  29.193  0.00  0.00    -0.000 A 
ATOM      2  C   UNL A   1     -28.999 -12.165  28.458  0.00  0.00    -0.000 A 
ATOM      3  C   UNL A   1     -29.413 -12.329  27.059  0.00  0.00    -0.000 A 
ATOM      4  C   UNL A   1     -30.235 -11.317  26.520  0.00  0.00    -0.004 A 
ATOM      5  C   UNL A   1     -30.343 -10.436  28.465  0.00  0.00    -0.004 A 
ATOM      6  C   UNL A   1     -30.693 -10.431  27.279  0.00  0.00    -0.018 A 
ENDROOT
BRANCH   1   8
ATOM      7  C   UNL A   1     -28.313 -11.704  31.317  0.00  0.00    +0.007 A 
ATOM      8  C   UNL A   1     -29.070 -11.044  30.644  0.00  0.00    +0.000 A 
ATOM      9  C   UNL A   1     -29.778  -9.981  31.194  0.00  0.00    +0.000 A 
ATOM     10  C   UNL A   1     -29.667  -9.662  32.594  0.00  0.00    +0.000 A 
ATOM     11  C   UNL A   1     -28.789 -10.491  33.303  0.00  0.00    +0.007 A 
ATOM     12  C   UNL A   1     -28.155 -11.495  32.740  0.00  0.00    +0.080 A 
BRANCH  12  13
ATOM     13  C   UNL A   1     -27.335 -12.331  33.643  0.00  0.00    +0.388 C 
ATOM     14  O   UNL A   1     -26.477 -12.810  33.324  0.00  0.00    -0.241 OA
ATOM     15  O   UNL A   1     -27.871 -12.520  34.839  0.00  0.00    -0.241 OA
ENDBRANCH  12  13
ENDBRANCH   1   8
BRANCH   6  16
ATOM     16  C   UNL A   1     -31.638  -9.446  26.742  0.00  0.00    +0.052 C 
BRANCH  16  17
ATOM     17  C   UNL A   1     -31.314  -8.099  27.065  0.00  0.00    -0.021 C 
ATOM     18  C   UNL A   1     -31.914  -7.202  27.853  0.00  0.00    -0.004 C 
BRANCH  18  19
ATOM     19  C   UNL A   1     -31.533  -5.905  28.076  0.00  0.00    -0.000 C 
ATOM     20  C   UNL A   1     -30.928  -5.459  29.245  0.00  0.00    -0.000 C 
BRANCH  20  21
ATOM     21  C   UNL A   1     -30.838  -6.343  30.363  0.00  0.00    -0.000 C 
ATOM     22  C   UNL A   1     -29.851  -6.132  31.275  0.00  0.00    -0.000 C 
ENDBRANCH  20  21
ENDBRANCH  18  19
ENDBRANCH  16  17
ENDBRANCH   6  16
TORSDOF 6
ENDMDL
ENDMDL
