REMARK  Name = No_1534-gen_results/8p0m/2024-11-26-14-13-15/
REMARK  6 active torsions:
REMARK  status: ('A' for Active; 'I' for Inactive)
REMARK    1  A    between atoms: C_2  and  C_7
REMARK    2  A    between atoms: C_6  and  C_13
REMARK    3  A    between atoms: C_12  and  C_16
REMARK    4  A    between atoms: C_16  and  C_17
REMARK    5  A    between atoms: C_18  and  C_19
REMARK    6  A    between atoms: C_20  and  C_21
REMARK                            x       y       z     vdW  Elec       q    Type
REMARK                         _______ _______ _______ _____ _____    ______ ____
ROOT
ATOM      1  C   UNL A   1     -27.106   1.102  27.759  0.00  0.00    -0.000 A 
ATOM      2  C   UNL A   1     -26.716   2.235  27.994  0.00  0.00    -0.000 A 
ATOM      3  C   UNL A   1     -26.693   3.346  27.034  0.00  0.00    -0.000 A 
ATOM      4  C   UNL A   1     -27.196   3.078  25.744  0.00  0.00    -0.004 A 
ATOM      5  C   UNL A   1     -27.387   1.022  26.299  0.00  0.00    -0.004 A 
ATOM      6  C   UNL A   1     -27.485   1.899  25.432  0.00  0.00    -0.018 A 
ENDROOT
BRANCH   1   8
ATOM      7  C   UNL A   1     -28.016  -0.814  28.878  0.00  0.00    +0.007 A 
ATOM      8  C   UNL A   1     -27.064  -0.119  28.608  0.00  0.00    +0.000 A 
ATOM      9  C   UNL A   1     -25.792  -0.430  29.076  0.00  0.00    +0.000 A 
ATOM     10  C   UNL A   1     -25.576  -1.565  29.936  0.00  0.00    +0.000 A 
ATOM     11  C   UNL A   1     -26.735  -2.300  30.217  0.00  0.00    +0.007 A 
ATOM     12  C   UNL A   1     -27.918  -1.954  29.763  0.00  0.00    +0.080 A 
BRANCH  12  13
ATOM     13  C   UNL A   1     -29.055  -2.781  30.224  0.00  0.00    +0.388 C 
ATOM     14  O   UNL A   1     -29.472  -2.671  31.163  0.00  0.00    -0.241 OA
ATOM     15  O   UNL A   1     -29.389  -3.754  29.390  0.00  0.00    -0.241 OA
ENDBRANCH  12  13
ENDBRANCH   1   8
BRANCH   6  16
ATOM     16  C   UNL A   1     -27.900   1.603  24.057  0.00  0.00    +0.052 C 
BRANCH  16  17
ATOM     17  C   UNL A   1     -29.278   1.272  23.928  0.00  0.00    -0.021 C 
ATOM     18  C   UNL A   1     -30.373   2.032  23.838  0.00  0.00    -0.004 C 
BRANCH  18  19
ATOM     19  C   UNL A   1     -31.673   1.609  23.747  0.00  0.00    -0.000 C 
ATOM     20  C   UNL A   1     -32.762   2.460  23.593  0.00  0.00    -0.000 C 
BRANCH  20  21
ATOM     21  C   UNL A   1     -32.563   3.870  23.703  0.00  0.00    -0.000 C 
ATOM     22  C   UNL A   1     -31.306   4.326  23.953  0.00  0.00    -0.000 C 
ENDBRANCH  20  21
ENDBRANCH  18  19
ENDBRANCH  16  17
ENDBRANCH   6  16
TORSDOF 6
