MODEL 1535
MODEL 1
REMARK VINA RESULT:    -4.066      0.000      0.000
REMARK INTER + INTRA:          -4.066
REMARK INTER:                  -4.066
REMARK INTRA:                   0.000
REMARK UNBOUND:                 0.000
REMARK  Name = No_1535-gen_results/8p0m/2024-11-26-14-13-15/
REMARK  0 active torsions:
REMARK  status: ('A' for Active; 'I' for Inactive)
REMARK                            x       y       z     vdW  Elec       q    Type
REMARK                         _______ _______ _______ _____ _____    ______ ____
ROOT
ATOM      1  C   UNL A   1     -24.973  -4.169  29.041  0.00  0.00    +0.012 A 
ATOM      2  C   UNL A   1     -23.993  -3.493  28.824  0.00  0.00    +0.012 A 
ATOM      3  C   UNL A   1     -23.819  -2.204  29.324  0.00  0.00    +0.058 A 
ATOM      4  C   UNL A   1     -24.883  -1.598  30.101  0.00  0.00    +0.012 A 
ATOM      5  C   UNL A   1     -25.998  -2.442  30.306  0.00  0.00    +0.012 A 
ATOM      6  C   UNL A   1     -26.075  -3.642  29.789  0.00  0.00    +0.058 A 
ATOM      7 CL   UNL A   1     -22.451  -1.207  29.049  0.00  0.00    -0.082 Cl
ATOM      8 CL   UNL A   1     -27.522  -4.552  30.063  0.00  0.00    -0.082 Cl
ENDROOT
TORSDOF 0
ENDMDL
ENDMDL
