MODEL 1536
MODEL 1
REMARK VINA RESULT:    -4.959      0.000      0.000
REMARK INTER + INTRA:          -5.681
REMARK INTER:                  -5.539
REMARK INTRA:                  -0.142
REMARK UNBOUND:                -0.142
REMARK  Name = No_1536-gen_results/8p0m/2024-11-26-14-13-15/
REMARK  2 active torsions:
REMARK  status: ('A' for Active; 'I' for Inactive)
REMARK    1  A    between atoms: C_1  and  C_2
REMARK    2  A    between atoms: C_1  and  N_8
REMARK                            x       y       z     vdW  Elec       q    Type
REMARK                         _______ _______ _______ _____ _____    ______ ____
ROOT
ATOM      1  C   UNL A   1     -23.037  -0.459  28.868  0.00  0.00    +0.002 A 
ATOM      2  C   UNL A   1     -23.628   0.537  28.160  0.00  0.00    -0.002 A 
ATOM      3  C   UNL A   1     -22.898   1.567  27.387  0.00  0.00    -0.000 A 
ATOM      4  C   UNL A   1     -21.466   1.506  27.417  0.00  0.00    -0.000 A 
ATOM      5  C   UNL A   1     -20.889   0.500  28.224  0.00  0.00    -0.000 A 
ATOM      6  C   UNL A   1     -21.631  -0.423  28.915  0.00  0.00    -0.002 A 
ENDROOT
BRANCH   1   7
ATOM      7  C   UNL A   1     -23.646  -1.293  29.498  0.00  0.00    +0.151 C 
BRANCH   7   8
ATOM      8  N   UNL A   1     -23.669  -2.619  29.079  0.00  0.00    -0.269 NA
ATOM      9  C   UNL A   1     -24.367  -3.439  28.869  0.00  0.00    +0.068 C 
ATOM     10  C   UNL A   1     -24.059  -4.838  28.448  0.00  0.00    +0.053 C 
ENDBRANCH   7   8
ENDBRANCH   1   7
TORSDOF 2
ENDMDL
ENDMDL
