MODEL 1537
MODEL 1
REMARK VINA RESULT:    -6.661      0.000      0.000
REMARK INTER + INTRA:          -8.453
REMARK INTER:                  -7.830
REMARK INTRA:                  -0.624
REMARK UNBOUND:                -0.624
REMARK  Name = No_1537-gen_results/8p0m/2024-11-26-14-13-15/
REMARK  3 active torsions:
REMARK  status: ('A' for Active; 'I' for Inactive)
REMARK    1  A    between atoms: C_2  and  C_7
REMARK    2  A    between atoms: C_7  and  C_8
REMARK    3  A    between atoms: C_7  and  C_9
REMARK                            x       y       z     vdW  Elec       q    Type
REMARK                         _______ _______ _______ _____ _____    ______ ____
ROOT
ATOM      1  C   UNL A   1     -24.294  -1.165  29.094  0.00  0.00    +0.109 C 
ENDROOT
BRANCH   1   3
ATOM      2  C   UNL A   1     -23.828  -3.475  28.646  0.00  0.00    -0.004 A 
ATOM      3  C   UNL A   1     -24.571  -2.627  29.083  0.00  0.00    -0.011 A 
ATOM      4  C   UNL A   1     -25.793  -2.968  29.654  0.00  0.00    -0.004 A 
ATOM      5  C   UNL A   1     -26.232  -4.339  29.700  0.00  0.00    -0.000 A 
ATOM      6  C   UNL A   1     -25.322  -5.251  29.151  0.00  0.00    -0.000 A 
ATOM      7  C   UNL A   1     -24.186  -4.876  28.608  0.00  0.00    -0.000 A 
ENDBRANCH   1   3
BRANCH   1   8
ATOM      8  C   UNL A   1     -24.176  -0.382  28.165  0.00  0.00    -0.011 A 
ATOM      9  C   UNL A   1     -25.073  -0.340  27.058  0.00  0.00    -0.004 A 
ATOM     10  C   UNL A   1     -23.124   0.646  28.062  0.00  0.00    -0.004 A 
ATOM     11  C   UNL A   1     -23.115   1.524  26.935  0.00  0.00    -0.000 A 
ATOM     12  C   UNL A   1     -25.008   0.526  25.914  0.00  0.00    -0.000 A 
ATOM     13  C   UNL A   1     -24.027   1.503  25.888  0.00  0.00    -0.000 A 
ENDBRANCH   1   8
BRANCH   1  14
ATOM     14  C   UNL A   1     -24.188  -0.611  30.454  0.00  0.00    +0.216 C 
ATOM     15  O   UNL A   1     -23.361  -0.937  31.213  0.00  0.00    -0.288 OA
ENDBRANCH   1  14
TORSDOF 3
ENDMDL
ENDMDL
