REMARK  Name = No_1538-gen_results/8p0m/2024-11-26-14-13-15/
REMARK  3 active torsions:
REMARK  status: ('A' for Active; 'I' for Inactive)
REMARK    1  A    between atoms: C_1  and  C_7
REMARK    2  A    between atoms: C_5  and  C_11
REMARK    3  A    between atoms: C_16  and  C_18
REMARK                            x       y       z     vdW  Elec       q    Type
REMARK                         _______ _______ _______ _____ _____    ______ ____
ROOT
ATOM      1  C   UNL A   1     -27.787  -1.667  30.120  0.00  0.00    +0.249 C 
ATOM      2  N   UNL A   1     -28.715  -2.077  30.756  0.00  0.00    -0.276 N 
ATOM      3  O   UNL A   1     -26.632  -2.193  30.327  0.00  0.00    -0.270 OA
ATOM      4  C   UNL A   1     -28.635  -3.172  31.777  0.00  0.00    +0.094 C 
ATOM      5  C   UNL A   1     -29.749  -3.044  32.733  0.00  0.00    +0.022 C 
ATOM      6  C   UNL A   1     -31.003  -3.127  32.125  0.00  0.00    +0.011 C 
ATOM      7  C   UNL A   1     -31.147  -2.028  31.084  0.00  0.00    +0.085 C 
ATOM      8  C   UNL A   1     -30.063  -1.558  30.580  0.00  0.00    +0.101 C 
ENDROOT
BRANCH   1   9
ATOM      9  C   UNL A   1     -28.016  -0.814  28.878  0.00  0.00    +0.054 A 
ATOM     10  C   UNL A   1     -27.064  -0.119  28.608  0.00  0.00    +0.004 A 
ATOM     11  C   UNL A   1     -27.001   0.691  27.491  0.00  0.00    +0.000 A 
ATOM     12  C   UNL A   1     -28.137   0.736  26.635  0.00  0.00    +0.007 A 
ATOM     13  C   UNL A   1     -29.236   0.076  27.069  0.00  0.00    +0.080 A 
ATOM     14  C   UNL A   1     -29.218  -0.643  28.175  0.00  0.00    +0.011 A 
BRANCH  13  15
ATOM     15  C   UNL A   1     -30.449   0.167  26.232  0.00  0.00    +0.388 C 
ATOM     16  O   UNL A   1     -30.498   0.200  25.029  0.00  0.00    -0.241 OA
ATOM     17  O   UNL A   1     -31.578  -0.321  26.829  0.00  0.00    -0.241 OA
ENDBRANCH  13  15
ENDBRANCH   1   9
BRANCH   7  18
ATOM     18  C   UNL A   1     -32.502  -1.776  30.577  0.00  0.00    +0.209 C 
ATOM     19  O   UNL A   1     -32.645  -0.708  30.065  0.00  0.00    -0.288 OA
ENDBRANCH   7  18
TORSDOF 3
