MODEL 1539
MODEL 1
REMARK VINA RESULT:    -6.704      0.000      0.000
REMARK INTER + INTRA:          -7.520
REMARK INTER:                  -7.096
REMARK INTRA:                  -0.425
REMARK UNBOUND:                -0.425
REMARK  Name = No_1539-gen_results/8p0m/2024-11-26-14-13-15/
REMARK  1 active torsions:
REMARK  status: ('A' for Active; 'I' for Inactive)
REMARK    1  A    between atoms: C_3  and  C_7
REMARK                            x       y       z     vdW  Elec       q    Type
REMARK                         _______ _______ _______ _____ _____    ______ ____
ROOT
ATOM      1  C   UNL A   1     -23.792  -1.335  28.812  0.00  0.00    +0.011 A 
ATOM      2  C   UNL A   1     -22.635  -1.246  29.270  0.00  0.00    +0.001 A 
ATOM      3  C   UNL A   1     -24.201  -0.354  27.848  0.00  0.00    +0.058 A 
ATOM      4  C   UNL A   1     -21.859  -0.058  29.140  0.00  0.00    +0.000 A 
ATOM      5  C   UNL A   1     -23.440   0.725  27.492  0.00  0.00    +0.011 A 
ATOM      6  C   UNL A   1     -22.273   0.889  28.203  0.00  0.00    +0.001 A 
ATOM      7 CL   UNL A   1     -25.712  -0.487  26.986  0.00  0.00    -0.082 Cl
ENDROOT
BRANCH   1  10
ATOM      8  C   UNL A   1     -23.942  -3.727  28.553  0.00  0.00    +0.000 A 
ATOM      9  C   UNL A   1     -24.382  -4.659  28.775  0.00  0.00    +0.000 A 
ATOM     10  C   UNL A   1     -24.628  -2.568  29.049  0.00  0.00    +0.001 A 
ATOM     11  C   UNL A   1     -25.838  -2.624  29.614  0.00  0.00    +0.000 A 
ATOM     12  C   UNL A   1     -25.685  -4.954  29.353  0.00  0.00    +0.000 A 
ATOM     13  C   UNL A   1     -26.343  -3.891  29.796  0.00  0.00    +0.000 A 
ENDBRANCH   1  10
TORSDOF 1
ENDMDL
ENDMDL
