REMARK  Name = No_1539-gen_results/8p0m/2024-11-26-14-13-15/
REMARK  1 active torsions:
REMARK  status: ('A' for Active; 'I' for Inactive)
REMARK    1  A    between atoms: C_3  and  C_7
REMARK                            x       y       z     vdW  Elec       q    Type
REMARK                         _______ _______ _______ _____ _____    ______ ____
ROOT
ATOM      1  C   UNL A   1     -27.348   0.233  26.812  0.00  0.00    +0.011 A 
ATOM      2  C   UNL A   1     -27.779   0.609  25.704  0.00  0.00    +0.001 A 
ATOM      3  C   UNL A   1     -25.948  -0.067  26.913  0.00  0.00    +0.058 A 
ATOM      4  C   UNL A   1     -27.036   0.427  24.501  0.00  0.00    +0.000 A 
ATOM      5  C   UNL A   1     -25.093  -0.069  25.846  0.00  0.00    +0.011 A 
ATOM      6  C   UNL A   1     -25.677   0.130  24.616  0.00  0.00    +0.001 A 
ATOM      7 CL   UNL A   1     -25.189  -0.405  28.447  0.00  0.00    -0.082 Cl
ENDROOT
BRANCH   1  10
ATOM      8  C   UNL A   1     -28.016  -0.814  28.878  0.00  0.00    +0.000 A 
ATOM      9  C   UNL A   1     -28.469  -0.785  29.829  0.00  0.00    +0.000 A 
ATOM     10  C   UNL A   1     -28.196   0.348  28.055  0.00  0.00    +0.001 A 
ATOM     11  C   UNL A   1     -29.019   1.350  28.378  0.00  0.00    +0.000 A 
ATOM     12  C   UNL A   1     -29.411   0.180  30.378  0.00  0.00    +0.000 A 
ATOM     13  C   UNL A   1     -29.606   1.250  29.619  0.00  0.00    +0.000 A 
ENDBRANCH   1  10
TORSDOF 1
