MODEL 153
MODEL 1
REMARK VINA RESULT:    -5.421      0.000      0.000
REMARK INTER + INTRA:          -7.266
REMARK INTER:                  -7.006
REMARK INTRA:                  -0.260
REMARK UNBOUND:                -0.260
REMARK  Name = No_153-gen_results/8p0m/2024-11-26-14-13-15/
REMARK  5 active torsions:
REMARK  status: ('A' for Active; 'I' for Inactive)
REMARK    1  A    between atoms: C_2  and  C_3
REMARK    2  A    between atoms: C_2  and  N_8
REMARK    3  A    between atoms: C_3  and  O_4
REMARK    4  A    between atoms: O_4  and  C_5
REMARK    5  A    between atoms: N_8  and  C_12
REMARK                            x       y       z     vdW  Elec       q    Type
REMARK                         _______ _______ _______ _____ _____    ______ ____
ROOT
ATOM      1  O   UNL A   1     -23.029  -2.294  28.851  0.00  0.00    -0.471 OA
ENDROOT
BRANCH   1   2
ATOM      2  C   UNL A   1     -24.055  -3.078  28.983  0.00  0.00    +0.139 A 
ATOM      3  C   UNL A   1     -25.137  -2.540  29.740  0.00  0.00    +0.037 A 
ATOM      4  C   UNL A   1     -26.353  -3.323  29.885  0.00  0.00    +0.003 A 
ATOM      5  C   UNL A   1     -26.207  -4.732  29.660  0.00  0.00    +0.000 A 
ATOM      6  C   UNL A   1     -25.127  -5.250  29.033  0.00  0.00    +0.003 A 
ATOM      7  C   UNL A   1     -24.050  -4.419  28.719  0.00  0.00    +0.037 A 
ENDBRANCH   1   2
BRANCH   1   8
ATOM      8  C   UNL A   1     -22.967  -1.255  29.388  0.00  0.00    +0.261 C 
BRANCH   8  10
ATOM      9  O   UNL A   1     -21.398   0.252  28.794  0.00  0.00    -0.195 OA
ATOM     10  C   UNL A   1     -22.551  -0.186  28.708  0.00  0.00    +0.288 C 
BRANCH  10  11
ATOM     11  N   UNL A   1     -23.532   0.611  28.160  0.00  0.00    -0.204 NA
BRANCH  11  12
ATOM     12  C   UNL A   1     -23.475   1.876  27.534  0.00  0.00    +0.083 C 
ATOM     13  C   UNL A   1     -22.990   2.052  26.260  0.00  0.00    +0.019 C 
ENDBRANCH  11  12
ENDBRANCH  10  11
ENDBRANCH   8  10
ENDBRANCH   1   8
TORSDOF 5
ENDMDL
ENDMDL
