MODEL 1540
MODEL 1
REMARK VINA RESULT:    -6.074      0.000      0.000
REMARK INTER + INTRA:          -7.967
REMARK INTER:                  -7.494
REMARK INTRA:                  -0.473
REMARK UNBOUND:                -0.473
REMARK  Name = No_1540-gen_results/8p0m/2024-11-26-14-13-15/
REMARK  4 active torsions:
REMARK  status: ('A' for Active; 'I' for Inactive)
REMARK    1  A    between atoms: C_1  and  C_2
REMARK    2  A    between atoms: C_1  and  N_8
REMARK    3  A    between atoms: C_5  and  C_10
REMARK    4  A    between atoms: C_9  and  C_13
REMARK                            x       y       z     vdW  Elec       q    Type
REMARK                         _______ _______ _______ _____ _____    ______ ____
ROOT
ATOM      1  C   UNL A   1     -30.173 -10.707  29.161  0.00  0.00    +0.142 C 
ENDROOT
BRANCH   1   2
ATOM      2  C   UNL A   1     -29.632 -10.903  30.224  0.00  0.00    -0.001 A 
ATOM      3  C   UNL A   1     -28.584 -11.809  30.341  0.00  0.00    -0.002 A 
ATOM      4  C   UNL A   1     -27.846 -12.145  31.593  0.00  0.00    +0.006 A 
ATOM      5  C   UNL A   1     -28.152 -11.343  32.732  0.00  0.00    +0.080 A 
ATOM      6  C   UNL A   1     -29.177 -10.389  32.575  0.00  0.00    +0.006 A 
ATOM      7  C   UNL A   1     -29.843 -10.169  31.433  0.00  0.00    -0.002 A 
BRANCH   5   8
ATOM      8  C   UNL A   1     -27.413 -11.639  33.938  0.00  0.00    +0.388 C 
ATOM      9  O   UNL A   1     -26.843 -12.752  34.169  0.00  0.00    -0.241 OA
ATOM     10  O   UNL A   1     -26.844 -10.529  34.545  0.00  0.00    -0.241 OA
ENDBRANCH   5   8
ENDBRANCH   1   2
BRANCH   1  11
ATOM     11  N   UNL A   1     -29.604 -11.374  28.097  0.00  0.00    -0.196 NA
ATOM     12  C   UNL A   1     -30.226 -11.330  26.887  0.00  0.00    +0.283 C 
ATOM     13  O   UNL A   1     -30.812 -10.282  26.466  0.00  0.00    -0.267 OA
BRANCH  12  14
ATOM     14  C   UNL A   1     -30.201 -12.423  26.067  0.00  0.00    +0.139 A 
ATOM     15  C   UNL A   1     -29.577 -13.504  26.508  0.00  0.00    +0.044 A 
ATOM     16  C   UNL A   1     -29.406 -14.610  25.715  0.00  0.00    +0.102 A 
ATOM     17  N   UNL A   1     -30.684 -12.373  24.822  0.00  0.00    -0.219 NA
ATOM     18  C   UNL A   1     -30.595 -13.457  23.984  0.00  0.00    +0.199 A 
ATOM     19  N   UNL A   1     -29.973 -14.548  24.419  0.00  0.00    -0.222 NA
ENDBRANCH  12  14
ENDBRANCH   1  11
TORSDOF 4
ENDMDL
ENDMDL
