REMARK  Name = No_1540-gen_results/8p0m/2024-11-26-14-13-15/
REMARK  4 active torsions:
REMARK  status: ('A' for Active; 'I' for Inactive)
REMARK    1  A    between atoms: C_1  and  C_2
REMARK    2  A    between atoms: C_1  and  N_8
REMARK    3  A    between atoms: C_5  and  C_10
REMARK    4  A    between atoms: C_9  and  C_13
REMARK                            x       y       z     vdW  Elec       q    Type
REMARK                         _______ _______ _______ _____ _____    ______ ____
ROOT
ATOM      1  C   UNL A   1     -28.016  -0.814  28.878  0.00  0.00    +0.142 C 
ENDROOT
BRANCH   1   2
ATOM      2  C   UNL A   1     -27.064  -0.119  28.608  0.00  0.00    -0.001 A 
ATOM      3  C   UNL A   1     -25.792  -0.430  29.076  0.00  0.00    -0.002 A 
ATOM      4  C   UNL A   1     -24.546   0.349  28.823  0.00  0.00    +0.006 A 
ATOM      5  C   UNL A   1     -24.659   1.420  27.888  0.00  0.00    +0.080 A 
ATOM      6  C   UNL A   1     -25.947   1.681  27.379  0.00  0.00    +0.006 A 
ATOM      7  C   UNL A   1     -27.044   0.974  27.687  0.00  0.00    -0.002 A 
BRANCH   5   8
ATOM      8  C   UNL A   1     -23.446   2.155  27.609  0.00  0.00    +0.388 C 
ATOM      9  O   UNL A   1     -22.300   1.834  28.058  0.00  0.00    -0.241 OA
ATOM     10  O   UNL A   1     -23.456   2.834  26.400  0.00  0.00    -0.241 OA
ENDBRANCH   5   8
ENDBRANCH   1   2
BRANCH   1  11
ATOM     11  N   UNL A   1     -29.180  -0.120  29.129  0.00  0.00    -0.196 NA
ATOM     12  C   UNL A   1     -30.209  -0.765  29.743  0.00  0.00    +0.283 C 
ATOM     13  O   UNL A   1     -30.016  -1.619  30.667  0.00  0.00    -0.267 OA
BRANCH  12  14
ATOM     14  C   UNL A   1     -31.499  -0.476  29.397  0.00  0.00    +0.139 A 
ATOM     15  C   UNL A   1     -32.348  -1.487  29.303  0.00  0.00    +0.044 A 
ATOM     16  C   UNL A   1     -33.633  -1.309  28.857  0.00  0.00    +0.102 A 
ATOM     17  N   UNL A   1     -31.869   0.761  29.051  0.00  0.00    -0.219 NA
ATOM     18  C   UNL A   1     -33.152   1.028  28.642  0.00  0.00    +0.199 A 
ATOM     19  N   UNL A   1     -34.012   0.020  28.548  0.00  0.00    -0.222 NA
ENDBRANCH  12  14
ENDBRANCH   1  11
TORSDOF 4
