MODEL 1541
MODEL 1
REMARK VINA RESULT:    -5.628      0.000      0.000
REMARK INTER + INTRA:          -6.115
REMARK INTER:                  -5.957
REMARK INTRA:                  -0.158
REMARK UNBOUND:                -0.158
REMARK  Name = No_1541-gen_results/8p0m/2024-11-26-14-13-15/
REMARK  1 active torsions:
REMARK  status: ('A' for Active; 'I' for Inactive)
REMARK    1  A    between atoms: C_4  and  C_8
REMARK                            x       y       z     vdW  Elec       q    Type
REMARK                         _______ _______ _______ _____ _____    ______ ____
ROOT
ATOM      1  C   UNL A   1     -26.513  -3.561  29.833  0.00  0.00    +0.004 C 
ATOM      2  C   UNL A   1     -25.761  -2.635  29.635  0.00  0.00    +0.022 C 
ATOM      3  C   UNL A   1     -24.529  -2.830  29.019  0.00  0.00    -0.044 C 
ATOM      4  C   UNL A   1     -23.643  -1.769  28.699  0.00  0.00    -0.009 C 
ATOM      5  C   UNL A   1     -26.048  -4.937  29.647  0.00  0.00    +0.001 C 
ATOM      6  C   UNL A   1     -24.893  -5.220  28.960  0.00  0.00    +0.004 C 
ATOM      7  C   UNL A   1     -24.067  -4.143  28.631  0.00  0.00    +0.022 C 
ENDROOT
BRANCH   4   8
ATOM      8  C   UNL A   1     -22.614  -1.333  29.418  0.00  0.00    -0.005 C 
ATOM      9  C   UNL A   1     -21.893  -0.163  29.162  0.00  0.00    -0.026 C 
ATOM     10  C   UNL A   1     -22.343   0.699  28.078  0.00  0.00    +0.031 C 
ENDBRANCH   4   8
TORSDOF 1
ENDMDL
ENDMDL
