MODEL 1542
MODEL 1
REMARK VINA RESULT:    -4.226      0.000      0.000
REMARK INTER + INTRA:          -4.226
REMARK INTER:                  -4.226
REMARK INTRA:                   0.000
REMARK UNBOUND:                 0.000
REMARK  Name = No_1542-gen_results/8p0m/2024-11-26-14-13-15/
REMARK  0 active torsions:
REMARK  status: ('A' for Active; 'I' for Inactive)
REMARK                            x       y       z     vdW  Elec       q    Type
REMARK                         _______ _______ _______ _____ _____    ______ ____
ROOT
ATOM      1  C   UNL A   1     -25.219  -5.296  29.214  0.00  0.00    +0.000 A 
ATOM      2  C   UNL A   1     -26.160  -4.677  29.653  0.00  0.00    +0.000 A 
ATOM      3  C   UNL A   1     -26.157  -3.307  29.832  0.00  0.00    +0.000 A 
ATOM      4  C   UNL A   1     -24.994  -2.586  29.440  0.00  0.00    +0.000 A 
ATOM      5  C   UNL A   1     -24.039  -3.299  28.799  0.00  0.00    +0.000 A 
ATOM      6  C   UNL A   1     -24.145  -4.604  28.635  0.00  0.00    +0.000 A 
ENDROOT
TORSDOF 0
ENDMDL
ENDMDL
