MODEL 1543
MODEL 1
REMARK VINA RESULT:    -6.190      0.000      0.000
REMARK INTER + INTRA:          -6.783
REMARK INTER:                  -6.552
REMARK INTRA:                  -0.231
REMARK UNBOUND:                -0.231
REMARK  Name = No_1543-gen_results/8p0m/2024-11-26-14-13-15/
REMARK  1 active torsions:
REMARK  status: ('A' for Active; 'I' for Inactive)
REMARK    1  A    between atoms: C_5  and  C_8
REMARK                            x       y       z     vdW  Elec       q    Type
REMARK                         _______ _______ _______ _____ _____    ______ ____
ROOT
ATOM      1  O   UNL A   1     -27.722  -3.526  30.156  0.00  0.00    -0.273 OA
ATOM      2  C   UNL A   1     -26.596  -3.585  29.919  0.00  0.00    +0.242 C 
ATOM      3  C   UNL A   1     -25.894  -2.485  29.467  0.00  0.00    +0.091 C 
ATOM      4  N   UNL A   1     -25.963  -4.857  29.552  0.00  0.00    -0.205 NA
ATOM      5  C   UNL A   1     -24.714  -2.515  28.866  0.00  0.00    +0.033 C 
ATOM      6  C   UNL A   1     -24.075  -3.836  28.749  0.00  0.00    +0.028 C 
ATOM      7  C   UNL A   1     -24.754  -4.947  29.039  0.00  0.00    +0.116 C 
ENDROOT
BRANCH   5   8
ATOM      8  C   UNL A   1     -23.861  -1.388  28.523  0.00  0.00    -0.022 A 
ATOM      9  C   UNL A   1     -24.267  -0.311  27.891  0.00  0.00    -0.004 A 
ATOM     10  C   UNL A   1     -23.314   0.770  27.590  0.00  0.00    -0.000 A 
ATOM     11  C   UNL A   1     -22.142   0.781  28.250  0.00  0.00    -0.000 A 
ATOM     12  C   UNL A   1     -22.562  -1.165  29.172  0.00  0.00    -0.004 A 
ATOM     13  C   UNL A   1     -21.782  -0.153  29.104  0.00  0.00    -0.000 A 
ENDBRANCH   5   8
TORSDOF 1
ENDMDL
ENDMDL
