MODEL 1544
MODEL 1
REMARK VINA RESULT:    -6.434      0.000      0.000
REMARK INTER + INTRA:          -7.014
REMARK INTER:                  -6.810
REMARK INTRA:                  -0.204
REMARK UNBOUND:                -0.204
REMARK  Name = No_1544-gen_results/8p0m/2024-11-26-14-13-15/
REMARK  1 active torsions:
REMARK  status: ('A' for Active; 'I' for Inactive)
REMARK    1  A    between atoms: C_9  and  C_11
REMARK                            x       y       z     vdW  Elec       q    Type
REMARK                         _______ _______ _______ _____ _____    ______ ____
ROOT
ATOM      1  C   UNL A   1     -26.511  -3.408  30.037  0.00  0.00    -0.000 A 
ATOM      2  C   UNL A   1     -25.581  -2.641  29.940  0.00  0.00    -0.000 A 
ATOM      3  C   UNL A   1     -24.369  -3.049  29.394  0.00  0.00    -0.000 A 
ATOM      4  C   UNL A   1     -24.167  -4.411  28.971  0.00  0.00    -0.000 A 
ATOM      5  C   UNL A   1     -25.286  -5.236  29.142  0.00  0.00    -0.000 A 
ATOM      6  C   UNL A   1     -26.405  -4.806  29.678  0.00  0.00    -0.000 A 
ATOM      7  C   UNL A   1     -25.602  -1.211  30.349  0.00  0.00    -0.000 A 
ATOM      8  C   UNL A   1     -24.910  -0.301  29.761  0.00  0.00    +0.004 A 
ATOM      9  C   UNL A   1     -23.589  -0.718  29.124  0.00  0.00    +0.071 A 
ATOM     10  C   UNL A   1     -23.402  -2.064  28.838  0.00  0.00    +0.004 A 
ENDROOT
BRANCH   9  11
ATOM     11  C   UNL A   1     -22.608   0.273  28.714  0.00  0.00    +0.419 C 
ATOM     12  F   UNL A   1     -21.468  -0.229  28.626  0.00  0.00    -0.166 F 
ATOM     13  F   UNL A   1     -22.921   0.567  27.366  0.00  0.00    -0.166 F 
ATOM     14  F   UNL A   1     -22.679   1.355  29.444  0.00  0.00    -0.166 F 
ENDBRANCH   9  11
TORSDOF 1
ENDMDL
ENDMDL
