MODEL 1545
MODEL 1
REMARK VINA RESULT:    -7.019      0.000      0.000
REMARK INTER + INTRA:         -11.018
REMARK INTER:                  -9.070
REMARK INTRA:                  -1.947
REMARK UNBOUND:                -1.947
REMARK  Name = No_1545-gen_results/8p0m/2024-11-26-14-13-15/
REMARK  5 active torsions:
REMARK  status: ('A' for Active; 'I' for Inactive)
REMARK    1  A    between atoms: C_3  and  C_7
REMARK    2  A    between atoms: C_7  and  C_8
REMARK    3  A    between atoms: C_7  and  C_9
REMARK    4  A    between atoms: C_15  and  C_16
REMARK    5  A    between atoms: C_17  and  C_18
REMARK                            x       y       z     vdW  Elec       q    Type
REMARK                         _______ _______ _______ _____ _____    ______ ____
ROOT
ATOM      1  C   UNL A   1     -24.756  -1.172  28.746  0.00  0.00    +0.066 C 
ENDROOT
BRANCH   1   4
ATOM      2  C   UNL A   1     -23.947  -3.466  28.417  0.00  0.00    -0.004 A 
ATOM      3  C   UNL A   1     -24.110  -4.491  28.602  0.00  0.00    -0.000 A 
ATOM      4  C   UNL A   1     -25.035  -2.607  28.883  0.00  0.00    -0.014 A 
ATOM      5  C   UNL A   1     -26.144  -3.112  29.517  0.00  0.00    -0.004 A 
ATOM      6  C   UNL A   1     -25.155  -5.293  29.238  0.00  0.00    -0.000 A 
ATOM      7  C   UNL A   1     -26.213  -4.471  29.693  0.00  0.00    -0.000 A 
ENDBRANCH   1   4
BRANCH   1   8
ATOM      8  C   UNL A   1     -25.598  -0.538  27.627  0.00  0.00    -0.014 A 
ATOM      9  C   UNL A   1     -26.588   0.387  27.937  0.00  0.00    -0.004 A 
ATOM     10  C   UNL A   1     -27.329   0.949  26.900  0.00  0.00    -0.000 A 
ATOM     11  C   UNL A   1     -26.943   0.760  25.563  0.00  0.00    -0.000 A 
ATOM     12  C   UNL A   1     -25.378  -0.693  26.222  0.00  0.00    -0.004 A 
ATOM     13  C   UNL A   1     -26.039  -0.144  25.251  0.00  0.00    -0.000 A 
ENDBRANCH   1   8
BRANCH   1  14
ATOM     14  C   UNL A   1     -23.473  -0.700  28.497  0.00  0.00    -0.018 C 
ATOM     15  C   UNL A   1     -23.288   0.505  28.574  0.00  0.00    -0.004 C 
BRANCH  15  16
ATOM     16  C   UNL A   1     -22.031   1.143  28.187  0.00  0.00    -0.000 C 
ATOM     17  C   UNL A   1     -21.950   1.858  27.039  0.00  0.00    -0.000 C 
BRANCH  17  18
ATOM     18  C   UNL A   1     -22.999   1.986  26.145  0.00  0.00    -0.000 C 
ATOM     19  C   UNL A   1     -23.848   3.065  26.246  0.00  0.00    -0.000 C 
ENDBRANCH  17  18
ENDBRANCH  15  16
ENDBRANCH   1  14
TORSDOF 5
ENDMDL
ENDMDL
