REMARK  Name = No_1546-gen_results/8p0m/2024-11-26-14-13-15/
REMARK  3 active torsions:
REMARK  status: ('A' for Active; 'I' for Inactive)
REMARK    1  A    between atoms: C_3  and  C_11
REMARK    2  A    between atoms: C_6  and  C_14
REMARK    3  A    between atoms: C_8  and  C_18
REMARK                            x       y       z     vdW  Elec       q    Type
REMARK                         _______ _______ _______ _____ _____    ______ ____
ROOT
ATOM      1  C   UNL A   1     -28.016  -0.814  28.878  0.00  0.00    +0.007 A 
ATOM      2  C   UNL A   1     -27.064  -0.119  28.608  0.00  0.00    +0.006 A 
ATOM      3  C   UNL A   1     -27.001   0.691  27.491  0.00  0.00    +0.080 A 
ATOM      4  C   UNL A   1     -25.855   1.482  27.083  0.00  0.00    +0.006 A 
ATOM      5  C   UNL A   1     -24.690   1.453  27.881  0.00  0.00    +0.004 A 
ATOM      6  C   UNL A   1     -24.738   0.601  29.042  0.00  0.00    +0.071 A 
ATOM      7  C   UNL A   1     -25.823  -0.169  29.389  0.00  0.00    +0.004 A 
ATOM      8  C   UNL A   1     -28.035  -1.496  30.234  0.00  0.00    +0.080 A 
ATOM      9  C   UNL A   1     -26.842  -1.734  30.904  0.00  0.00    +0.007 A 
ATOM     10  C   UNL A   1     -25.746  -0.966  30.571  0.00  0.00    +0.000 A 
ENDROOT
BRANCH   6  11
ATOM     11  C   UNL A   1     -23.441   0.615  29.869  0.00  0.00    +0.419 C 
ATOM     12  F   UNL A   1     -23.194   1.752  30.340  0.00  0.00    -0.166 F 
ATOM     13  F   UNL A   1     -22.334   0.210  29.203  0.00  0.00    -0.166 F 
ATOM     14  F   UNL A   1     -23.514  -0.178  31.000  0.00  0.00    -0.166 F 
ENDBRANCH   6  11
BRANCH   3  15
ATOM     15  C   UNL A   1     -28.094   0.787  26.503  0.00  0.00    +0.388 C 
ATOM     16  O   UNL A   1     -27.997   0.942  25.335  0.00  0.00    -0.241 OA
ATOM     17  O   UNL A   1     -29.279   0.601  26.971  0.00  0.00    -0.241 OA
ENDBRANCH   3  15
BRANCH   8  18
ATOM     18  C   UNL A   1     -29.298  -2.236  30.593  0.00  0.00    +0.388 C 
ATOM     19  O   UNL A   1     -29.613  -2.227  31.856  0.00  0.00    -0.241 OA
ATOM     20  O   UNL A   1     -29.911  -2.922  29.790  0.00  0.00    -0.241 OA
ENDBRANCH   8  18
TORSDOF 3
