MODEL 1546
MODEL 1
REMARK VINA RESULT:    -6.595      0.000      0.000
REMARK INTER + INTRA:          -7.988
REMARK INTER:                  -7.752
REMARK INTRA:                  -0.237
REMARK UNBOUND:                -0.237
REMARK  Name = No_1546-gen_results/8p0m/2024-11-26-14-13-15/
REMARK  3 active torsions:
REMARK  status: ('A' for Active; 'I' for Inactive)
REMARK    1  A    between atoms: C_3  and  C_11
REMARK    2  A    between atoms: C_6  and  C_14
REMARK    3  A    between atoms: C_8  and  C_18
REMARK                            x       y       z     vdW  Elec       q    Type
REMARK                         _______ _______ _______ _____ _____    ______ ____
ROOT
ATOM      1  C   UNL A   1     -29.110 -10.303  32.561  0.00  0.00    +0.007 A 
ATOM      2  C   UNL A   1     -29.633 -10.040  31.503  0.00  0.00    +0.006 A 
ATOM      3  C   UNL A   1     -30.509  -8.987  31.325  0.00  0.00    +0.080 A 
ATOM      4  C   UNL A   1     -31.221  -8.676  30.099  0.00  0.00    +0.006 A 
ATOM      5  C   UNL A   1     -31.014  -9.494  28.967  0.00  0.00    +0.004 A 
ATOM      6  C   UNL A   1     -30.113 -10.605  29.144  0.00  0.00    +0.071 A 
ATOM      7  C   UNL A   1     -29.478 -10.902  30.327  0.00  0.00    +0.004 A 
ATOM      8  C   UNL A   1     -28.018 -11.358  32.569  0.00  0.00    +0.080 A 
ATOM      9  C   UNL A   1     -27.974 -12.314  31.563  0.00  0.00    +0.007 A 
ATOM     10  C   UNL A   1     -28.601 -12.028  30.368  0.00  0.00    +0.000 A 
ENDROOT
BRANCH   6  11
ATOM     11  C   UNL A   1     -29.929 -11.455  27.875  0.00  0.00    +0.419 C 
ATOM     12  F   UNL A   1     -30.223 -10.819  26.834  0.00  0.00    -0.166 F 
ATOM     13  F   UNL A   1     -30.639 -12.608  27.852  0.00  0.00    -0.166 F 
ATOM     14  F   UNL A   1     -28.612 -11.817  27.655  0.00  0.00    -0.166 F 
ENDBRANCH   6  11
BRANCH   3  15
ATOM     15  C   UNL A   1     -30.904  -8.073  32.417  0.00  0.00    +0.388 C 
ATOM     16  O   UNL A   1     -30.367  -7.073  32.747  0.00  0.00    -0.241 OA
ATOM     17  O   UNL A   1     -32.003  -8.373  33.017  0.00  0.00    -0.241 OA
ENDBRANCH   3  15
BRANCH   8  18
ATOM     18  C   UNL A   1     -27.292 -11.558  33.875  0.00  0.00    +0.388 C 
ATOM     19  O   UNL A   1     -26.844 -12.762  34.088  0.00  0.00    -0.241 OA
ATOM     20  O   UNL A   1     -27.247 -10.701  34.743  0.00  0.00    -0.241 OA
ENDBRANCH   8  18
TORSDOF 3
ENDMDL
ENDMDL
