MODEL 1548
MODEL 1
REMARK VINA RESULT:    -7.696      0.000      0.000
REMARK INTER + INTRA:          -9.102
REMARK INTER:                  -8.596
REMARK INTRA:                  -0.507
REMARK UNBOUND:                -0.507
REMARK  Name = No_1548-gen_results/8p0m/2024-11-26-14-13-15/
REMARK  2 active torsions:
REMARK  status: ('A' for Active; 'I' for Inactive)
REMARK    1  A    between atoms: C_3  and  C_7
REMARK    2  A    between atoms: C_7  and  C_8
REMARK                            x       y       z     vdW  Elec       q    Type
REMARK                         _______ _______ _______ _____ _____    ______ ____
ROOT
ATOM      1  C   UNL A   1     -23.648  -0.509  29.248  0.00  0.00    +0.039 A 
ATOM      2  C   UNL A   1     -23.958   0.344  28.095  0.00  0.00    +0.006 A 
ATOM      3  C   UNL A   1     -22.944   1.024  27.477  0.00  0.00    +0.019 A 
ATOM      4  C   UNL A   1     -21.613   0.850  27.905  0.00  0.00    +0.002 A 
ATOM      5  C   UNL A   1     -21.293  -0.017  28.940  0.00  0.00    +0.000 A 
ATOM      6  C   UNL A   1     -22.327  -0.713  29.569  0.00  0.00    +0.003 A 
ATOM      7  C   UNL A   1     -23.191   1.986  26.364  0.00  0.00    +0.099 A 
ATOM      8  N   UNL A   1     -24.163   1.637  25.523  0.00  0.00    -0.242 NA
ATOM      9  C   UNL A   1     -25.360   1.130  25.921  0.00  0.00    +0.099 A 
ATOM     10  C   UNL A   1     -25.128   0.136  27.124  0.00  0.00    +0.021 A 
ENDROOT
BRANCH   1  11
ATOM     11  C   UNL A   1     -24.693  -1.237  29.889  0.00  0.00    +0.196 C 
ATOM     12  O   UNL A   1     -25.347  -0.664  30.713  0.00  0.00    -0.287 OA
BRANCH  11  15
ATOM     13  C   UNL A   1     -26.036  -3.394  29.968  0.00  0.00    +0.003 A 
ATOM     14  C   UNL A   1     -26.119  -4.384  29.617  0.00  0.00    +0.000 A 
ATOM     15  C   UNL A   1     -24.823  -2.709  29.506  0.00  0.00    +0.039 A 
ATOM     16  C   UNL A   1     -23.842  -3.345  28.863  0.00  0.00    +0.003 A 
ATOM     17  C   UNL A   1     -25.204  -5.272  28.942  0.00  0.00    +0.000 A 
ATOM     18  C   UNL A   1     -24.072  -4.625  28.543  0.00  0.00    +0.000 A 
ENDBRANCH  11  15
ENDBRANCH   1  11
TORSDOF 2
ENDMDL
ENDMDL
