REMARK  Name = No_1548-gen_results/8p0m/2024-11-26-14-13-15/
REMARK  2 active torsions:
REMARK  status: ('A' for Active; 'I' for Inactive)
REMARK    1  A    between atoms: C_3  and  C_7
REMARK    2  A    between atoms: C_7  and  C_8
REMARK                            x       y       z     vdW  Elec       q    Type
REMARK                         _______ _______ _______ _____ _____    ______ ____
ROOT
ATOM      1  C   UNL A   1     -26.481   1.521  26.630  0.00  0.00    +0.039 A 
ATOM      2  C   UNL A   1     -25.203   1.410  27.343  0.00  0.00    +0.006 A 
ATOM      3  C   UNL A   1     -24.279   2.411  27.215  0.00  0.00    +0.019 A 
ATOM      4  C   UNL A   1     -24.584   3.562  26.463  0.00  0.00    +0.002 A 
ATOM      5  C   UNL A   1     -25.820   3.721  25.851  0.00  0.00    +0.000 A 
ATOM      6  C   UNL A   1     -26.764   2.700  25.983  0.00  0.00    +0.003 A 
ATOM      7  C   UNL A   1     -22.921   2.326  27.827  0.00  0.00    +0.099 A 
ATOM      8  N   UNL A   1     -22.876   1.734  29.019  0.00  0.00    -0.242 NA
ATOM      9  C   UNL A   1     -23.551   0.593  29.322  0.00  0.00    +0.099 A 
ATOM     10  C   UNL A   1     -24.980   0.644  28.654  0.00  0.00    +0.021 A 
ENDROOT
BRANCH   1  11
ATOM     11  C   UNL A   1     -27.459   0.493  26.770  0.00  0.00    +0.196 C 
ATOM     12  O   UNL A   1     -27.681  -0.198  25.817  0.00  0.00    -0.287 OA
BRANCH  11  15
ATOM     13  C   UNL A   1     -28.016  -0.814  28.878  0.00  0.00    +0.003 A 
ATOM     14  C   UNL A   1     -28.469  -0.785  29.829  0.00  0.00    +0.000 A 
ATOM     15  C   UNL A   1     -28.182   0.428  28.113  0.00  0.00    +0.039 A 
ATOM     16  C   UNL A   1     -28.984   1.415  28.515  0.00  0.00    +0.003 A 
ATOM     17  C   UNL A   1     -29.380   0.138  30.461  0.00  0.00    +0.000 A 
ATOM     18  C   UNL A   1     -29.541   1.274  29.724  0.00  0.00    +0.000 A 
ENDBRANCH  11  15
ENDBRANCH   1  11
TORSDOF 2
