REMARK  Name = No_1549-gen_results/8p0m/2024-11-26-14-13-15/
REMARK  3 active torsions:
REMARK  status: ('A' for Active; 'I' for Inactive)
REMARK    1  A    between atoms: C_1  and  C_2
REMARK    2  A    between atoms: C_5  and  C_10
REMARK    3  A    between atoms: N_8  and  C_9
REMARK                            x       y       z     vdW  Elec       q    Type
REMARK                         _______ _______ _______ _____ _____    ______ ____
ROOT
ATOM      1  C   UNL A   1     -27.064  -0.119  28.608  0.00  0.00    +0.019 A 
ATOM      2  C   UNL A   1     -27.001   0.691  27.491  0.00  0.00    +0.002 A 
ATOM      3  C   UNL A   1     -25.855   1.482  27.083  0.00  0.00    +0.008 A 
ATOM      4  C   UNL A   1     -24.901   1.389  27.592  0.00  0.00    +0.098 A 
ATOM      5  C   UNL A   1     -24.678   0.576  28.830  0.00  0.00    +0.008 A 
ATOM      6  C   UNL A   1     -25.770  -0.205  29.280  0.00  0.00    +0.002 A 
ENDROOT
BRANCH   4   7
ATOM      7  C   UNL A   1     -23.579   2.187  27.320  0.00  0.00    +0.477 C 
ATOM      8  N   UNL A   1     -22.616   2.275  28.156  0.00  0.00    +0.205 NA
ATOM      9  N   UNL A   1     -23.508   2.809  26.103  0.00  0.00    +0.205 NA
ENDBRANCH   4   7
BRANCH   1  10
ATOM     10  C   UNL A   1     -28.016  -0.814  28.878  0.00  0.00    +0.099 C 
ATOM     11  N   UNL A   1     -27.887  -1.555  30.033  0.00  0.00    -0.244 NA
BRANCH  11  12
ATOM     12  C   UNL A   1     -28.992  -2.386  30.463  0.00  0.00    +0.081 A 
ATOM     13  C   UNL A   1     -28.659  -3.508  31.304  0.00  0.00    +0.019 A 
ATOM     14  C   UNL A   1     -29.586  -3.814  32.175  0.00  0.00    +0.002 A 
ATOM     15  C   UNL A   1     -30.911  -3.322  32.154  0.00  0.00    +0.000 A 
ATOM     16  C   UNL A   1     -30.274  -1.869  30.597  0.00  0.00    +0.019 A 
ATOM     17  C   UNL A   1     -31.154  -2.283  31.426  0.00  0.00    +0.002 A 
ENDBRANCH  11  12
ENDBRANCH   1  10
TORSDOF 3
