MODEL 1549
MODEL 1
REMARK VINA RESULT:    -6.127      0.000      0.000
REMARK INTER + INTRA:          -7.592
REMARK INTER:                  -7.202
REMARK INTRA:                  -0.391
REMARK UNBOUND:                -0.391
REMARK  Name = No_1549-gen_results/8p0m/2024-11-26-14-13-15/
REMARK  3 active torsions:
REMARK  status: ('A' for Active; 'I' for Inactive)
REMARK    1  A    between atoms: C_1  and  C_2
REMARK    2  A    between atoms: C_5  and  C_10
REMARK    3  A    between atoms: N_8  and  C_9
REMARK                            x       y       z     vdW  Elec       q    Type
REMARK                         _______ _______ _______ _____ _____    ______ ____
ROOT
ATOM      1  C   UNL A   1     -24.968   0.799  26.259  0.00  0.00    +0.019 A 
ATOM      2  C   UNL A   1     -25.176  -0.285  27.089  0.00  0.00    +0.002 A 
ATOM      3  C   UNL A   1     -24.263  -0.753  28.114  0.00  0.00    +0.008 A 
ATOM      4  C   UNL A   1     -23.376  -0.185  28.376  0.00  0.00    +0.098 A 
ATOM      5  C   UNL A   1     -22.908   1.037  27.646  0.00  0.00    +0.008 A 
ATOM      6  C   UNL A   1     -23.757   1.529  26.625  0.00  0.00    +0.002 A 
ENDROOT
BRANCH   4   7
ATOM      7  C   UNL A   1     -22.263  -0.555  29.417  0.00  0.00    +0.477 C 
ATOM      8  N   UNL A   1     -22.449  -0.570  30.682  0.00  0.00    +0.205 NA
ATOM      9  N   UNL A   1     -21.041  -0.866  28.885  0.00  0.00    +0.205 NA
ENDBRANCH   4   7
BRANCH   1  10
ATOM     10  C   UNL A   1     -25.784   1.198  25.460  0.00  0.00    +0.099 C 
ATOM     11  N   UNL A   1     -26.650   0.237  24.984  0.00  0.00    -0.244 NA
BRANCH  11  12
ATOM     12  C   UNL A   1     -27.690   0.625  24.055  0.00  0.00    +0.081 A 
ATOM     13  C   UNL A   1     -28.692  -0.369  23.764  0.00  0.00    +0.019 A 
ATOM     14  C   UNL A   1     -29.878   0.125  23.521  0.00  0.00    +0.002 A 
ATOM     15  C   UNL A   1     -30.151   1.490  23.271  0.00  0.00    +0.000 A 
ATOM     16  C   UNL A   1     -28.075   1.953  23.918  0.00  0.00    +0.019 A 
ATOM     17  C   UNL A   1     -29.246   2.352  23.595  0.00  0.00    +0.002 A 
ENDBRANCH  11  12
ENDBRANCH   1  10
TORSDOF 3
ENDMDL
ENDMDL
