MODEL 154
MODEL 1
REMARK VINA RESULT:    -6.724      0.000      0.000
REMARK INTER + INTRA:          -7.880
REMARK INTER:                  -7.510
REMARK INTRA:                  -0.370
REMARK UNBOUND:                -0.370
REMARK  Name = No_154-gen_results/8p0m/2024-11-26-14-13-15/
REMARK  2 active torsions:
REMARK  status: ('A' for Active; 'I' for Inactive)
REMARK    1  A    between atoms: C_1  and  C_3
REMARK    2  A    between atoms: C_3  and  C_4
REMARK                            x       y       z     vdW  Elec       q    Type
REMARK                         _______ _______ _______ _____ _____    ______ ____
ROOT
ATOM      1  C   UNL A   1     -24.612  -1.190  29.718  0.00  0.00    +0.196 C 
ATOM      2  O   UNL A   1     -25.230  -0.552  30.598  0.00  0.00    -0.287 OA
ENDROOT
BRANCH   1   3
ATOM      3  C   UNL A   1     -24.679  -2.611  29.527  0.00  0.00    +0.039 A 
ATOM      4  C   UNL A   1     -23.949  -3.030  28.893  0.00  0.00    +0.003 A 
ATOM      5  C   UNL A   1     -23.969  -4.549  28.487  0.00  0.00    +0.000 A 
ATOM      6  C   UNL A   1     -25.012  -5.263  29.068  0.00  0.00    +0.000 A 
ATOM      7  C   UNL A   1     -26.091  -4.629  29.598  0.00  0.00    +0.000 A 
ATOM      8  C   UNL A   1     -26.032  -3.245  29.705  0.00  0.00    +0.003 A 
ENDBRANCH   1   3
BRANCH   1   9
ATOM      9  C   UNL A   1     -24.050  -0.309  28.674  0.00  0.00    +0.039 A 
ATOM     10  C   UNL A   1     -24.737   0.042  27.569  0.00  0.00    +0.003 A 
ATOM     11  C   UNL A   1     -22.782   0.354  28.824  0.00  0.00    +0.003 A 
ATOM     12  C   UNL A   1     -22.403   1.282  27.819  0.00  0.00    +0.000 A 
ATOM     13  C   UNL A   1     -24.296   0.852  26.504  0.00  0.00    +0.000 A 
ATOM     14  C   UNL A   1     -23.089   1.492  26.737  0.00  0.00    +0.000 A 
ENDBRANCH   1   9
TORSDOF 2
ENDMDL
ENDMDL
