REMARK  Name = No_155-gen_results/8p0m/2024-11-26-14-13-15/
REMARK  5 active torsions:
REMARK  status: ('A' for Active; 'I' for Inactive)
REMARK    1  A    between atoms: C_1  and  C_6
REMARK    2  A    between atoms: C_3  and  C_13
REMARK    3  A    between atoms: C_5  and  C_10
REMARK    4  A    between atoms: C_6  and  O_9
REMARK    5  A    between atoms: O_9  and  C_17
REMARK                            x       y       z     vdW  Elec       q    Type
REMARK                         _______ _______ _______ _____ _____    ______ ____
ROOT
ATOM      1  C   UNL A   1     -28.016  -0.814  28.878  0.00  0.00    +0.076 A 
ATOM      2  C   UNL A   1     -27.064  -0.119  28.608  0.00  0.00    +0.010 A 
ATOM      3  C   UNL A   1     -26.972   0.714  27.506  0.00  0.00    +0.072 A 
ATOM      4  C   UNL A   1     -28.105   0.774  26.642  0.00  0.00    +0.010 A 
ATOM      5  C   UNL A   1     -29.201   0.104  27.053  0.00  0.00    +0.080 A 
ATOM      6  C   UNL A   1     -29.164  -0.639  28.148  0.00  0.00    +0.013 A 
ENDROOT
BRANCH   3   7
ATOM      7  C   UNL A   1     -25.708   1.453  27.124  0.00  0.00    +0.419 C 
ATOM      8  F   UNL A   1     -24.721   0.862  27.441  0.00  0.00    -0.166 F 
ATOM      9  F   UNL A   1     -25.686   1.693  25.770  0.00  0.00    -0.166 F 
ATOM     10  F   UNL A   1     -25.794   2.701  27.653  0.00  0.00    -0.166 F 
ENDBRANCH   3   7
BRANCH   5  11
ATOM     11  C   UNL A   1     -30.389   0.198  26.179  0.00  0.00    +0.388 C 
ATOM     12  O   UNL A   1     -31.049   0.994  26.201  0.00  0.00    -0.241 OA
ATOM     13  O   UNL A   1     -30.664  -0.908  25.466  0.00  0.00    -0.241 OA
ENDBRANCH   5  11
BRANCH   1  14
ATOM     14  C   UNL A   1     -28.022  -1.590  30.088  0.00  0.00    +0.346 C 
ATOM     15  O   UNL A   1     -28.825  -1.891  30.710  0.00  0.00    -0.244 OA
BRANCH  14  16
ATOM     16  O   UNL A   1     -26.843  -2.449  30.149  0.00  0.00    -0.421 OA
BRANCH  16  17
ATOM     17  C   UNL A   1     -25.629  -1.823  30.185  0.00  0.00    +0.149 A 
ATOM     18  C   UNL A   1     -25.219  -0.979  31.148  0.00  0.00    +0.038 A 
ATOM     19  C   UNL A   1     -23.933  -0.415  31.113  0.00  0.00    +0.003 A 
ATOM     20  C   UNL A   1     -23.017  -0.746  30.061  0.00  0.00    +0.000 A 
ATOM     21  C   UNL A   1     -24.639  -2.439  29.284  0.00  0.00    +0.038 A 
ATOM     22  C   UNL A   1     -23.340  -1.788  29.242  0.00  0.00    +0.003 A 
ENDBRANCH  16  17
ENDBRANCH  14  16
ENDBRANCH   1  14
TORSDOF 5
