MODEL 1550
MODEL 1
REMARK VINA RESULT:    -4.156      0.000      0.000
REMARK INTER + INTRA:          -4.156
REMARK INTER:                  -4.156
REMARK INTRA:                   0.000
REMARK UNBOUND:                 0.000
REMARK  Name = No_1550-gen_results/8p0m/2024-11-26-14-13-15/
REMARK  0 active torsions:
REMARK  status: ('A' for Active; 'I' for Inactive)
REMARK                            x       y       z     vdW  Elec       q    Type
REMARK                         _______ _______ _______ _____ _____    ______ ____
ROOT
ATOM      1  C   UNL A   1      -7.880 -10.056  19.705  0.00  0.00    +0.000 A 
ATOM      2  C   UNL A   1      -8.487  -9.460  20.326  0.00  0.00    +0.000 A 
ATOM      3  C   UNL A   1      -8.504 -10.382  18.416  0.00  0.00    +0.000 A 
ATOM      4  C   UNL A   1      -9.780 -10.103  18.148  0.00  0.00    +0.000 A 
ATOM      5  C   UNL A   1      -9.871  -9.059  20.264  0.00  0.00    +0.000 A 
ATOM      6  C   UNL A   1     -10.440  -9.392  19.070  0.00  0.00    +0.000 A 
ENDROOT
TORSDOF 0
ENDMDL
ENDMDL
