MODEL 1551
MODEL 1
REMARK VINA RESULT:    -4.584      0.000      0.000
REMARK INTER + INTRA:          -4.584
REMARK INTER:                  -4.584
REMARK INTRA:                   0.000
REMARK UNBOUND:                 0.000
REMARK  Name = No_1551-gen_results/8p0m/2024-11-26-14-13-15/
REMARK  0 active torsions:
REMARK  status: ('A' for Active; 'I' for Inactive)
REMARK                            x       y       z     vdW  Elec       q    Type
REMARK                         _______ _______ _______ _____ _____    ______ ____
ROOT
ATOM      1  C   UNL A   1      -9.388  -9.174  20.246  0.00  0.00    +0.030 A 
ATOM      2  C   UNL A   1     -10.261  -9.143  19.410  0.00  0.00    +0.002 A 
ATOM      3  C   UNL A   1     -10.149  -9.868  18.228  0.00  0.00    +0.000 A 
ATOM      4  C   UNL A   1      -8.969 -10.644  17.943  0.00  0.00    +0.002 A 
ATOM      5  C   UNL A   1      -8.000 -10.604  18.954  0.00  0.00    +0.030 A 
ATOM      6  C   UNL A   1      -8.147  -9.889  20.046  0.00  0.00    +0.140 A 
ATOM      7  F   UNL A   1      -7.188  -9.901  20.953  0.00  0.00    -0.204 F 
ENDROOT
TORSDOF 0
ENDMDL
ENDMDL
