REMARK  Name = No_1552-gen_results/8p0m/2024-11-26-14-13-15/
REMARK  2 active torsions:
REMARK  status: ('A' for Active; 'I' for Inactive)
REMARK    1  A    between atoms: C_3  and  C_7
REMARK    2  A    between atoms: C_7  and  C_10
REMARK                            x       y       z     vdW  Elec       q    Type
REMARK                         _______ _______ _______ _____ _____    ______ ____
ROOT
ATOM      1  C   UNL A   1     -27.543   0.522  26.683  0.00  0.00    -0.004 C 
ATOM      2  C   UNL A   1     -28.145   0.458  25.533  0.00  0.00    -0.026 C 
ATOM      3  C   UNL A   1     -27.400   0.457  24.339  0.00  0.00    +0.031 C 
ENDROOT
BRANCH   1   6
ATOM      4  C   UNL A   1     -28.016  -0.814  28.878  0.00  0.00    -0.000 A 
ATOM      5  C   UNL A   1     -28.469  -0.785  29.829  0.00  0.00    -0.000 A 
ATOM      6  C   UNL A   1     -28.196   0.348  28.055  0.00  0.00    -0.000 A 
ATOM      7  C   UNL A   1     -29.019   1.350  28.378  0.00  0.00    -0.000 A 
ATOM      8  C   UNL A   1     -29.411   0.180  30.378  0.00  0.00    -0.000 A 
ATOM      9  C   UNL A   1     -29.606   1.250  29.619  0.00  0.00    -0.000 A 
ENDBRANCH   1   6
BRANCH   1  10
ATOM     10  C   UNL A   1     -26.100   0.497  26.695  0.00  0.00    -0.000 A 
ATOM     11  C   UNL A   1     -25.286   0.511  27.963  0.00  0.00    -0.000 A 
ATOM     12  C   UNL A   1     -23.918   0.621  27.903  0.00  0.00    -0.000 A 
ATOM     13  C   UNL A   1     -23.366   1.230  26.721  0.00  0.00    -0.000 A 
ATOM     14  C   UNL A   1     -24.156   1.442  25.611  0.00  0.00    -0.000 A 
ATOM     15  C   UNL A   1     -25.498   1.153  25.598  0.00  0.00    -0.000 A 
ENDBRANCH   1  10
TORSDOF 2
