MODEL 1552
MODEL 1
REMARK VINA RESULT:    -6.773      0.000      0.000
REMARK INTER + INTRA:          -8.300
REMARK INTER:                  -7.565
REMARK INTRA:                  -0.736
REMARK UNBOUND:                -0.736
REMARK  Name = No_1552-gen_results/8p0m/2024-11-26-14-13-15/
REMARK  2 active torsions:
REMARK  status: ('A' for Active; 'I' for Inactive)
REMARK    1  A    between atoms: C_3  and  C_7
REMARK    2  A    between atoms: C_7  and  C_10
REMARK                            x       y       z     vdW  Elec       q    Type
REMARK                         _______ _______ _______ _____ _____    ______ ____
ROOT
ATOM      1  C   UNL A   1     -24.198  -0.955  29.711  0.00  0.00    -0.004 C 
ATOM      2  C   UNL A   1     -23.628  -0.444  30.762  0.00  0.00    -0.026 C 
ATOM      3  C   UNL A   1     -23.423  -1.229  31.912  0.00  0.00    +0.031 C 
ENDROOT
BRANCH   1   6
ATOM      4  C   UNL A   1     -25.352  -0.611  27.393  0.00  0.00    -0.000 A 
ATOM      5  C   UNL A   1     -25.365  -0.039  26.508  0.00  0.00    -0.000 A 
ATOM      6  C   UNL A   1     -24.321  -0.292  28.338  0.00  0.00    -0.000 A 
ATOM      7  C   UNL A   1     -23.324   0.557  28.071  0.00  0.00    -0.000 A 
ATOM      8  C   UNL A   1     -24.383   0.911  26.004  0.00  0.00    -0.000 A 
ATOM      9  C   UNL A   1     -23.410   1.200  26.858  0.00  0.00    -0.000 A 
ENDBRANCH   1   6
BRANCH   1  10
ATOM     10  C   UNL A   1     -24.522  -2.361  29.732  0.00  0.00    -0.000 A 
ATOM     11  C   UNL A   1     -23.852  -3.375  28.841  0.00  0.00    -0.000 A 
ATOM     12  C   UNL A   1     -24.299  -4.673  28.815  0.00  0.00    -0.000 A 
ATOM     13  C   UNL A   1     -25.665  -4.898  29.213  0.00  0.00    -0.000 A 
ATOM     14  C   UNL A   1     -26.385  -3.899  29.832  0.00  0.00    -0.000 A 
ATOM     15  C   UNL A   1     -25.873  -2.642  30.036  0.00  0.00    -0.000 A 
ENDBRANCH   1  10
TORSDOF 2
ENDMDL
ENDMDL
