MODEL 1553
MODEL 1
REMARK VINA RESULT:    -6.009      0.000      0.000
REMARK INTER + INTRA:          -6.938
REMARK INTER:                  -6.712
REMARK INTRA:                  -0.226
REMARK UNBOUND:                -0.226
REMARK  Name = No_1553-gen_results/8p0m/2024-11-26-14-13-15/
REMARK  2 active torsions:
REMARK  status: ('A' for Active; 'I' for Inactive)
REMARK    1  A    between atoms: C_2  and  C_7
REMARK    2  A    between atoms: C_5  and  C_11
REMARK                            x       y       z     vdW  Elec       q    Type
REMARK                         _______ _______ _______ _____ _____    ______ ____
ROOT
ATOM      1  C   UNL A   1     -28.411 -11.859  31.080  0.00  0.00    +0.010 A 
ATOM      2  C   UNL A   1     -29.171 -11.210  30.400  0.00  0.00    +0.072 A 
ATOM      3  C   UNL A   1     -29.894 -10.188  30.760  0.00  0.00    +0.004 A 
ATOM      4  C   UNL A   1     -29.816  -9.757  32.119  0.00  0.00    +0.000 A 
ATOM      5  C   UNL A   1     -28.191 -11.409  32.443  0.00  0.00    +0.080 A 
ATOM      6  C   UNL A   1     -28.906 -10.380  32.898  0.00  0.00    +0.007 A 
ENDROOT
BRANCH   2   7
ATOM      7  C   UNL A   1     -29.369 -11.570  28.900  0.00  0.00    +0.419 C 
ATOM      8  F   UNL A   1     -28.406 -11.875  28.331  0.00  0.00    -0.166 F 
ATOM      9  F   UNL A   1     -30.330 -12.599  28.754  0.00  0.00    -0.166 F 
ATOM     10  F   UNL A   1     -30.027 -10.542  28.107  0.00  0.00    -0.166 F 
ENDBRANCH   2   7
BRANCH   5  11
ATOM     11  C   UNL A   1     -27.151 -12.133  33.250  0.00  0.00    +0.388 C 
ATOM     12  O   UNL A   1     -27.170 -12.338  34.403  0.00  0.00    -0.241 OA
ATOM     13  O   UNL A   1     -26.397 -12.872  32.515  0.00  0.00    -0.241 OA
ENDBRANCH   5  11
TORSDOF 2
ENDMDL
ENDMDL
