REMARK  Name = No_1553-gen_results/8p0m/2024-11-26-14-13-15/
REMARK  2 active torsions:
REMARK  status: ('A' for Active; 'I' for Inactive)
REMARK    1  A    between atoms: C_2  and  C_7
REMARK    2  A    between atoms: C_5  and  C_11
REMARK                            x       y       z     vdW  Elec       q    Type
REMARK                         _______ _______ _______ _____ _____    ______ ____
ROOT
ATOM      1  C   UNL A   1     -28.016  -0.814  28.878  0.00  0.00    +0.010 A 
ATOM      2  C   UNL A   1     -27.064  -0.119  28.608  0.00  0.00    +0.072 A 
ATOM      3  C   UNL A   1     -26.876   1.133  28.913  0.00  0.00    +0.004 A 
ATOM      4  C   UNL A   1     -27.901   1.807  29.644  0.00  0.00    +0.000 A 
ATOM      5  C   UNL A   1     -29.046  -0.232  29.718  0.00  0.00    +0.080 A 
ATOM      6  C   UNL A   1     -28.940   1.052  30.060  0.00  0.00    +0.007 A 
ENDROOT
BRANCH   2   7
ATOM      7  C   UNL A   1     -25.873  -0.713  27.805  0.00  0.00    +0.419 C 
ATOM      8  F   UNL A   1     -25.591  -1.806  28.069  0.00  0.00    -0.166 F 
ATOM      9  F   UNL A   1     -26.116  -0.629  26.412  0.00  0.00    -0.166 F 
ATOM     10  F   UNL A   1     -24.647   0.070  27.860  0.00  0.00    -0.166 F 
ENDBRANCH   2   7
BRANCH   5  11
ATOM     11  C   UNL A   1     -30.165  -1.131  30.162  0.00  0.00    +0.388 C 
ATOM     12  O   UNL A   1     -30.069  -2.135  30.757  0.00  0.00    -0.241 OA
ATOM     13  O   UNL A   1     -31.297  -0.520  30.182  0.00  0.00    -0.241 OA
ENDBRANCH   5  11
TORSDOF 2
