MODEL 1554
MODEL 1
REMARK VINA RESULT:    -9.059      0.000      0.000
REMARK INTER + INTRA:         -13.074
REMARK INTER:                 -11.707
REMARK INTRA:                  -1.367
REMARK UNBOUND:                -1.367
REMARK  Name = No_1554-gen_results/8p0m/2024-11-26-14-13-15/
REMARK  5 active torsions:
REMARK  status: ('A' for Active; 'I' for Inactive)
REMARK    1  A    between atoms: C_1  and  C_2
REMARK    2  A    between atoms: N_8  and  C_10
REMARK    3  A    between atoms: C_18  and  C_20
REMARK    4  A    between atoms: N_27  and  C_28
REMARK    5  A    between atoms: N_27  and  C_29
REMARK                            x       y       z     vdW  Elec       q    Type
REMARK                         _______ _______ _______ _____ _____    ______ ____
ROOT
ATOM      1  C   UNL A   1     -26.159   0.784  26.261  0.00  0.00    +0.054 A 
ATOM      2  C   UNL A   1     -25.749  -0.098  27.208  0.00  0.00    +0.007 A 
ATOM      3  C   UNL A   1     -24.426  -0.065  27.870  0.00  0.00    +0.032 A 
ATOM      4  C   UNL A   1     -23.517   0.963  27.454  0.00  0.00    +0.000 A 
ATOM      5  C   UNL A   1     -23.954   1.815  26.416  0.00  0.00    -0.000 A 
ATOM      6  C   UNL A   1     -25.199   1.726  25.848  0.00  0.00    +0.004 A 
ATOM      7  C   UNL A   1     -22.205   1.085  27.998  0.00  0.00    -0.003 A 
ATOM      8  C   UNL A   1     -21.053   1.426  27.341  0.00  0.00    +0.033 C 
ATOM      9  C   UNL A   1     -21.953   0.130  28.931  0.00  0.00    +0.096 A 
ATOM     10  N   UNL A   1     -22.953  -0.339  29.604  0.00  0.00    -0.229 NA
ATOM     11  C   UNL A   1     -24.144  -0.576  29.066  0.00  0.00    +0.139 A 
ATOM     12  N   UNL A   1     -25.006  -1.356  29.797  0.00  0.00    -0.250 N 
ENDROOT
BRANCH  12  13
ATOM     13  C   UNL A   1     -25.041  -2.785  29.603  0.00  0.00    +0.057 A 
ATOM     14  C   UNL A   1     -25.990  -3.424  29.943  0.00  0.00    +0.015 A 
ATOM     15  C   UNL A   1     -26.127  -4.789  29.589  0.00  0.00    +0.001 A 
ATOM     16  C   UNL A   1     -25.059  -5.453  28.937  0.00  0.00    +0.000 A 
ATOM     17  C   UNL A   1     -23.916  -4.684  28.544  0.00  0.00    +0.001 A 
ATOM     18  C   UNL A   1     -23.898  -3.393  28.823  0.00  0.00    +0.015 A 
ENDBRANCH  12  13
BRANCH   1  19
ATOM     19  C   UNL A   1     -27.243   0.745  25.726  0.00  0.00    +0.251 C 
ATOM     20  N   UNL A   1     -28.203   1.805  25.983  0.00  0.00    -0.246 N 
ATOM     21  O   UNL A   1     -27.377   0.322  24.522  0.00  0.00    -0.270 OA
ATOM     22  C   UNL A   1     -28.364   2.056  27.477  0.00  0.00    +0.118 C 
BRANCH  20  23
ATOM     23  C   UNL A   1     -29.506   1.962  25.415  0.00  0.00    +0.247 C 
ATOM     24  C   UNL A   1     -29.510   2.765  24.333  0.00  0.00    +0.028 C 
ATOM     25  C   UNL A   1     -29.852   2.594  23.278  0.00  0.00    -0.000 C 
ATOM     26  C   UNL A   1     -30.325   1.237  22.938  0.00  0.00    +0.005 C 
ATOM     27  C   UNL A   1     -30.912   0.555  23.930  0.00  0.00    +0.092 C 
ATOM     28  F   UNL A   1     -30.365   2.292  26.475  0.00  0.00    -0.212 F 
ATOM     29  C   UNL A   1     -30.495   0.892  25.256  0.00  0.00    +0.232 C 
ATOM     30  O   UNL A   1     -31.059   0.216  26.229  0.00  0.00    -0.213 OA
BRANCH  27  31
ATOM     31  C   UNL A   1     -31.509  -0.724  23.774  0.00  0.00    +0.386 C 
ATOM     32  O   UNL A   1     -30.867  -1.601  23.412  0.00  0.00    -0.241 OA
ATOM     33  O   UNL A   1     -32.911  -0.879  23.643  0.00  0.00    -0.241 OA
ENDBRANCH  27  31
ENDBRANCH  20  23
ENDBRANCH   1  19
BRANCH  12  34
ATOM     34  C   UNL A   1     -25.981  -0.779  30.563  0.00  0.00    +0.071 C 
ATOM     35  C   UNL A   1     -25.786  -0.232  31.640  0.00  0.00    +0.018 C 
ENDBRANCH  12  34
TORSDOF 5
ENDMDL
ENDMDL
