MODEL 1555
MODEL 1
REMARK VINA RESULT:    -5.032      0.000      0.000
REMARK INTER + INTRA:          -5.032
REMARK INTER:                  -5.032
REMARK INTRA:                   0.000
REMARK UNBOUND:                 0.000
REMARK  Name = No_1555-gen_results/8p0m/2024-11-26-14-13-15/
REMARK  0 active torsions:
REMARK  status: ('A' for Active; 'I' for Inactive)
REMARK                            x       y       z     vdW  Elec       q    Type
REMARK                         _______ _______ _______ _____ _____    ______ ____
ROOT
ATOM      1  C   UNL A   1     -25.269  -5.321  29.155  0.00  0.00    +0.002 A 
ATOM      2  C   UNL A   1     -24.207  -4.863  28.800  0.00  0.00    +0.000 A 
ATOM      3  C   UNL A   1     -23.932  -3.515  28.643  0.00  0.00    +0.002 A 
ATOM      4  C   UNL A   1     -24.980  -2.599  28.955  0.00  0.00    +0.018 A 
ATOM      5  C   UNL A   1     -26.096  -3.134  29.489  0.00  0.00    +0.081 A 
ATOM      6  C   UNL A   1     -26.225  -4.449  29.680  0.00  0.00    +0.019 A 
ATOM      7  N   UNL A   1     -26.987  -2.044  29.742  0.00  0.00    -0.244 NA
ATOM      8  C   UNL A   1     -26.988  -0.931  29.223  0.00  0.00    +0.099 A 
ATOM      9  C   UNL A   1     -25.737  -0.387  28.733  0.00  0.00    +0.021 A 
ATOM     10  C   UNL A   1     -24.701  -1.256  28.566  0.00  0.00    +0.003 A 
ENDROOT
TORSDOF 0
ENDMDL
ENDMDL
