REMARK  Name = No_1555-gen_results/8p0m/2024-11-26-14-13-15/
REMARK  0 active torsions:
REMARK  status: ('A' for Active; 'I' for Inactive)
REMARK                            x       y       z     vdW  Elec       q    Type
REMARK                         _______ _______ _______ _____ _____    ______ ____
ROOT
ATOM      1  C   UNL A   1     -28.016  -0.814  28.878  0.00  0.00    +0.002 A 
ATOM      2  C   UNL A   1     -27.064  -0.119  28.608  0.00  0.00    +0.000 A 
ATOM      3  C   UNL A   1     -26.972   0.714  27.506  0.00  0.00    +0.002 A 
ATOM      4  C   UNL A   1     -28.105   0.774  26.642  0.00  0.00    +0.018 A 
ATOM      5  C   UNL A   1     -29.201   0.104  27.053  0.00  0.00    +0.081 A 
ATOM      6  C   UNL A   1     -29.210  -0.603  28.185  0.00  0.00    +0.019 A 
ATOM      7  N   UNL A   1     -30.206   0.322  26.059  0.00  0.00    -0.244 NA
ATOM      8  C   UNL A   1     -30.052   0.652  24.886  0.00  0.00    +0.099 A 
ATOM      9  C   UNL A   1     -28.885   1.433  24.527  0.00  0.00    +0.021 A 
ATOM     10  C   UNL A   1     -27.861   1.475  25.425  0.00  0.00    +0.003 A 
ENDROOT
TORSDOF 0
