MODEL 1556
MODEL 1
REMARK VINA RESULT:    -6.865      0.000      0.000
REMARK INTER + INTRA:          -6.865
REMARK INTER:                  -6.865
REMARK INTRA:                   0.000
REMARK UNBOUND:                 0.000
REMARK  Name = No_1556-gen_results/8p0m/2024-11-26-14-13-15/
REMARK  0 active torsions:
REMARK  status: ('A' for Active; 'I' for Inactive)
REMARK                            x       y       z     vdW  Elec       q    Type
REMARK                         _______ _______ _______ _____ _____    ______ ____
ROOT
ATOM      1  C   UNL A   1     -23.123  -0.971  29.338  0.00  0.00    +0.082 A 
ATOM      2  C   UNL A   1     -22.240  -0.281  28.883  0.00  0.00    +0.073 A 
ATOM      3  C   UNL A   1     -22.503   0.999  28.406  0.00  0.00    +0.013 A 
ATOM      4  C   UNL A   1     -23.844   1.525  28.396  0.00  0.00    +0.001 A 
ATOM      5  C   UNL A   1     -24.806   0.651  28.918  0.00  0.00    +0.006 A 
ATOM      6  C   UNL A   1     -24.508  -0.556  29.341  0.00  0.00    +0.069 A 
ATOM      7 CL   UNL A   1     -20.601  -0.763  28.772  0.00  0.00    -0.081 Cl
ATOM      8  C   UNL A   1     -25.630  -1.397  29.818  0.00  0.00    +0.251 C 
ATOM      9  O   UNL A   1     -26.572  -0.976  30.478  0.00  0.00    -0.270 OA
ATOM     10  N   UNL A   1     -25.605  -2.708  29.474  0.00  0.00    -0.260 N 
ATOM     11  C   UNL A   1     -26.414  -3.638  29.783  0.00  0.00    +0.095 C 
ATOM     12  C   UNL A   1     -26.051  -4.834  29.661  0.00  0.00    +0.022 C 
ATOM     13  C   UNL A   1     -24.818  -5.095  28.994  0.00  0.00    +0.005 C 
ATOM     14  C   UNL A   1     -23.916  -4.169  28.643  0.00  0.00    +0.042 C 
ATOM     15  C   UNL A   1     -24.282  -2.961  28.888  0.00  0.00    +0.169 C 
ATOM     16  N   UNL A   1     -23.294  -2.057  28.850  0.00  0.00    -0.218 NA
ENDROOT
TORSDOF 0
ENDMDL
ENDMDL
