REMARK  Name = No_1556-gen_results/8p0m/2024-11-26-14-13-15/
REMARK  0 active torsions:
REMARK  status: ('A' for Active; 'I' for Inactive)
REMARK                            x       y       z     vdW  Elec       q    Type
REMARK                         _______ _______ _______ _____ _____    ______ ____
ROOT
ATOM      1  C   UNL A   1     -28.016  -0.814  28.878  0.00  0.00    +0.082 A 
ATOM      2  C   UNL A   1     -27.064  -0.119  28.608  0.00  0.00    +0.073 A 
ATOM      3  C   UNL A   1     -25.792  -0.430  29.076  0.00  0.00    +0.013 A 
ATOM      4  C   UNL A   1     -25.576  -1.565  29.936  0.00  0.00    +0.001 A 
ATOM      5  C   UNL A   1     -26.735  -2.300  30.217  0.00  0.00    +0.006 A 
ATOM      6  C   UNL A   1     -27.918  -1.954  29.763  0.00  0.00    +0.069 A 
ATOM      7 CL   UNL A   1     -27.146   1.292  27.641  0.00  0.00    -0.081 Cl
ATOM      8  C   UNL A   1     -29.068  -2.788  30.181  0.00  0.00    +0.251 C 
ATOM      9  O   UNL A   1     -29.032  -4.008  30.280  0.00  0.00    -0.270 OA
ATOM     10  N   UNL A   1     -30.218  -2.139  30.489  0.00  0.00    -0.260 N 
ATOM     11  C   UNL A   1     -31.345  -2.615  30.833  0.00  0.00    +0.095 C 
ATOM     12  C   UNL A   1     -32.369  -1.893  30.746  0.00  0.00    +0.022 C 
ATOM     13  C   UNL A   1     -32.190  -0.509  30.454  0.00  0.00    +0.005 C 
ATOM     14  C   UNL A   1     -31.037   0.061  30.081  0.00  0.00    +0.042 C 
ATOM     15  C   UNL A   1     -30.032  -0.742  30.076  0.00  0.00    +0.169 C 
ATOM     16  N   UNL A   1     -28.959  -0.292  29.412  0.00  0.00    -0.218 NA
ENDROOT
TORSDOF 0
