MODEL 1557
MODEL 1
REMARK VINA RESULT:    -7.219      0.000      0.000
REMARK INTER + INTRA:          -9.732
REMARK INTER:                  -9.329
REMARK INTRA:                  -0.403
REMARK UNBOUND:                -0.403
REMARK  Name = No_1557-gen_results/8p0m/2024-11-26-14-13-15/
REMARK  5 active torsions:
REMARK  status: ('A' for Active; 'I' for Inactive)
REMARK    1  A    between atoms: C_1  and  C_2
REMARK    2  A    between atoms: C_1  and  N_8
REMARK    3  A    between atoms: C_5  and  C_12
REMARK    4  A    between atoms: C_9  and  C_11
REMARK    5  A    between atoms: C_11  and  C_15
REMARK                            x       y       z     vdW  Elec       q    Type
REMARK                         _______ _______ _______ _____ _____    ______ ____
ROOT
ATOM      1  C   UNL A   1     -23.444  -2.689  28.967  0.00  0.00    +0.122 C 
ENDROOT
BRANCH   1   2
ATOM      2  C   UNL A   1     -24.522  -3.103  29.325  0.00  0.00    +0.079 C 
ATOM      3  C   UNL A   1     -25.527  -2.232  29.733  0.00  0.00    +0.010 C 
ATOM      4  C   UNL A   1     -26.888  -2.618  30.204  0.00  0.00    +0.012 C 
ATOM      5  C   UNL A   1     -27.226  -3.997  30.073  0.00  0.00    +0.111 C 
ATOM      6  C   UNL A   1     -26.212  -4.854  29.600  0.00  0.00    +0.076 C 
ATOM      7  C   UNL A   1     -24.984  -4.453  29.240  0.00  0.00    +0.152 C 
ATOM      8  O   UNL A   1     -24.071  -5.362  28.865  0.00  0.00    -0.296 OA
BRANCH   5   9
ATOM      9  C   UNL A   1     -28.555  -4.391  30.489  0.00  0.00    +0.365 C 
ATOM     10  O   UNL A   1     -28.797  -5.136  31.481  0.00  0.00    -0.246 OA
ATOM     11  O   UNL A   1     -29.548  -3.485  30.157  0.00  0.00    -0.246 OA
ENDBRANCH   5   9
ENDBRANCH   1   2
BRANCH   1  12
ATOM     12  N   UNL A   1     -23.199  -1.316  29.204  0.00  0.00    -0.205 NA
ATOM     13  C   UNL A   1     -22.359  -0.661  29.190  0.00  0.00    +0.246 C 
ATOM     14  O   UNL A   1     -21.246  -1.150  28.914  0.00  0.00    -0.273 OA
BRANCH  13  15
ATOM     15  C   UNL A   1     -22.494   0.868  29.132  0.00  0.00    +0.113 C 
BRANCH  15  16
ATOM     16  C   UNL A   1     -22.891   1.372  27.902  0.00  0.00    -0.013 A 
ATOM     17  C   UNL A   1     -22.009   1.820  27.198  0.00  0.00    -0.004 A 
ATOM     18  C   UNL A   1     -22.251   2.175  25.725  0.00  0.00    -0.000 A 
ATOM     19  C   UNL A   1     -23.579   1.992  25.258  0.00  0.00    -0.000 A 
ATOM     20  C   UNL A   1     -24.501   1.426  26.144  0.00  0.00    -0.000 A 
ATOM     21  C   UNL A   1     -24.131   1.039  27.440  0.00  0.00    -0.004 A 
ENDBRANCH  15  16
ENDBRANCH  13  15
ENDBRANCH   1  12
TORSDOF 5
ENDMDL
ENDMDL
