REMARK  Name = No_1557-gen_results/8p0m/2024-11-26-14-13-15/
REMARK  5 active torsions:
REMARK  status: ('A' for Active; 'I' for Inactive)
REMARK    1  A    between atoms: C_1  and  C_2
REMARK    2  A    between atoms: C_1  and  N_8
REMARK    3  A    between atoms: C_5  and  C_12
REMARK    4  A    between atoms: C_9  and  C_11
REMARK    5  A    between atoms: C_11  and  C_15
REMARK                            x       y       z     vdW  Elec       q    Type
REMARK                         _______ _______ _______ _____ _____    ______ ____
ROOT
ATOM      1  C   UNL A   1     -28.016  -0.814  28.878  0.00  0.00    +0.122 C 
ENDROOT
BRANCH   1   2
ATOM      2  C   UNL A   1     -27.064  -0.119  28.608  0.00  0.00    +0.079 C 
ATOM      3  C   UNL A   1     -25.792  -0.430  29.076  0.00  0.00    +0.010 C 
ATOM      4  C   UNL A   1     -24.546   0.349  28.823  0.00  0.00    +0.012 C 
ATOM      5  C   UNL A   1     -24.659   1.420  27.888  0.00  0.00    +0.111 C 
ATOM      6  C   UNL A   1     -25.947   1.681  27.379  0.00  0.00    +0.076 C 
ATOM      7  C   UNL A   1     -27.044   0.974  27.687  0.00  0.00    +0.152 C 
ATOM      8  O   UNL A   1     -28.236   1.347  27.196  0.00  0.00    -0.296 OA
BRANCH   5   9
ATOM      9  C   UNL A   1     -23.455   2.169  27.597  0.00  0.00    +0.365 C 
ATOM     10  O   UNL A   1     -22.309   1.873  28.042  0.00  0.00    -0.246 OA
ATOM     11  O   UNL A   1     -23.479   2.837  26.385  0.00  0.00    -0.246 OA
ENDBRANCH   5   9
ENDBRANCH   1   2
BRANCH   1  12
ATOM     12  N   UNL A   1     -28.664  -0.527  30.102  0.00  0.00    -0.205 NA
ATOM     13  C   UNL A   1     -29.665  -0.396  30.441  0.00  0.00    +0.246 C 
ATOM     14  O   UNL A   1     -30.580  -0.489  29.600  0.00  0.00    -0.273 OA
BRANCH  13  15
ATOM     15  C   UNL A   1     -30.059  -0.461  31.924  0.00  0.00    +0.113 C 
BRANCH  15  16
ATOM     16  C   UNL A   1     -29.872   0.719  32.630  0.00  0.00    -0.013 A 
ATOM     17  C   UNL A   1     -29.558   0.599  33.797  0.00  0.00    -0.004 A 
ATOM     18  C   UNL A   1     -29.072   1.793  34.630  0.00  0.00    -0.000 A 
ATOM     19  C   UNL A   1     -29.062   3.046  33.963  0.00  0.00    -0.000 A 
ATOM     20  C   UNL A   1     -29.400   3.056  32.606  0.00  0.00    -0.000 A 
ATOM     21  C   UNL A   1     -29.723   1.875  31.922  0.00  0.00    -0.004 A 
ENDBRANCH  15  16
ENDBRANCH  13  15
ENDBRANCH   1  12
TORSDOF 5
