REMARK  Name = No_1559-gen_results/8p0m/2024-11-26-14-13-15/
REMARK  2 active torsions:
REMARK  status: ('A' for Active; 'I' for Inactive)
REMARK    1  A    between atoms: C_3  and  O_7
REMARK    2  A    between atoms: O_7  and  C_8
REMARK                            x       y       z     vdW  Elec       q    Type
REMARK                         _______ _______ _______ _____ _____    ______ ____
ROOT
ATOM      1  O   UNL A   1     -27.534   0.363  26.789  0.00  0.00    -0.454 OA
ENDROOT
BRANCH   1   4
ATOM      2  C   UNL A   1     -28.016  -0.814  28.878  0.00  0.00    +0.037 A 
ATOM      3  C   UNL A   1     -28.469  -0.785  29.829  0.00  0.00    +0.003 A 
ATOM      4  C   UNL A   1     -28.196   0.348  28.055  0.00  0.00    +0.145 A 
ATOM      5  C   UNL A   1     -29.019   1.350  28.378  0.00  0.00    +0.037 A 
ATOM      6  C   UNL A   1     -29.233   0.059  30.345  0.00  0.00    +0.000 A 
ATOM      7  C   UNL A   1     -29.533   1.206  29.660  0.00  0.00    +0.003 A 
ENDBRANCH   1   4
BRANCH   1   8
ATOM      8  C   UNL A   1     -26.167   0.418  26.707  0.00  0.00    +0.145 A 
ATOM      9  C   UNL A   1     -25.606   1.200  25.732  0.00  0.00    +0.037 A 
ATOM     10  C   UNL A   1     -25.296  -0.384  27.542  0.00  0.00    +0.037 A 
ATOM     11  C   UNL A   1     -24.159   1.215  25.612  0.00  0.00    +0.003 A 
ATOM     12  C   UNL A   1     -23.920  -0.181  27.550  0.00  0.00    +0.003 A 
ATOM     13  C   UNL A   1     -23.365   0.659  26.572  0.00  0.00    +0.000 A 
ENDBRANCH   1   8
TORSDOF 2
