MODEL 1559
MODEL 1
REMARK VINA RESULT:    -6.083      0.000      0.000
REMARK INTER + INTRA:          -7.254
REMARK INTER:                  -6.794
REMARK INTRA:                  -0.459
REMARK UNBOUND:                -0.459
REMARK  Name = No_1559-gen_results/8p0m/2024-11-26-14-13-15/
REMARK  2 active torsions:
REMARK  status: ('A' for Active; 'I' for Inactive)
REMARK    1  A    between atoms: C_3  and  O_7
REMARK    2  A    between atoms: O_7  and  C_8
REMARK                            x       y       z     vdW  Elec       q    Type
REMARK                         _______ _______ _______ _____ _____    ______ ____
ROOT
ATOM      1  O   UNL A   1     -24.411  -1.397  29.665  0.00  0.00    -0.454 OA
ENDROOT
BRANCH   1   4
ATOM      2  C   UNL A   1     -23.879  -3.591  28.724  0.00  0.00    +0.037 A 
ATOM      3  C   UNL A   1     -24.144  -4.607  28.635  0.00  0.00    +0.003 A 
ATOM      4  C   UNL A   1     -24.783  -2.762  29.469  0.00  0.00    +0.145 A 
ATOM      5  C   UNL A   1     -25.978  -3.185  29.892  0.00  0.00    +0.037 A 
ATOM      6  C   UNL A   1     -25.178  -5.215  28.987  0.00  0.00    +0.000 A 
ATOM      7  C   UNL A   1     -26.155  -4.545  29.674  0.00  0.00    +0.003 A 
ENDBRANCH   1   4
BRANCH   1   8
ATOM      8  C   UNL A   1     -24.232  -0.554  28.599  0.00  0.00    +0.145 A 
ATOM      9  C   UNL A   1     -23.117   0.241  28.580  0.00  0.00    +0.037 A 
ATOM     10  C   UNL A   1     -25.214  -0.400  27.545  0.00  0.00    +0.037 A 
ATOM     11  C   UNL A   1     -22.956   1.172  27.478  0.00  0.00    +0.003 A 
ATOM     12  C   UNL A   1     -24.929   0.333  26.398  0.00  0.00    +0.003 A 
ATOM     13  C   UNL A   1     -23.758   1.108  26.376  0.00  0.00    +0.000 A 
ENDBRANCH   1   8
TORSDOF 2
ENDMDL
ENDMDL
