MODEL 155
MODEL 1
REMARK VINA RESULT:    -7.400      0.000      0.000
REMARK INTER + INTRA:         -10.188
REMARK INTER:                  -9.563
REMARK INTRA:                  -0.625
REMARK UNBOUND:                -0.625
REMARK  Name = No_155-gen_results/8p0m/2024-11-26-14-13-15/
REMARK  5 active torsions:
REMARK  status: ('A' for Active; 'I' for Inactive)
REMARK    1  A    between atoms: C_1  and  C_6
REMARK    2  A    between atoms: C_3  and  C_13
REMARK    3  A    between atoms: C_5  and  C_10
REMARK    4  A    between atoms: C_6  and  O_9
REMARK    5  A    between atoms: O_9  and  C_17
REMARK                            x       y       z     vdW  Elec       q    Type
REMARK                         _______ _______ _______ _____ _____    ______ ____
ROOT
ATOM      1  C   UNL A   1     -23.341   0.378  28.964  0.00  0.00    +0.076 A 
ATOM      2  C   UNL A   1     -22.950   0.754  27.884  0.00  0.00    +0.010 A 
ATOM      3  C   UNL A   1     -23.440   1.851  27.196  0.00  0.00    +0.072 A 
ATOM      4  C   UNL A   1     -24.468   2.609  27.832  0.00  0.00    +0.010 A 
ATOM      5  C   UNL A   1     -24.773   2.250  29.096  0.00  0.00    +0.080 A 
ATOM      6  C   UNL A   1     -24.207   1.190  29.650  0.00  0.00    +0.013 A 
ENDROOT
BRANCH   3   7
ATOM      7  C   UNL A   1     -23.028   2.201  25.783  0.00  0.00    +0.419 C 
ATOM      8  F   UNL A   1     -21.845   2.157  25.629  0.00  0.00    -0.166 F 
ATOM      9  F   UNL A   1     -23.640   1.359  24.884  0.00  0.00    -0.166 F 
ATOM     10  F   UNL A   1     -23.575   3.409  25.489  0.00  0.00    -0.166 F 
ENDBRANCH   3   7
BRANCH   5  11
ATOM     11  C   UNL A   1     -25.809   3.060  29.771  0.00  0.00    +0.388 C 
ATOM     12  O   UNL A   1     -26.734   3.261  29.354  0.00  0.00    -0.241 OA
ATOM     13  O   UNL A   1     -25.411   3.674  30.898  0.00  0.00    -0.241 OA
ENDBRANCH   5  11
BRANCH   1  14
ATOM     14  C   UNL A   1     -22.707  -0.739  29.611  0.00  0.00    +0.346 C 
ATOM     15  O   UNL A   1     -22.454  -0.894  30.628  0.00  0.00    -0.244 OA
BRANCH  14  16
ATOM     16  O   UNL A   1     -22.911  -1.960  28.836  0.00  0.00    -0.421 OA
BRANCH  16  17
ATOM     17  C   UNL A   1     -23.999  -2.720  29.163  0.00  0.00    +0.149 A 
ATOM     18  C   UNL A   1     -25.182  -2.241  29.586  0.00  0.00    +0.038 A 
ATOM     19  C   UNL A   1     -26.253  -3.106  29.861  0.00  0.00    +0.003 A 
ATOM     20  C   UNL A   1     -26.118  -4.521  29.674  0.00  0.00    +0.000 A 
ATOM     21  C   UNL A   1     -23.911  -4.098  28.650  0.00  0.00    +0.038 A 
ATOM     22  C   UNL A   1     -25.017  -4.971  29.006  0.00  0.00    +0.003 A 
ENDBRANCH  16  17
ENDBRANCH  14  16
ENDBRANCH   1  14
TORSDOF 5
ENDMDL
ENDMDL
