REMARK  Name = No_156-gen_results/8p0m/2024-11-26-14-13-15/
REMARK  3 active torsions:
REMARK  status: ('A' for Active; 'I' for Inactive)
REMARK    1  A    between atoms: C_1  and  C_11
REMARK    2  A    between atoms: C_3  and  C_17
REMARK    3  A    between atoms: C_9  and  C_14
REMARK                            x       y       z     vdW  Elec       q    Type
REMARK                         _______ _______ _______ _____ _____    ______ ____
ROOT
ATOM      1  C   UNL A   1     -28.016  -0.814  28.878  0.00  0.00    +0.081 A 
ATOM      2  C   UNL A   1     -27.064  -0.119  28.608  0.00  0.00    +0.007 A 
ATOM      3  C   UNL A   1     -27.001   0.691  27.491  0.00  0.00    +0.002 A 
ATOM      4  C   UNL A   1     -28.137   0.736  26.635  0.00  0.00    +0.019 A 
ATOM      5  C   UNL A   1     -29.236   0.076  27.069  0.00  0.00    +0.082 A 
ATOM      6  C   UNL A   1     -29.218  -0.643  28.175  0.00  0.00    +0.024 A 
ATOM      7  N   UNL A   1     -30.258   0.256  26.084  0.00  0.00    -0.244 NA
ATOM      8  C   UNL A   1     -31.329  -0.449  26.299  0.00  0.00    +0.105 A 
ATOM      9  C   UNL A   1     -31.520  -1.100  27.532  0.00  0.00    +0.099 A 
ATOM     10  C   UNL A   1     -30.472  -1.292  28.405  0.00  0.00    +0.010 A 
ENDROOT
BRANCH   3  11
ATOM     11  C   UNL A   1     -25.710   1.387  27.088  0.00  0.00    +0.001 A 
ATOM     12  C   UNL A   1     -25.610   2.505  26.535  0.00  0.00    +0.000 A 
ATOM     13  C   UNL A   1     -24.315   3.137  26.223  0.00  0.00    +0.001 A 
ATOM     14  C   UNL A   1     -23.148   2.448  26.570  0.00  0.00    +0.011 A 
ATOM     15  C   UNL A   1     -23.262   1.233  27.187  0.00  0.00    +0.058 A 
ATOM     16  C   UNL A   1     -24.480   0.636  27.484  0.00  0.00    +0.011 A 
ATOM     17 CL   UNL A   1     -21.733   0.647  27.722  0.00  0.00    -0.082 Cl
ENDBRANCH   3  11
BRANCH   1  18
ATOM     18  C   UNL A   1     -27.775  -1.626  30.169  0.00  0.00    +0.388 C 
ATOM     19  O   UNL A   1     -26.780  -2.000  30.580  0.00  0.00    -0.241 OA
ATOM     20  O   UNL A   1     -28.965  -2.001  30.732  0.00  0.00    -0.241 OA
ENDBRANCH   1  18
BRANCH   9  21
ATOM     21  C   UNL A   1     -32.817  -1.840  27.769  0.00  0.00    +0.389 C 
ATOM     22  O   UNL A   1     -33.463  -1.752  28.757  0.00  0.00    -0.240 OA
ATOM     23  O   UNL A   1     -33.128  -2.692  26.896  0.00  0.00    -0.240 OA
ENDBRANCH   9  21
TORSDOF 3
