REMARK  Name = No_1560-gen_results/8p0m/2024-11-26-14-13-15/
REMARK  2 active torsions:
REMARK  status: ('A' for Active; 'I' for Inactive)
REMARK    1  A    between atoms: C_3  and  C_4
REMARK    2  A    between atoms: C_4  and  C_8
REMARK                            x       y       z     vdW  Elec       q    Type
REMARK                         _______ _______ _______ _____ _____    ______ ____
ROOT
ATOM      1  C   UNL A   1     -25.654  -0.660  27.719  0.00  0.00    +0.053 C 
ENDROOT
BRANCH   1   4
ATOM      2  C   UNL A   1     -28.016  -0.814  28.878  0.00  0.00    -0.004 A 
ATOM      3  C   UNL A   1     -28.469  -0.785  29.829  0.00  0.00    -0.000 A 
ATOM      4  C   UNL A   1     -26.504  -0.778  28.877  0.00  0.00    -0.018 A 
ATOM      5  C   UNL A   1     -27.918  -0.937  31.182  0.00  0.00    -0.000 A 
ATOM      6  C   UNL A   1     -26.542  -0.940  31.261  0.00  0.00    -0.000 A 
ATOM      7  C   UNL A   1     -25.783  -0.893  30.120  0.00  0.00    -0.004 A 
ENDBRANCH   1   4
BRANCH   1   8
ATOM      8  C   UNL A   1     -25.926   0.282  26.744  0.00  0.00    -0.018 A 
ATOM      9  C   UNL A   1     -25.023   0.448  25.677  0.00  0.00    -0.004 A 
ATOM     10  C   UNL A   1     -27.290   0.455  26.391  0.00  0.00    -0.004 A 
ATOM     11  C   UNL A   1     -27.604   1.138  25.191  0.00  0.00    -0.000 A 
ATOM     12  C   UNL A   1     -26.629   1.435  24.290  0.00  0.00    -0.000 A 
ATOM     13  C   UNL A   1     -25.362   1.084  24.496  0.00  0.00    -0.000 A 
ENDBRANCH   1   8
TORSDOF 2
