MODEL 1560
MODEL 1
REMARK VINA RESULT:    -6.715      0.000      0.000
REMARK INTER + INTRA:          -7.924
REMARK INTER:                  -7.500
REMARK INTRA:                  -0.424
REMARK UNBOUND:                -0.424
REMARK  Name = No_1560-gen_results/8p0m/2024-11-26-14-13-15/
REMARK  2 active torsions:
REMARK  status: ('A' for Active; 'I' for Inactive)
REMARK    1  A    between atoms: C_3  and  C_4
REMARK    2  A    between atoms: C_4  and  C_8
REMARK                            x       y       z     vdW  Elec       q    Type
REMARK                         _______ _______ _______ _____ _____    ______ ____
ROOT
ATOM      1  C   UNL A   1     -23.376  -1.650  29.221  0.00  0.00    +0.053 C 
ENDROOT
BRANCH   1   4
ATOM      2  C   UNL A   1     -24.420  -0.034  27.421  0.00  0.00    -0.004 A 
ATOM      3  C   UNL A   1     -24.171   0.788  26.809  0.00  0.00    -0.000 A 
ATOM      4  C   UNL A   1     -23.344  -0.475  28.387  0.00  0.00    -0.018 A 
ATOM      5  C   UNL A   1     -23.054   1.741  26.855  0.00  0.00    -0.000 A 
ATOM      6  C   UNL A   1     -22.042   1.420  27.734  0.00  0.00    -0.000 A 
ATOM      7  C   UNL A   1     -22.157   0.326  28.553  0.00  0.00    -0.004 A 
ENDBRANCH   1   4
BRANCH   1   8
ATOM      8  C   UNL A   1     -24.355  -2.610  29.042  0.00  0.00    -0.018 A 
ATOM      9  C   UNL A   1     -23.974  -3.946  28.813  0.00  0.00    -0.004 A 
ATOM     10  C   UNL A   1     -25.539  -2.460  29.810  0.00  0.00    -0.004 A 
ATOM     11  C   UNL A   1     -26.420  -3.562  29.929  0.00  0.00    -0.000 A 
ATOM     12  C   UNL A   1     -26.043  -4.797  29.501  0.00  0.00    -0.000 A 
ATOM     13  C   UNL A   1     -24.840  -5.013  28.974  0.00  0.00    -0.000 A 
ENDBRANCH   1   8
TORSDOF 2
ENDMDL
ENDMDL
