REMARK  Name = No_1561-gen_results/8p0m/2024-11-26-14-13-15/
REMARK  2 active torsions:
REMARK  status: ('A' for Active; 'I' for Inactive)
REMARK    1  A    between atoms: C_1  and  C_2
REMARK    2  A    between atoms: N_3  and  C_4
REMARK                            x       y       z     vdW  Elec       q    Type
REMARK                         _______ _______ _______ _____ _____    ______ ____
ROOT
ATOM      1  C   UNL A   1     -24.651   0.444  28.765  0.00  0.00    +0.081 A 
ATOM      2  C   UNL A   1     -23.339   0.117  29.258  0.00  0.00    +0.019 A 
ATOM      3  C   UNL A   1     -22.233   0.847  28.929  0.00  0.00    +0.002 A 
ATOM      4  C   UNL A   1     -22.337   1.826  27.914  0.00  0.00    +0.000 A 
ATOM      5  C   UNL A   1     -24.664   1.479  27.814  0.00  0.00    +0.019 A 
ATOM      6  C   UNL A   1     -23.557   2.167  27.430  0.00  0.00    +0.002 A 
ENDROOT
BRANCH   1   8
ATOM      7  C   UNL A   1     -27.064  -0.119  28.608  0.00  0.00    +0.099 C 
ATOM      8  N   UNL A   1     -25.818  -0.343  29.049  0.00  0.00    -0.244 NA
BRANCH   7   9
ATOM      9  C   UNL A   1     -28.016  -0.814  28.878  0.00  0.00    +0.016 C 
ATOM     10  C   UNL A   1     -27.781  -1.825  29.950  0.00  0.00    -0.024 C 
ATOM     11  C   UNL A   1     -26.557  -2.206  30.363  0.00  0.00    +0.031 C 
ENDBRANCH   7   9
ENDBRANCH   1   8
TORSDOF 2
