MODEL 1561
MODEL 1
REMARK VINA RESULT:    -5.758      0.000      0.000
REMARK INTER + INTRA:          -6.630
REMARK INTER:                  -6.431
REMARK INTRA:                  -0.200
REMARK UNBOUND:                -0.200
REMARK  Name = No_1561-gen_results/8p0m/2024-11-26-14-13-15/
REMARK  2 active torsions:
REMARK  status: ('A' for Active; 'I' for Inactive)
REMARK    1  A    between atoms: C_1  and  C_2
REMARK    2  A    between atoms: N_3  and  C_4
REMARK                            x       y       z     vdW  Elec       q    Type
REMARK                         _______ _______ _______ _____ _____    ______ ____
ROOT
ATOM      1  C   UNL A   1     -24.144  -2.971  29.253  0.00  0.00    +0.081 A 
ATOM      2  C   UNL A   1     -25.386  -2.410  29.716  0.00  0.00    +0.019 A 
ATOM      3  C   UNL A   1     -26.474  -3.184  30.003  0.00  0.00    +0.002 A 
ATOM      4  C   UNL A   1     -26.455  -4.551  29.643  0.00  0.00    +0.000 A 
ATOM      5  C   UNL A   1     -24.202  -4.351  28.991  0.00  0.00    +0.019 A 
ATOM      6  C   UNL A   1     -25.302  -5.117  29.211  0.00  0.00    +0.002 A 
ENDROOT
BRANCH   1   8
ATOM      7  C   UNL A   1     -22.725  -0.935  29.317  0.00  0.00    +0.099 C 
ATOM      8  N   UNL A   1     -23.007  -2.174  28.889  0.00  0.00    -0.244 NA
BRANCH   7   9
ATOM      9  C   UNL A   1     -21.751  -0.304  28.977  0.00  0.00    +0.016 C 
ATOM     10  C   UNL A   1     -22.029   0.871  28.101  0.00  0.00    -0.024 C 
ATOM     11  C   UNL A   1     -23.187   1.052  27.438  0.00  0.00    +0.031 C 
ENDBRANCH   7   9
ENDBRANCH   1   8
TORSDOF 2
ENDMDL
ENDMDL
