MODEL 1562
MODEL 1
REMARK VINA RESULT:    -5.470      0.000      0.000
REMARK INTER + INTRA:          -8.912
REMARK INTER:                  -7.069
REMARK INTRA:                  -1.843
REMARK UNBOUND:                -1.843
REMARK  Name = No_1562-gen_results/8p0m/2024-11-26-14-13-15/
REMARK  5 active torsions:
REMARK  status: ('A' for Active; 'I' for Inactive)
REMARK    1  A    between atoms: C_2  and  C_3
REMARK    2  A    between atoms: C_2  and  C_9
REMARK    3  A    between atoms: C_10  and  C_11
REMARK    4  A    between atoms: C_11  and  C_12
REMARK    5  A    between atoms: C_12  and  C_13
REMARK                            x       y       z     vdW  Elec       q    Type
REMARK                         _______ _______ _______ _____ _____    ______ ____
ROOT
ATOM      1  C   UNL A   1     -26.989   0.085  32.378  0.00  0.00    -0.015 C 
ATOM      2  C   UNL A   1     -27.596  -0.680  31.817  0.00  0.00    -0.029 C 
ENDROOT
BRANCH   1   4
ATOM      3 BR   UNL A   1     -26.629   2.512  31.320  0.00  0.00    -0.072 Br
ATOM      4  C   UNL A   1     -26.042   0.999  31.642  0.00  0.00    +0.101 C 
BRANCH   4   5
ATOM      5  C   UNL A   1     -24.859   0.554  31.419  0.00  0.00    -0.008 A 
ATOM      6  C   UNL A   1     -24.069   0.840  30.275  0.00  0.00    -0.003 A 
ATOM      7  C   UNL A   1     -22.768   0.315  29.934  0.00  0.00    -0.000 A 
ATOM      8  C   UNL A   1     -22.333  -0.682  30.823  0.00  0.00    -0.000 A 
ATOM      9  C   UNL A   1     -22.989  -1.059  31.971  0.00  0.00    -0.000 A 
ATOM     10  C   UNL A   1     -24.235  -0.466  32.178  0.00  0.00    -0.003 A 
ENDBRANCH   4   5
ENDBRANCH   1   4
BRANCH   2  11
ATOM     11  C   UNL A   1     -27.581  -0.940  30.397  0.00  0.00    +0.030 C 
BRANCH  11  12
ATOM     12  C   UNL A   1     -27.307  -2.248  30.262  0.00  0.00    +0.031 C 
BRANCH  12  13
ATOM     13  C   UNL A   1     -26.339  -2.942  29.753  0.00  0.00    -0.022 A 
ATOM     14  C   UNL A   1     -26.336  -4.464  29.772  0.00  0.00    -0.004 A 
ATOM     15  C   UNL A   1     -25.256  -5.197  29.235  0.00  0.00    -0.000 A 
ATOM     16  C   UNL A   1     -24.131  -4.418  28.794  0.00  0.00    -0.000 A 
ATOM     17  C   UNL A   1     -24.126  -3.039  28.669  0.00  0.00    -0.000 A 
ATOM     18  C   UNL A   1     -25.190  -2.445  29.131  0.00  0.00    -0.004 A 
ENDBRANCH  12  13
ENDBRANCH  11  12
ENDBRANCH   2  11
TORSDOF 5
ENDMDL
ENDMDL
