REMARK  Name = No_1562-gen_results/8p0m/2024-11-26-14-13-15/
REMARK  5 active torsions:
REMARK  status: ('A' for Active; 'I' for Inactive)
REMARK    1  A    between atoms: C_2  and  C_3
REMARK    2  A    between atoms: C_2  and  C_9
REMARK    3  A    between atoms: C_10  and  C_11
REMARK    4  A    between atoms: C_11  and  C_12
REMARK    5  A    between atoms: C_12  and  C_13
REMARK                            x       y       z     vdW  Elec       q    Type
REMARK                         _______ _______ _______ _____ _____    ______ ____
ROOT
ATOM      1  C   UNL A   1     -27.100   1.141  27.353  0.00  0.00    -0.015 C 
ATOM      2  C   UNL A   1     -27.099   0.543  26.398  0.00  0.00    -0.029 C 
ENDROOT
BRANCH   1   4
ATOM      3 BR   UNL A   1     -28.115  -0.626  29.081  0.00  0.00    -0.072 Br
ATOM      4  C   UNL A   1     -26.927   0.455  28.685  0.00  0.00    +0.101 C 
BRANCH   4   5
ATOM      5  C   UNL A   1     -25.846   0.704  29.331  0.00  0.00    -0.008 A 
ATOM      6  C   UNL A   1     -24.851   1.641  28.947  0.00  0.00    -0.003 A 
ATOM      7  C   UNL A   1     -23.586   1.913  29.589  0.00  0.00    -0.000 A 
ATOM      8  C   UNL A   1     -23.313   1.033  30.649  0.00  0.00    -0.000 A 
ATOM      9  C   UNL A   1     -24.181   0.083  31.132  0.00  0.00    -0.000 A 
ATOM     10  C   UNL A   1     -25.370  -0.069  30.418  0.00  0.00    -0.003 A 
ENDBRANCH   4   5
ENDBRANCH   1   4
BRANCH   2  11
ATOM     11  C   UNL A   1     -26.965  -0.888  26.261  0.00  0.00    +0.030 C 
BRANCH  11  12
ATOM     12  C   UNL A   1     -26.074  -1.268  27.191  0.00  0.00    +0.031 C 
BRANCH  12  13
ATOM     13  C   UNL A   1     -26.047  -2.152  28.137  0.00  0.00    -0.022 A 
ATOM     14  C   UNL A   1     -24.751  -2.806  28.598  0.00  0.00    -0.004 A 
ATOM     15  C   UNL A   1     -24.751  -3.787  29.612  0.00  0.00    -0.000 A 
ATOM     16  C   UNL A   1     -26.046  -4.203  30.078  0.00  0.00    -0.000 A 
ATOM     17  C   UNL A   1     -27.239  -3.575  29.761  0.00  0.00    -0.000 A 
ATOM     18  C   UNL A   1     -27.139  -2.636  28.863  0.00  0.00    -0.004 A 
ENDBRANCH  12  13
ENDBRANCH  11  12
ENDBRANCH   2  11
TORSDOF 5
