MODEL 1563
MODEL 1
REMARK VINA RESULT:    -6.558      0.000      0.000
REMARK INTER + INTRA:          -7.008
REMARK INTER:                  -6.942
REMARK INTRA:                  -0.067
REMARK UNBOUND:                -0.067
REMARK  Name = No_1563-gen_results/8p0m/2024-11-26-14-13-15/
REMARK  1 active torsions:
REMARK  status: ('A' for Active; 'I' for Inactive)
REMARK    1  A    between atoms: C_8  and  C_11
REMARK                            x       y       z     vdW  Elec       q    Type
REMARK                         _______ _______ _______ _____ _____    ______ ____
ROOT
ATOM      1  C   UNL A   1     -29.712 -11.668  28.104  0.00  0.00    +0.000 A 
ATOM      2  C   UNL A   1     -28.960 -12.019  28.984  0.00  0.00    +0.000 A 
ATOM      3  C   UNL A   1     -28.924 -11.431  30.247  0.00  0.00    +0.000 A 
ATOM      4  C   UNL A   1     -29.786 -10.298  30.524  0.00  0.00    +0.000 A 
ATOM      5  C   UNL A   1     -30.629  -9.940  29.448  0.00  0.00    +0.000 A 
ATOM      6  C   UNL A   1     -30.587 -10.550  28.291  0.00  0.00    +0.000 A 
ATOM      7  C   UNL A   1     -28.038 -11.816  31.377  0.00  0.00    +0.005 A 
ATOM      8  C   UNL A   1     -28.129 -11.314  32.586  0.00  0.00    +0.057 A 
ATOM      9  C   UNL A   1     -29.159 -10.280  32.780  0.00  0.00    +0.005 A 
ATOM     10  C   UNL A   1     -29.925  -9.779  31.816  0.00  0.00    +0.000 A 
ENDROOT
BRANCH   8  11
ATOM     11  C   UNL A   1     -27.323 -11.704  33.723  0.00  0.00    +0.284 C 
ATOM     12  N   UNL A   1     -26.982 -10.813  34.648  0.00  0.00    -0.084 NA
ATOM     13  O   UNL A   1     -26.745 -12.870  33.749  0.00  0.00    -0.267 OA
ENDBRANCH   8  11
TORSDOF 1
ENDMDL
ENDMDL
