MODEL 1564
MODEL 1
REMARK VINA RESULT:    -7.928      0.000      0.000
REMARK INTER + INTRA:         -10.251
REMARK INTER:                  -9.319
REMARK INTRA:                  -0.933
REMARK UNBOUND:                -0.933
REMARK  Name = No_1564-gen_results/8p0m/2024-11-26-14-13-15/
REMARK  3 active torsions:
REMARK  status: ('A' for Active; 'I' for Inactive)
REMARK    1  A    between atoms: C_4  and  C_11
REMARK    2  A    between atoms: C_12  and  O_17
REMARK    3  A    between atoms: O_17  and  C_18
REMARK                            x       y       z     vdW  Elec       q    Type
REMARK                         _______ _______ _______ _____ _____    ______ ____
ROOT
ATOM      1  C   UNL A   1     -23.932  -4.653  28.497  0.00  0.00    +0.000 A 
ATOM      2  C   UNL A   1     -24.012  -3.447  28.521  0.00  0.00    +0.000 A 
ATOM      3  C   UNL A   1     -25.067  -2.755  29.114  0.00  0.00    +0.000 A 
ATOM      4  C   UNL A   1     -25.251  -1.292  29.178  0.00  0.00    +0.003 A 
ATOM      5  C   UNL A   1     -26.376  -0.611  29.764  0.00  0.00    +0.000 A 
ATOM      6  C   UNL A   1     -27.242  -1.432  30.494  0.00  0.00    +0.000 A 
ATOM      7  C   UNL A   1     -25.115  -5.433  28.997  0.00  0.00    +0.000 A 
ATOM      8  C   UNL A   1     -26.155  -4.840  29.676  0.00  0.00    +0.000 A 
ATOM      9  C   UNL A   1     -26.217  -3.460  29.738  0.00  0.00    +0.000 A 
ATOM     10  C   UNL A   1     -27.244  -2.809  30.421  0.00  0.00    +0.000 A 
ENDROOT
BRANCH   4  11
ATOM     11  C   UNL A   1     -24.233  -0.381  28.560  0.00  0.00    +0.035 A 
ATOM     12  C   UNL A   1     -23.138  -0.189  29.201  0.00  0.00    +0.145 A 
ATOM     13  C   UNL A   1     -22.217   0.785  28.773  0.00  0.00    +0.037 A 
ATOM     14  C   UNL A   1     -24.538   0.213  27.364  0.00  0.00    +0.003 A 
ATOM     15  C   UNL A   1     -23.641   1.123  26.791  0.00  0.00    +0.000 A 
ATOM     16  C   UNL A   1     -22.417   1.343  27.461  0.00  0.00    +0.003 A 
BRANCH  12  17
ATOM     17  O   UNL A   1     -22.788  -0.746  30.399  0.00  0.00    -0.451 OA
BRANCH  17  18
ATOM     18  C   UNL A   1     -23.296  -0.507  31.648  0.00  0.00    +0.175 C 
ATOM     19  C   UNL A   1     -23.573  -1.319  32.424  0.00  0.00    +0.015 C 
ATOM     20  C   UNL A   1     -24.010  -1.037  33.749  0.00  0.00    +0.034 C 
ENDBRANCH  17  18
ENDBRANCH  12  17
ENDBRANCH   4  11
TORSDOF 3
ENDMDL
ENDMDL
