MODEL 1565
MODEL 1
REMARK VINA RESULT:    -5.730      0.000      0.000
REMARK INTER + INTRA:          -7.630
REMARK INTER:                  -7.069
REMARK INTRA:                  -0.561
REMARK UNBOUND:                -0.561
REMARK  Name = No_1565-gen_results/8p0m/2024-11-26-14-13-15/
REMARK  4 active torsions:
REMARK  status: ('A' for Active; 'I' for Inactive)
REMARK    1  A    between atoms: C_1  and  C_2
REMARK    2  A    between atoms: C_5  and  C_13
REMARK    3  A    between atoms: C_12  and  N_15
REMARK    4  A    between atoms: N_15  and  C_16
REMARK                            x       y       z     vdW  Elec       q    Type
REMARK                         _______ _______ _______ _____ _____    ______ ____
ROOT
ATOM      1  C   UNL A   1     -23.470   0.022  28.696  0.00  0.00    +0.015 A 
ATOM      2  C   UNL A   1     -21.988  -0.290  28.817  0.00  0.00    +0.001 A 
ATOM      3  C   UNL A   1     -20.956   0.608  28.372  0.00  0.00    +0.000 A 
ATOM      4  C   UNL A   1     -21.334   1.501  27.443  0.00  0.00    +0.001 A 
ATOM      5  C   UNL A   1     -22.627   1.612  27.018  0.00  0.00    +0.017 A 
ATOM      6  C   UNL A   1     -23.619   0.857  27.576  0.00  0.00    +0.070 A 
ENDROOT
BRANCH   1   7
ATOM      7  C   UNL A   1     -24.285  -0.796  29.055  0.00  0.00    +0.001 A 
ATOM      8  C   UNL A   1     -25.344  -0.602  29.786  0.00  0.00    +0.001 A 
ATOM      9  C   UNL A   1     -26.326  -1.634  30.201  0.00  0.00    +0.010 A 
ATOM     10  C   UNL A   1     -26.104  -2.952  29.710  0.00  0.00    +0.068 A 
ATOM     11  C   UNL A   1     -25.004  -3.136  28.865  0.00  0.00    +0.010 A 
ATOM     12  C   UNL A   1     -24.148  -2.142  28.518  0.00  0.00    +0.001 A 
BRANCH  10  13
ATOM     13  C   UNL A   1     -27.005  -4.038  30.009  0.00  0.00    +0.100 C 
ATOM     14  N   UNL A   1     -28.000  -4.520  30.020  0.00  0.00    -0.191 NA
ENDBRANCH  10  13
ENDBRANCH   1   7
BRANCH   6  15
ATOM     15  N   UNL A   1     -24.929   1.059  27.196  0.00  0.00    -0.211 NA
BRANCH  15  16
ATOM     16  C   UNL A   1     -25.588   0.978  26.124  0.00  0.00    +0.086 C 
ATOM     17  C   UNL A   1     -25.321   0.036  25.178  0.00  0.00    +0.019 C 
ENDBRANCH  15  16
ENDBRANCH   6  15
TORSDOF 4
ENDMDL
ENDMDL
