REMARK  Name = No_1565-gen_results/8p0m/2024-11-26-14-13-15/
REMARK  4 active torsions:
REMARK  status: ('A' for Active; 'I' for Inactive)
REMARK    1  A    between atoms: C_1  and  C_2
REMARK    2  A    between atoms: C_5  and  C_13
REMARK    3  A    between atoms: C_12  and  N_15
REMARK    4  A    between atoms: N_15  and  C_16
REMARK                            x       y       z     vdW  Elec       q    Type
REMARK                         _______ _______ _______ _____ _____    ______ ____
ROOT
ATOM      1  C   UNL A   1     -28.016  -0.814  28.878  0.00  0.00    +0.015 A 
ATOM      2  C   UNL A   1     -28.090  -1.494  30.234  0.00  0.00    +0.001 A 
ATOM      3  C   UNL A   1     -29.207  -2.299  30.651  0.00  0.00    +0.000 A 
ATOM      4  C   UNL A   1     -30.361  -2.054  30.010  0.00  0.00    +0.001 A 
ATOM      5  C   UNL A   1     -30.449  -1.171  28.972  0.00  0.00    +0.017 A 
ATOM      6  C   UNL A   1     -29.338  -0.540  28.488  0.00  0.00    +0.070 A 
ENDROOT
BRANCH   1   7
ATOM      7  C   UNL A   1     -27.064  -0.119  28.608  0.00  0.00    +0.001 A 
ATOM      8  C   UNL A   1     -26.876   1.133  28.913  0.00  0.00    +0.001 A 
ATOM      9  C   UNL A   1     -25.688   1.952  28.567  0.00  0.00    +0.010 A 
ATOM     10  C   UNL A   1     -24.639   1.283  27.875  0.00  0.00    +0.068 A 
ATOM     11  C   UNL A   1     -24.818  -0.080  27.617  0.00  0.00    +0.010 A 
ATOM     12  C   UNL A   1     -25.931  -0.772  27.970  0.00  0.00    +0.001 A 
BRANCH  10  13
ATOM     13  C   UNL A   1     -23.415   1.956  27.514  0.00  0.00    +0.100 C 
ATOM     14  N   UNL A   1     -22.379   2.290  27.707  0.00  0.00    -0.191 NA
ENDBRANCH  10  13
ENDBRANCH   1   7
BRANCH   6  15
ATOM     15  N   UNL A   1     -29.440   0.270  27.377  0.00  0.00    -0.211 NA
BRANCH  15  16
ATOM     16  C   UNL A   1     -30.340   0.978  26.848  0.00  0.00    +0.086 C 
ATOM     17  C   UNL A   1     -30.150   1.633  25.670  0.00  0.00    +0.019 C 
ENDBRANCH  15  16
ENDBRANCH   6  15
TORSDOF 4
