MODEL 1566
MODEL 1
REMARK VINA RESULT:    -4.343      0.000      0.000
REMARK INTER + INTRA:          -4.343
REMARK INTER:                  -4.343
REMARK INTRA:                   0.000
REMARK UNBOUND:                 0.000
REMARK  Name = No_1566-gen_results/8p0m/2024-11-26-14-13-15/
REMARK  0 active torsions:
REMARK  status: ('A' for Active; 'I' for Inactive)
REMARK                            x       y       z     vdW  Elec       q    Type
REMARK                         _______ _______ _______ _____ _____    ______ ____
ROOT
ATOM      1  C   UNL A   1     -24.952  -5.376  29.015  0.00  0.00    +0.000 A 
ATOM      2  C   UNL A   1     -24.208  -4.733  28.637  0.00  0.00    +0.000 A 
ATOM      3  C   UNL A   1     -26.091  -4.665  29.609  0.00  0.00    +0.000 A 
ATOM      4  C   UNL A   1     -26.086  -3.347  29.812  0.00  0.00    +0.000 A 
ATOM      5  C   UNL A   1     -23.976  -3.314  28.752  0.00  0.00    +0.000 A 
ATOM      6  C   UNL A   1     -25.034  -2.675  29.330  0.00  0.00    +0.000 A 
ENDROOT
TORSDOF 0
ENDMDL
ENDMDL
