MODEL 1567
MODEL 1
REMARK VINA RESULT:    -5.086      0.000      0.000
REMARK INTER + INTRA:          -5.538
REMARK INTER:                  -5.383
REMARK INTRA:                  -0.155
REMARK UNBOUND:                -0.155
REMARK  Name = No_1567-gen_results/8p0m/2024-11-26-14-13-15/
REMARK  1 active torsions:
REMARK  status: ('A' for Active; 'I' for Inactive)
REMARK    1  A    between atoms: C_5  and  C_8
REMARK                            x       y       z     vdW  Elec       q    Type
REMARK                         _______ _______ _______ _____ _____    ______ ____
ROOT
ATOM      1 CL   UNL A   1     -24.155  -2.984  29.569  0.00  0.00    -0.082 Cl
ATOM      2  C   UNL A   1     -23.653  -1.734  29.056  0.00  0.00    +0.058 A 
ATOM      3  C   UNL A   1     -22.617  -1.209  29.211  0.00  0.00    +0.011 A 
ATOM      4  C   UNL A   1     -22.126   0.066  28.654  0.00  0.00    +0.005 A 
ATOM      5  C   UNL A   1     -23.008   0.713  27.760  0.00  0.00    +0.071 A 
ATOM      6  C   UNL A   1     -24.209   0.128  27.539  0.00  0.00    +0.005 A 
ATOM      7  C   UNL A   1     -24.552  -1.034  28.089  0.00  0.00    +0.011 A 
ENDROOT
BRANCH   5   8
ATOM      8  C   UNL A   1     -22.559   1.965  27.166  0.00  0.00    +0.419 C 
ATOM      9  F   UNL A   1     -21.435   2.260  27.552  0.00  0.00    -0.166 F 
ATOM     10  F   UNL A   1     -22.534   1.953  25.854  0.00  0.00    -0.166 F 
ATOM     11  F   UNL A   1     -23.420   3.004  27.389  0.00  0.00    -0.166 F 
ENDBRANCH   5   8
TORSDOF 1
ENDMDL
ENDMDL
