REMARK  Name = No_1567-gen_results/8p0m/2024-11-26-14-13-15/
REMARK  1 active torsions:
REMARK  status: ('A' for Active; 'I' for Inactive)
REMARK    1  A    between atoms: C_5  and  C_8
REMARK                            x       y       z     vdW  Elec       q    Type
REMARK                         _______ _______ _______ _____ _____    ______ ____
ROOT
ATOM      1 CL   UNL A   1     -28.149  -0.820  28.908  0.00  0.00    -0.082 Cl
ATOM      2  C   UNL A   1     -26.912  -0.080  28.945  0.00  0.00    +0.058 A 
ATOM      3  C   UNL A   1     -25.966  -0.212  29.623  0.00  0.00    +0.011 A 
ATOM      4  C   UNL A   1     -24.704   0.553  29.622  0.00  0.00    +0.005 A 
ATOM      5  C   UNL A   1     -24.601   1.544  28.621  0.00  0.00    +0.071 A 
ATOM      6  C   UNL A   1     -25.667   1.716  27.803  0.00  0.00    +0.005 A 
ATOM      7  C   UNL A   1     -26.761   0.962  27.884  0.00  0.00    +0.011 A 
ENDROOT
BRANCH   5   8
ATOM      8  C   UNL A   1     -23.364   2.312  28.565  0.00  0.00    +0.419 C 
ATOM      9  F   UNL A   1     -23.385   3.118  27.644  0.00  0.00    -0.166 F 
ATOM     10  F   UNL A   1     -23.101   2.978  29.665  0.00  0.00    -0.166 F 
ATOM     11  F   UNL A   1     -22.248   1.526  28.476  0.00  0.00    -0.166 F 
ENDBRANCH   5   8
TORSDOF 1
