MODEL 1568
MODEL 1
REMARK VINA RESULT:    -6.783      0.000      0.000
REMARK INTER + INTRA:          -7.909
REMARK INTER:                  -7.576
REMARK INTRA:                  -0.333
REMARK UNBOUND:                -0.333
REMARK  Name = No_1568-gen_results/8p0m/2024-11-26-14-13-15/
REMARK  2 active torsions:
REMARK  status: ('A' for Active; 'I' for Inactive)
REMARK    1  A    between atoms: C_3  and  C_4
REMARK    2  A    between atoms: C_4  and  C_8
REMARK                            x       y       z     vdW  Elec       q    Type
REMARK                         _______ _______ _______ _____ _____    ______ ____
ROOT
ATOM      1  C   UNL A   1     -24.662  -1.201  29.090  0.00  0.00    +0.053 C 
ENDROOT
BRANCH   1   4
ATOM      2  C   UNL A   1     -23.870  -3.608  28.533  0.00  0.00    -0.004 A 
ATOM      3  C   UNL A   1     -24.137  -4.619  28.666  0.00  0.00    -0.000 A 
ATOM      4  C   UNL A   1     -24.858  -2.667  29.063  0.00  0.00    -0.018 A 
ATOM      5  C   UNL A   1     -25.271  -5.315  29.259  0.00  0.00    -0.000 A 
ATOM      6  C   UNL A   1     -26.232  -4.460  29.758  0.00  0.00    -0.000 A 
ATOM      7  C   UNL A   1     -26.026  -3.132  29.721  0.00  0.00    -0.004 A 
ENDBRANCH   1   4
BRANCH   1   8
ATOM      8  C   UNL A   1     -23.576  -0.690  28.618  0.00  0.00    -0.018 A 
ATOM      9  C   UNL A   1     -22.327  -0.727  29.271  0.00  0.00    -0.004 A 
ATOM     10  C   UNL A   1     -21.217   0.025  28.668  0.00  0.00    -0.000 A 
ATOM     11  C   UNL A   1     -21.485   1.070  27.792  0.00  0.00    -0.000 A 
ATOM     12  C   UNL A   1     -22.778   1.328  27.326  0.00  0.00    -0.000 A 
ATOM     13  C   UNL A   1     -23.833   0.468  27.730  0.00  0.00    -0.004 A 
ENDBRANCH   1   8
TORSDOF 2
ENDMDL
ENDMDL
