MODEL 1569
MODEL 1
REMARK VINA RESULT:    -6.276      0.000      0.000
REMARK INTER + INTRA:          -6.893
REMARK INTER:                  -6.643
REMARK INTRA:                  -0.250
REMARK UNBOUND:                -0.250
REMARK  Name = No_1569-gen_results/8p0m/2024-11-26-14-13-15/
REMARK  1 active torsions:
REMARK  status: ('A' for Active; 'I' for Inactive)
REMARK    1  A    between atoms: C_4  and  C_11
REMARK                            x       y       z     vdW  Elec       q    Type
REMARK                         _______ _______ _______ _____ _____    ______ ____
ROOT
ATOM      1  C   UNL A   1     -25.888   0.597  26.223  0.00  0.00    -0.000 A 
ATOM      2  C   UNL A   1     -25.595  -0.328  26.945  0.00  0.00    -0.000 A 
ATOM      3  C   UNL A   1     -24.409  -0.391  27.676  0.00  0.00    -0.000 A 
ATOM      4  C   UNL A   1     -23.968  -1.481  28.567  0.00  0.00    -0.000 A 
ATOM      5  C   UNL A   1     -22.715  -1.532  29.276  0.00  0.00    -0.000 A 
ATOM      6  C   UNL A   1     -21.977  -0.345  29.245  0.00  0.00    -0.000 A 
ATOM      7  C   UNL A   1     -24.840   1.649  25.989  0.00  0.00    +0.000 A 
ATOM      8  C   UNL A   1     -23.683   1.714  26.732  0.00  0.00    -0.000 A 
ATOM      9  C   UNL A   1     -23.375   0.673  27.590  0.00  0.00    -0.000 A 
ATOM     10  C   UNL A   1     -22.221   0.694  28.372  0.00  0.00    -0.000 A 
ENDROOT
BRANCH   4  11
ATOM     11  C   UNL A   1     -24.835  -2.688  28.761  0.00  0.00    -0.005 C 
ATOM     12  C   UNL A   1     -24.200  -3.923  28.798  0.00  0.00    -0.026 C 
ATOM     13  C   UNL A   1     -24.999  -5.061  29.066  0.00  0.00    +0.031 C 
ENDBRANCH   4  11
TORSDOF 1
ENDMDL
ENDMDL
