MODEL 156
MODEL 1
REMARK VINA RESULT:    -7.335      0.000      0.000
REMARK INTER + INTRA:          -9.004
REMARK INTER:                  -8.621
REMARK INTRA:                  -0.383
REMARK UNBOUND:                -0.383
REMARK  Name = No_156-gen_results/8p0m/2024-11-26-14-13-15/
REMARK  3 active torsions:
REMARK  status: ('A' for Active; 'I' for Inactive)
REMARK    1  A    between atoms: C_1  and  C_11
REMARK    2  A    between atoms: C_3  and  C_17
REMARK    3  A    between atoms: C_9  and  C_14
REMARK                            x       y       z     vdW  Elec       q    Type
REMARK                         _______ _______ _______ _____ _____    ______ ____
ROOT
ATOM      1  C   UNL A   1     -28.247 -11.140  32.797  0.00  0.00    +0.081 A 
ATOM      2  C   UNL A   1     -28.536 -11.230  31.626  0.00  0.00    +0.007 A 
ATOM      3  C   UNL A   1     -29.447 -10.404  30.997  0.00  0.00    +0.002 A 
ATOM      4  C   UNL A   1     -30.047  -9.366  31.765  0.00  0.00    +0.019 A 
ATOM      5  C   UNL A   1     -29.566  -9.199  33.019  0.00  0.00    +0.082 A 
ATOM      6  C   UNL A   1     -28.661 -10.015  33.526  0.00  0.00    +0.024 A 
ATOM      7  N   UNL A   1     -30.282  -8.110  33.609  0.00  0.00    -0.244 NA
ATOM      8  C   UNL A   1     -30.026  -7.931  34.871  0.00  0.00    +0.105 A 
ATOM      9  C   UNL A   1     -28.946  -8.595  35.482  0.00  0.00    +0.099 A 
ATOM     10  C   UNL A   1     -28.345  -9.679  34.880  0.00  0.00    +0.010 A 
ENDROOT
BRANCH   3  11
ATOM     11  C   UNL A   1     -29.926 -10.684  29.581  0.00  0.00    +0.001 A 
ATOM     12  C   UNL A   1     -30.751 -10.006  28.928  0.00  0.00    +0.000 A 
ATOM     13  C   UNL A   1     -31.125 -10.315  27.536  0.00  0.00    +0.001 A 
ATOM     14  C   UNL A   1     -30.520 -11.417  26.923  0.00  0.00    +0.011 A 
ATOM     15  C   UNL A   1     -29.609 -12.146  27.636  0.00  0.00    +0.058 A 
ATOM     16  C   UNL A   1     -29.253 -11.857  28.946  0.00  0.00    +0.011 A 
ATOM     17 CL   UNL A   1     -28.825 -13.320  26.649  0.00  0.00    -0.082 Cl
ENDBRANCH   3  11
BRANCH   1  18
ATOM     18  C   UNL A   1     -27.226 -12.221  33.212  0.00  0.00    +0.388 C 
ATOM     19  O   UNL A   1     -26.451 -12.735  32.554  0.00  0.00    -0.241 OA
ATOM     20  O   UNL A   1     -27.456 -12.633  34.497  0.00  0.00    -0.241 OA
ENDBRANCH   1  18
BRANCH   9  21
ATOM     21  C   UNL A   1     -28.634  -8.294  36.930  0.00  0.00    +0.389 C 
ATOM     22  O   UNL A   1     -28.018  -7.352  37.297  0.00  0.00    -0.240 OA
ATOM     23  O   UNL A   1     -28.951  -9.190  37.756  0.00  0.00    -0.240 OA
ENDBRANCH   9  21
TORSDOF 3
ENDMDL
ENDMDL
