REMARK  Name = No_1570-gen_results/8p0m/2024-11-26-14-13-15/
REMARK  1 active torsions:
REMARK  status: ('A' for Active; 'I' for Inactive)
REMARK    1  A    between atoms: C_2  and  C_8
REMARK                            x       y       z     vdW  Elec       q    Type
REMARK                         _______ _______ _______ _____ _____    ______ ____
ROOT
ATOM      1  C   UNL A   1     -28.016  -0.814  28.878  0.00  0.00    +0.001 A 
ATOM      2  C   UNL A   1     -27.064  -0.119  28.608  0.00  0.00    +0.002 A 
ATOM      3  C   UNL A   1     -26.972   0.714  27.506  0.00  0.00    +0.030 A 
ATOM      4  C   UNL A   1     -28.105   0.774  26.642  0.00  0.00    +0.151 A 
ATOM      5  C   UNL A   1     -29.201   0.104  27.053  0.00  0.00    +0.085 A 
ATOM      6  C   UNL A   1     -29.210  -0.603  28.185  0.00  0.00    +0.014 A 
ATOM      7 CL   UNL A   1     -30.565   0.243  26.049  0.00  0.00    -0.080 Cl
ATOM      8  F   UNL A   1     -28.031   1.603  25.606  0.00  0.00    -0.203 F 
ENDROOT
BRANCH   2   9
ATOM      9  C   UNL A   1     -25.703  -0.234  29.413  0.00  0.00    +0.001 A 
ATOM     10  C   UNL A   1     -24.530  -0.233  28.812  0.00  0.00    +0.011 A 
ATOM     11  C   UNL A   1     -23.312  -0.379  29.541  0.00  0.00    +0.058 A 
ATOM     12  C   UNL A   1     -23.361  -0.755  30.823  0.00  0.00    +0.011 A 
ATOM     13  C   UNL A   1     -24.577  -0.807  31.528  0.00  0.00    +0.001 A 
ATOM     14  C   UNL A   1     -25.759  -0.599  30.792  0.00  0.00    +0.000 A 
ATOM     15 CL   UNL A   1     -21.821  -0.233  28.754  0.00  0.00    -0.082 Cl
ENDBRANCH   2   9
TORSDOF 1
