MODEL 1570
MODEL 1
REMARK VINA RESULT:    -6.716      0.000      0.000
REMARK INTER + INTRA:          -7.374
REMARK INTER:                  -7.109
REMARK INTRA:                  -0.265
REMARK UNBOUND:                -0.265
REMARK  Name = No_1570-gen_results/8p0m/2024-11-26-14-13-15/
REMARK  1 active torsions:
REMARK  status: ('A' for Active; 'I' for Inactive)
REMARK    1  A    between atoms: C_2  and  C_8
REMARK                            x       y       z     vdW  Elec       q    Type
REMARK                         _______ _______ _______ _____ _____    ______ ____
ROOT
ATOM      1  C   UNL A   1     -23.025  -1.167  29.361  0.00  0.00    +0.001 A 
ATOM      2  C   UNL A   1     -23.949  -1.468  28.641  0.00  0.00    +0.002 A 
ATOM      3  C   UNL A   1     -24.423  -0.702  27.590  0.00  0.00    +0.030 A 
ATOM      4  C   UNL A   1     -23.745   0.524  27.323  0.00  0.00    +0.151 A 
ATOM      5  C   UNL A   1     -22.631   0.755  28.047  0.00  0.00    +0.085 A 
ATOM      6  C   UNL A   1     -22.210  -0.098  28.983  0.00  0.00    +0.014 A 
ATOM      7 CL   UNL A   1     -21.795   2.186  27.669  0.00  0.00    -0.080 Cl
ATOM      8  F   UNL A   1     -24.177   1.240  26.290  0.00  0.00    -0.203 F 
ENDROOT
BRANCH   2   9
ATOM      9  C   UNL A   1     -24.862  -2.726  28.952  0.00  0.00    +0.001 A 
ATOM     10  C   UNL A   1     -25.975  -2.630  29.652  0.00  0.00    +0.011 A 
ATOM     11  C   UNL A   1     -26.769  -3.774  29.963  0.00  0.00    +0.058 A 
ATOM     12  C   UNL A   1     -26.267  -4.994  29.747  0.00  0.00    +0.011 A 
ATOM     13  C   UNL A   1     -25.070  -5.180  29.031  0.00  0.00    +0.001 A 
ATOM     14  C   UNL A   1     -24.339  -4.028  28.685  0.00  0.00    +0.000 A 
ATOM     15 CL   UNL A   1     -28.260  -3.594  30.742  0.00  0.00    -0.082 Cl
ENDBRANCH   2   9
TORSDOF 1
ENDMDL
ENDMDL
