MODEL 1571
MODEL 1
REMARK VINA RESULT:    -4.257      0.000      0.000
REMARK INTER + INTRA:          -4.257
REMARK INTER:                  -4.257
REMARK INTRA:                   0.000
REMARK UNBOUND:                 0.000
REMARK  Name = No_1571-gen_results/8p0m/2024-11-26-14-13-15/
REMARK  0 active torsions:
REMARK  status: ('A' for Active; 'I' for Inactive)
REMARK                            x       y       z     vdW  Elec       q    Type
REMARK                         _______ _______ _______ _____ _____    ______ ____
ROOT
ATOM      1  C   UNL A   1     -24.930  -5.382  28.935  0.00  0.00    +0.000 A 
ATOM      2  C   UNL A   1     -24.141  -4.719  28.715  0.00  0.00    +0.000 A 
ATOM      3  C   UNL A   1     -26.102  -4.811  29.617  0.00  0.00    +0.000 A 
ATOM      4  C   UNL A   1     -26.202  -3.405  29.830  0.00  0.00    +0.000 A 
ATOM      5  C   UNL A   1     -24.019  -3.237  28.777  0.00  0.00    +0.000 A 
ATOM      6  C   UNL A   1     -25.083  -2.671  29.413  0.00  0.00    +0.000 A 
ENDROOT
TORSDOF 0
ENDMDL
ENDMDL
