MODEL 1572
MODEL 1
REMARK VINA RESULT:    -5.540      0.000      0.000
REMARK INTER + INTRA:          -6.141
REMARK INTER:                  -5.864
REMARK INTRA:                  -0.277
REMARK UNBOUND:                -0.277
REMARK  Name = No_1572-gen_results/8p0m/2024-11-26-14-13-15/
REMARK  1 active torsions:
REMARK  status: ('A' for Active; 'I' for Inactive)
REMARK    1  A    between atoms: C_4  and  C_8
REMARK                            x       y       z     vdW  Elec       q    Type
REMARK                         _______ _______ _______ _____ _____    ______ ____
ROOT
ATOM      1  C   UNL A   1     -26.308  -4.359  29.695  0.00  0.00    +0.004 C 
ATOM      2  C   UNL A   1     -26.013  -3.205  29.899  0.00  0.00    +0.022 C 
ATOM      3  C   UNL A   1     -24.811  -2.679  29.436  0.00  0.00    -0.044 C 
ATOM      4  C   UNL A   1     -24.450  -1.315  29.585  0.00  0.00    -0.009 C 
ATOM      5  C   UNL A   1     -25.309  -5.290  29.166  0.00  0.00    +0.001 C 
ATOM      6  C   UNL A   1     -24.141  -4.847  28.599  0.00  0.00    +0.004 C 
ATOM      7  C   UNL A   1     -23.841  -3.489  28.735  0.00  0.00    +0.022 C 
ENDROOT
BRANCH   4   8
ATOM      8  C   UNL A   1     -23.699  -0.779  30.542  0.00  0.00    -0.005 C 
ATOM      9  C   UNL A   1     -22.380  -0.347  30.381  0.00  0.00    -0.026 C 
ATOM     10  C   UNL A   1     -21.796  -0.403  29.048  0.00  0.00    +0.031 C 
ENDBRANCH   4   8
TORSDOF 1
ENDMDL
ENDMDL
