REMARK  Name = No_1573-gen_results/8p0m/2024-11-26-14-13-15/
REMARK  4 active torsions:
REMARK  status: ('A' for Active; 'I' for Inactive)
REMARK    1  A    between atoms: C_3  and  C_7
REMARK    2  A    between atoms: C_6  and  O_13
REMARK    3  A    between atoms: O_13  and  C_14
REMARK    4  A    between atoms: N_17  and  C_21
REMARK                            x       y       z     vdW  Elec       q    Type
REMARK                         _______ _______ _______ _____ _____    ______ ____
ROOT
ATOM      1  O   UNL A   1     -29.049  -2.576  30.086  0.00  0.00    -0.470 OA
ENDROOT
BRANCH   1   2
ATOM      2  C   UNL A   1     -30.119  -1.911  30.521  0.00  0.00    +0.242 C 
ATOM      3  C   UNL A   1     -31.256  -2.183  29.765  0.00  0.00    +0.270 C 
ATOM      4  O   UNL A   1     -31.428  -3.212  29.309  0.00  0.00    -0.271 OA
ATOM      5  N   UNL A   1     -32.158  -1.167  29.517  0.00  0.00    -0.256 N 
ATOM      6  C   UNL A   1     -32.027   0.200  30.082  0.00  0.00    +0.098 C 
ATOM      7  C   UNL A   1     -31.184   0.189  31.091  0.00  0.00    +0.026 C 
ATOM      8  C   UNL A   1     -29.971  -0.678  31.258  0.00  0.00    +0.055 C 
BRANCH   5   9
ATOM      9  C   UNL A   1     -33.260  -1.427  28.610  0.00  0.00    +0.054 A 
ATOM     10  C   UNL A   1     -34.432  -1.817  28.966  0.00  0.00    +0.015 A 
ATOM     11  C   UNL A   1     -35.363  -2.099  28.139  0.00  0.00    +0.001 A 
ATOM     12  C   UNL A   1     -32.958  -1.233  27.227  0.00  0.00    +0.015 A 
ATOM     13  C   UNL A   1     -33.894  -1.517  26.273  0.00  0.00    +0.001 A 
ATOM     14  C   UNL A   1     -35.140  -1.959  26.723  0.00  0.00    +0.000 A 
ENDBRANCH   5   9
ENDBRANCH   1   2
BRANCH   1  20
ATOM     15  C   UNL A   1     -28.016  -0.814  28.878  0.00  0.00    +0.037 A 
ATOM     16  C   UNL A   1     -27.064  -0.119  28.608  0.00  0.00    +0.003 A 
ATOM     17  C   UNL A   1     -25.765  -0.390  29.036  0.00  0.00    +0.000 A 
ATOM     18  C   UNL A   1     -25.530  -1.530  29.901  0.00  0.00    +0.003 A 
ATOM     19  C   UNL A   1     -26.689  -2.289  30.181  0.00  0.00    +0.037 A 
ATOM     20  C   UNL A   1     -27.873  -1.951  29.737  0.00  0.00    +0.139 A 
BRANCH  17  21
ATOM     21  C   UNL A   1     -24.549   0.410  28.734  0.00  0.00    +0.000 A 
ATOM     22  C   UNL A   1     -24.479   1.187  27.684  0.00  0.00    +0.000 A 
ATOM     23  C   UNL A   1     -23.283   1.836  27.352  0.00  0.00    +0.000 A 
ATOM     24  C   UNL A   1     -22.103   1.662  28.035  0.00  0.00    +0.000 A 
ATOM     25  C   UNL A   1     -23.324   0.153  29.473  0.00  0.00    +0.000 A 
ATOM     26  C   UNL A   1     -22.117   0.813  29.107  0.00  0.00    +0.000 A 
ENDBRANCH  17  21
ENDBRANCH   1  20
TORSDOF 4
