REMARK  Name = No_1575-gen_results/8p0m/2024-11-26-14-13-15/
REMARK  5 active torsions:
REMARK  status: ('A' for Active; 'I' for Inactive)
REMARK    1  A    between atoms: C_3  and  C_7
REMARK    2  A    between atoms: C_7  and  C_15
REMARK    3  A    between atoms: C_15  and  C_16
REMARK    4  A    between atoms: C_16  and  C_17
REMARK    5  A    between atoms: C_17  and  C_18
REMARK                            x       y       z     vdW  Elec       q    Type
REMARK                         _______ _______ _______ _____ _____    ______ ____
ROOT
ATOM      1  C   UNL A   1     -26.311   0.392  27.364  0.00  0.00    -0.026 C 
ATOM      2  C   UNL A   1     -24.969   0.248  27.481  0.00  0.00    -0.026 C 
ATOM      3  C   UNL A   1     -24.249  -0.047  28.652  0.00  0.00    -0.005 C 
ATOM      4  C   UNL A   1     -22.834   0.127  28.660  0.00  0.00    -0.001 C 
ATOM      5  C   UNL A   1     -22.071   0.806  28.470  0.00  0.00    -0.005 C 
ATOM      6  C   UNL A   1     -22.497   2.010  27.686  0.00  0.00    -0.026 C 
ATOM      7  C   UNL A   1     -23.550   2.150  26.763  0.00  0.00    +0.031 C 
ATOM      8  C   UNL A   1     -24.519   1.823  27.128  0.00  0.00    +0.031 C 
ENDROOT
BRANCH   1  11
ATOM      9  C   UNL A   1     -28.016  -0.814  28.878  0.00  0.00    -0.000 A 
ATOM     10  C   UNL A   1     -28.469  -0.785  29.829  0.00  0.00    -0.000 A 
ATOM     11  C   UNL A   1     -27.087   0.290  28.638  0.00  0.00    -0.004 A 
ATOM     12  C   UNL A   1     -26.832   1.249  29.587  0.00  0.00    -0.000 A 
ATOM     13  C   UNL A   1     -28.391   0.080  31.006  0.00  0.00    -0.000 A 
ATOM     14  C   UNL A   1     -27.494   1.152  30.784  0.00  0.00    -0.000 A 
ENDBRANCH   1  11
BRANCH   1  15
ATOM     15  C   UNL A   1     -27.040   0.302  26.173  0.00  0.00    +0.026 C 
BRANCH  15  16
ATOM     16  C   UNL A   1     -27.029   1.436  25.393  0.00  0.00    +0.009 C 
BRANCH  16  17
ATOM     17  C   UNL A   1     -28.256   2.128  25.292  0.00  0.00    +0.022 C 
ATOM     18  C   UNL A   1     -29.224   1.703  24.349  0.00  0.00    +0.005 C 
BRANCH  17  19
ATOM     19  C   UNL A   1     -28.300   3.123  25.990  0.00  0.00    -0.031 C 
ATOM     20  C   UNL A   1     -29.039   3.725  26.513  0.00  0.00    -0.030 C 
ATOM     21  C   UNL A   1     -29.051   4.870  27.429  0.00  0.00    +0.030 C 
ENDBRANCH  17  19
ENDBRANCH  16  17
ENDBRANCH  15  16
ENDBRANCH   1  15
TORSDOF 5
