MODEL 1575
MODEL 1
REMARK VINA RESULT:    -7.746      0.000      0.000
REMARK INTER + INTRA:         -11.467
REMARK INTER:                 -10.010
REMARK INTRA:                  -1.457
REMARK UNBOUND:                -1.457
REMARK  Name = No_1575-gen_results/8p0m/2024-11-26-14-13-15/
REMARK  5 active torsions:
REMARK  status: ('A' for Active; 'I' for Inactive)
REMARK    1  A    between atoms: C_3  and  C_7
REMARK    2  A    between atoms: C_7  and  C_15
REMARK    3  A    between atoms: C_15  and  C_16
REMARK    4  A    between atoms: C_16  and  C_17
REMARK    5  A    between atoms: C_17  and  C_18
REMARK                            x       y       z     vdW  Elec       q    Type
REMARK                         _______ _______ _______ _____ _____    ______ ____
ROOT
ATOM      1  C   UNL A   1     -24.385  -1.158  29.006  0.00  0.00    -0.026 C 
ATOM      2  C   UNL A   1     -23.391  -0.526  28.336  0.00  0.00    -0.026 C 
ATOM      3  C   UNL A   1     -22.386   0.288  28.887  0.00  0.00    -0.005 C 
ATOM      4  C   UNL A   1     -21.604   1.107  28.021  0.00  0.00    -0.001 C 
ATOM      5  C   UNL A   1     -21.655   1.830  27.276  0.00  0.00    -0.005 C 
ATOM      6  C   UNL A   1     -23.011   1.982  26.657  0.00  0.00    -0.026 C 
ATOM      7  C   UNL A   1     -24.048   1.039  26.529  0.00  0.00    +0.031 C 
ATOM      8  C   UNL A   1     -24.329   0.547  27.455  0.00  0.00    +0.031 C 
ENDROOT
BRANCH   1  11
ATOM      9  C   UNL A   1     -23.405  -1.388  31.380  0.00  0.00    -0.000 A 
ATOM     10  C   UNL A   1     -23.550  -1.102  32.384  0.00  0.00    -0.000 A 
ATOM     11  C   UNL A   1     -24.445  -0.896  30.476  0.00  0.00    -0.004 A 
ATOM     12  C   UNL A   1     -25.489  -0.121  30.917  0.00  0.00    -0.000 A 
ATOM     13  C   UNL A   1     -24.530  -0.305  33.121  0.00  0.00    -0.000 A 
ATOM     14  C   UNL A   1     -25.541   0.176  32.255  0.00  0.00    -0.000 A 
ENDBRANCH   1  11
BRANCH   1  15
ATOM     15  C   UNL A   1     -25.127  -2.244  28.528  0.00  0.00    +0.026 C 
BRANCH  15  16
ATOM     16  C   UNL A   1     -24.481  -3.459  28.573  0.00  0.00    +0.009 C 
BRANCH  16  17
ATOM     17  C   UNL A   1     -25.201  -4.519  29.167  0.00  0.00    +0.022 C 
ATOM     18  C   UNL A   1     -24.759  -5.853  28.986  0.00  0.00    +0.005 C 
BRANCH  17  19
ATOM     19  C   UNL A   1     -26.229  -4.154  29.705  0.00  0.00    -0.031 C 
ATOM     20  C   UNL A   1     -27.207  -4.555  29.961  0.00  0.00    -0.030 C 
ATOM     21  C   UNL A   1     -28.397  -4.118  30.698  0.00  0.00    +0.030 C 
ENDBRANCH  17  19
ENDBRANCH  16  17
ENDBRANCH  15  16
ENDBRANCH   1  15
TORSDOF 5
ENDMDL
ENDMDL
