REMARK  Name = No_1576-gen_results/8p0m/2024-11-26-14-13-15/
REMARK  5 active torsions:
REMARK  status: ('A' for Active; 'I' for Inactive)
REMARK    1  A    between atoms: C_2  and  C_10
REMARK    2  A    between atoms: C_3  and  C_7
REMARK    3  A    between atoms: C_7  and  O_9
REMARK    4  A    between atoms: O_9  and  C_13
REMARK    5  A    between atoms: C_15  and  C_16
REMARK                            x       y       z     vdW  Elec       q    Type
REMARK                         _______ _______ _______ _____ _____    ______ ____
ROOT
ATOM      1  C   UNL A   1     -26.384   0.187  27.358  0.00  0.00    +0.346 C 
ATOM      2  O   UNL A   1     -26.902   0.413  26.270  0.00  0.00    -0.244 OA
ENDROOT
BRANCH   1   5
ATOM      3  C   UNL A   1     -28.016  -0.814  28.878  0.00  0.00    +0.013 A 
ATOM      4  C   UNL A   1     -28.469  -0.785  29.829  0.00  0.00    +0.080 A 
ATOM      5  C   UNL A   1     -27.087   0.290  28.638  0.00  0.00    +0.076 A 
ATOM      6  C   UNL A   1     -26.832   1.249  29.587  0.00  0.00    +0.006 A 
ATOM      7  C   UNL A   1     -28.391   0.080  31.006  0.00  0.00    +0.007 A 
ATOM      8  C   UNL A   1     -27.494   1.152  30.784  0.00  0.00    +0.000 A 
BRANCH   4   9
ATOM      9  C   UNL A   1     -29.475  -1.994  30.290  0.00  0.00    +0.388 C 
ATOM     10  O   UNL A   1     -29.354  -2.898  30.806  0.00  0.00    -0.241 OA
ATOM     11  O   UNL A   1     -30.704  -1.720  29.755  0.00  0.00    -0.241 OA
ENDBRANCH   4   9
ENDBRANCH   1   5
BRANCH   1  12
ATOM     12  O   UNL A   1     -25.018   0.018  27.392  0.00  0.00    -0.421 OA
BRANCH  12  13
ATOM     13  C   UNL A   1     -24.267   1.000  26.952  0.00  0.00    +0.155 A 
ATOM     14  C   UNL A   1     -24.432   1.747  25.975  0.00  0.00    +0.038 A 
ATOM     15  C   UNL A   1     -23.193   1.318  27.979  0.00  0.00    +0.114 A 
ATOM     16  C   UNL A   1     -23.381   2.796  25.626  0.00  0.00    +0.003 A 
ATOM     17  C   UNL A   1     -22.494   2.801  26.330  0.00  0.00    +0.000 A 
ATOM     18  C   UNL A   1     -22.216   2.247  27.512  0.00  0.00    +0.010 A 
BRANCH  15  19
ATOM     19  C   UNL A   1     -22.887   0.655  29.161  0.00  0.00    +0.391 C 
ATOM     20  O   UNL A   1     -23.392   0.941  30.237  0.00  0.00    -0.240 OA
ATOM     21  O   UNL A   1     -21.889  -0.212  29.200  0.00  0.00    -0.240 OA
ENDBRANCH  15  19
ENDBRANCH  12  13
ENDBRANCH   1  12
TORSDOF 5
