MODEL 1576
MODEL 1
REMARK VINA RESULT:    -7.544      0.000      0.000
REMARK INTER + INTRA:         -10.561
REMARK INTER:                  -9.749
REMARK INTRA:                  -0.812
REMARK UNBOUND:                -0.812
REMARK  Name = No_1576-gen_results/8p0m/2024-11-26-14-13-15/
REMARK  5 active torsions:
REMARK  status: ('A' for Active; 'I' for Inactive)
REMARK    1  A    between atoms: C_2  and  C_10
REMARK    2  A    between atoms: C_3  and  C_7
REMARK    3  A    between atoms: C_7  and  O_9
REMARK    4  A    between atoms: O_9  and  C_13
REMARK    5  A    between atoms: C_15  and  C_16
REMARK                            x       y       z     vdW  Elec       q    Type
REMARK                         _______ _______ _______ _____ _____    ______ ____
ROOT
ATOM      1  C   UNL A   1     -23.559  -1.034  29.634  0.00  0.00    +0.346 C 
ATOM      2  O   UNL A   1     -23.426  -1.170  30.845  0.00  0.00    -0.244 OA
ENDROOT
BRANCH   1   5
ATOM      3  C   UNL A   1     -23.449   0.802  28.024  0.00  0.00    +0.013 A 
ATOM      4  C   UNL A   1     -22.834   1.466  27.484  0.00  0.00    +0.080 A 
ATOM      5  C   UNL A   1     -22.702  -0.183  28.806  0.00  0.00    +0.076 A 
ATOM      6  C   UNL A   1     -21.330  -0.207  28.832  0.00  0.00    +0.006 A 
ATOM      7  C   UNL A   1     -21.395   1.676  27.327  0.00  0.00    +0.007 A 
ATOM      8  C   UNL A   1     -20.663   0.727  28.080  0.00  0.00    +0.000 A 
BRANCH   4   9
ATOM      9  C   UNL A   1     -23.509   2.684  26.620  0.00  0.00    +0.388 C 
ATOM     10  O   UNL A   1     -23.481   2.980  25.615  0.00  0.00    -0.241 OA
ATOM     11  O   UNL A   1     -24.158   3.496  27.510  0.00  0.00    -0.241 OA
ENDBRANCH   4   9
ENDBRANCH   1   5
BRANCH   1  12
ATOM     12  O   UNL A   1     -24.693  -1.555  29.054  0.00  0.00    -0.421 OA
BRANCH  12  13
ATOM     13  C   UNL A   1     -24.860  -2.856  29.091  0.00  0.00    +0.155 A 
ATOM     14  C   UNL A   1     -24.079  -3.764  28.766  0.00  0.00    +0.038 A 
ATOM     15  C   UNL A   1     -26.131  -3.184  29.857  0.00  0.00    +0.114 A 
ATOM     16  C   UNL A   1     -24.522  -5.221  28.849  0.00  0.00    +0.003 A 
ATOM     17  C   UNL A   1     -25.583  -5.353  29.222  0.00  0.00    +0.000 A 
ATOM     18  C   UNL A   1     -26.494  -4.562  29.794  0.00  0.00    +0.010 A 
BRANCH  15  19
ATOM     19  C   UNL A   1     -27.097  -2.322  30.362  0.00  0.00    +0.391 C 
ATOM     20  O   UNL A   1     -28.108  -2.018  29.746  0.00  0.00    -0.240 OA
ATOM     21  O   UNL A   1     -26.871  -1.647  31.477  0.00  0.00    -0.240 OA
ENDBRANCH  15  19
ENDBRANCH  12  13
ENDBRANCH   1  12
TORSDOF 5
ENDMDL
ENDMDL
