REMARK  Name = No_1577-gen_results/8p0m/2024-11-26-14-13-15/
REMARK  5 active torsions:
REMARK  status: ('A' for Active; 'I' for Inactive)
REMARK    1  A    between atoms: C_1  and  O_17
REMARK    2  A    between atoms: C_3  and  C_4
REMARK    3  A    between atoms: C_12  and  O_14
REMARK    4  A    between atoms: O_17  and  C_18
REMARK    5  A    between atoms: C_19  and  C_20
REMARK                            x       y       z     vdW  Elec       q    Type
REMARK                         _______ _______ _______ _____ _____    ______ ____
ROOT
ATOM      1  C   UNL A   1     -28.016  -0.814  28.878  0.00  0.00    +0.183 A 
ATOM      2  C   UNL A   1     -27.064  -0.119  28.608  0.00  0.00    +0.175 A 
ATOM      3  C   UNL A   1     -25.792  -0.430  29.076  0.00  0.00    +0.031 A 
ATOM      4  C   UNL A   1     -27.882  -1.899  29.863  0.00  0.00    +0.094 A 
ATOM      5  C   UNL A   1     -26.671  -2.327  30.321  0.00  0.00    +0.015 A 
ATOM      6  C   UNL A   1     -25.543  -1.585  29.932  0.00  0.00    +0.003 A 
ATOM      7 CL   UNL A   1     -29.261  -2.833  30.348  0.00  0.00    -0.079 Cl
ATOM      8  F   UNL A   1     -27.179   0.901  27.755  0.00  0.00    -0.201 F 
ENDROOT
BRANCH   3   9
ATOM      9  C   UNL A   1     -24.546   0.349  28.823  0.00  0.00    +0.005 A 
ATOM     10  C   UNL A   1     -23.241   0.022  29.332  0.00  0.00    +0.000 A 
ATOM     11  C   UNL A   1     -22.188   0.822  28.993  0.00  0.00    +0.003 A 
ATOM     12  C   UNL A   1     -22.162   1.777  28.024  0.00  0.00    +0.037 A 
ATOM     13  C   UNL A   1     -24.548   1.398  27.831  0.00  0.00    +0.037 A 
ATOM     14  C   UNL A   1     -23.387   2.076  27.471  0.00  0.00    +0.139 A 
BRANCH  14  15
ATOM     15  O   UNL A   1     -23.516   3.037  26.520  0.00  0.00    -0.471 OA
ATOM     16  C   UNL A   1     -24.834   3.484  26.259  0.00  0.00    +0.253 C 
ENDBRANCH  14  15
ENDBRANCH   3   9
BRANCH   1  17
ATOM     17  O   UNL A   1     -29.297  -0.590  28.522  0.00  0.00    -0.447 OA
BRANCH  17  18
ATOM     18  C   UNL A   1     -29.491   0.372  27.592  0.00  0.00    +0.180 C 
ATOM     19  C   UNL A   1     -30.423   0.436  26.904  0.00  0.00    +0.040 C 
BRANCH  19  20
ATOM     20  C   UNL A   1     -30.654   1.467  25.912  0.00  0.00    -0.001 C 
ATOM     21  C   UNL A   1     -29.634   2.467  25.779  0.00  0.00    -0.026 C 
ATOM     22  C   UNL A   1     -28.545   2.446  26.596  0.00  0.00    +0.031 C 
ENDBRANCH  19  20
ENDBRANCH  17  18
ENDBRANCH   1  17
TORSDOF 5
