REMARK  Name = No_1578-gen_results/8p0m/2024-11-26-14-13-15/
REMARK  1 active torsions:
REMARK  status: ('A' for Active; 'I' for Inactive)
REMARK    1  A    between atoms: C_5  and  C_9
REMARK                            x       y       z     vdW  Elec       q    Type
REMARK                         _______ _______ _______ _____ _____    ______ ____
ROOT
ATOM      1  C   UNL A   1     -28.016  -0.814  28.878  0.00  0.00    +0.099 A 
ATOM      2  C   UNL A   1     -27.064  -0.119  28.608  0.00  0.00    +0.019 A 
ATOM      3  C   UNL A   1     -26.972   0.714  27.506  0.00  0.00    +0.002 A 
ATOM      4  C   UNL A   1     -25.820   1.491  27.116  0.00  0.00    +0.005 A 
ATOM      5  C   UNL A   1     -24.656   1.424  27.918  0.00  0.00    +0.057 A 
ATOM      6  C   UNL A   1     -24.685   0.590  29.066  0.00  0.00    +0.005 A 
ATOM      7  C   UNL A   1     -25.810  -0.127  29.334  0.00  0.00    +0.003 A 
ATOM      8  N   UNL A   1     -27.968  -1.690  30.006  0.00  0.00    -0.242 NA
ATOM      9  C   UNL A   1     -26.734  -2.026  30.561  0.00  0.00    +0.099 A 
ATOM     10  C   UNL A   1     -25.656  -1.205  30.342  0.00  0.00    +0.021 A 
ENDROOT
BRANCH   5  11
ATOM     11  C   UNL A   1     -23.634   2.341  27.527  0.00  0.00    +0.284 C 
ATOM     12  N   UNL A   1     -23.611   2.835  26.307  0.00  0.00    -0.084 NA
ATOM     13  O   UNL A   1     -22.470   2.345  28.157  0.00  0.00    -0.267 OA
ENDBRANCH   5  11
TORSDOF 1
