MODEL 1578
MODEL 1
REMARK VINA RESULT:    -6.054      0.000      0.000
REMARK INTER + INTRA:          -6.477
REMARK INTER:                  -6.408
REMARK INTRA:                  -0.069
REMARK UNBOUND:                -0.069
REMARK  Name = No_1578-gen_results/8p0m/2024-11-26-14-13-15/
REMARK  1 active torsions:
REMARK  status: ('A' for Active; 'I' for Inactive)
REMARK    1  A    between atoms: C_5  and  C_9
REMARK                            x       y       z     vdW  Elec       q    Type
REMARK                         _______ _______ _______ _____ _____    ______ ____
ROOT
ATOM      1  C   UNL A   1     -30.760  -9.814  29.820  0.00  0.00    +0.099 A 
ATOM      2  C   UNL A   1     -30.035 -10.233  30.692  0.00  0.00    +0.019 A 
ATOM      3  C   UNL A   1     -29.901  -9.678  31.953  0.00  0.00    +0.002 A 
ATOM      4  C   UNL A   1     -28.986 -10.108  32.983  0.00  0.00    +0.005 A 
ATOM      5  C   UNL A   1     -28.133 -11.205  32.715  0.00  0.00    +0.057 A 
ATOM      6  C   UNL A   1     -28.223 -11.823  31.441  0.00  0.00    +0.005 A 
ATOM      7  C   UNL A   1     -29.098 -11.325  30.525  0.00  0.00    +0.003 A 
ATOM      8  N   UNL A   1     -30.762 -10.429  28.531  0.00  0.00    -0.242 NA
ATOM      9  C   UNL A   1     -29.693 -11.243  28.158  0.00  0.00    +0.099 A 
ATOM     10  C   UNL A   1     -28.907 -11.803  29.133  0.00  0.00    +0.021 A 
ENDROOT
BRANCH   5  11
ATOM     11  C   UNL A   1     -27.379 -11.638  33.848  0.00  0.00    +0.284 C 
ATOM     12  N   UNL A   1     -26.947 -10.767  34.735  0.00  0.00    -0.084 NA
ATOM     13  O   UNL A   1     -26.701 -12.773  33.798  0.00  0.00    -0.267 OA
ENDBRANCH   5  11
TORSDOF 1
ENDMDL
ENDMDL
