REMARK  Name = No_1579-gen_results/8p0m/2024-11-26-14-13-15/
REMARK  12 active torsions:
REMARK  status: ('A' for Active; 'I' for Inactive)
REMARK    1  A    between atoms: C_3  and  C_8
REMARK    2  A    between atoms: C_6  and  O_7
REMARK    3  A    between atoms: O_7  and  C_14
REMARK    4  A    between atoms: C_14  and  C_15
REMARK    5  A    between atoms: C_14  and  C_21
REMARK    6  A    between atoms: C_15  and  O_16
REMARK    7  A    between atoms: O_16  and  C_17
REMARK    8  A    between atoms: C_21  and  N_22
REMARK    9  A    between atoms: N_22  and  C_23
REMARK   10  A    between atoms: N_22  and  C_28
REMARK   11  A    between atoms: C_23  and  C_25
REMARK   12  A    between atoms: C_32  and  C_33
REMARK                            x       y       z     vdW  Elec       q    Type
REMARK                         _______ _______ _______ _____ _____    ______ ____
ROOT
ATOM      1  C   UNL A   1     -29.310  -2.754  31.453  0.00  0.00    +0.258 C 
ENDROOT
BRANCH   1   2
ATOM      2  C   UNL A   1     -29.796  -4.048  31.813  0.00  0.00    +0.360 C 
ATOM      3  O   UNL A   1     -29.018  -5.102  31.237  0.00  0.00    -0.170 OA
BRANCH   2   4
ATOM      4  O   UNL A   1     -31.029  -4.208  31.694  0.00  0.00    -0.444 OA
BRANCH   4   5
ATOM      5  C   UNL A   1     -31.868  -3.414  31.393  0.00  0.00    +0.188 C 
ATOM      6  C   UNL A   1     -33.034  -3.683  30.979  0.00  0.00    +0.108 C 
ATOM      7 CL   UNL A   1     -33.696  -3.473  30.196  0.00  0.00    -0.078 Cl
ENDBRANCH   4   5
ENDBRANCH   2   4
ENDBRANCH   1   2
BRANCH   1   8
ATOM      8  O   UNL A   1     -28.930  -2.730  30.115  0.00  0.00    -0.471 OA
BRANCH   8  14
ATOM      9  C   UNL A   1     -28.016  -0.814  28.878  0.00  0.00    +0.037 A 
ATOM     10  C   UNL A   1     -27.064  -0.119  28.608  0.00  0.00    +0.003 A 
ATOM     11  C   UNL A   1     -25.765  -0.390  29.036  0.00  0.00    +0.000 A 
ATOM     12  C   UNL A   1     -25.530  -1.530  29.901  0.00  0.00    +0.003 A 
ATOM     13  C   UNL A   1     -26.689  -2.289  30.181  0.00  0.00    +0.037 A 
ATOM     14  C   UNL A   1     -27.873  -1.951  29.737  0.00  0.00    +0.139 A 
BRANCH  11  15
ATOM     15  C   UNL A   1     -24.539   0.421  28.742  0.00  0.00    +0.000 A 
ATOM     16  C   UNL A   1     -24.526   1.274  27.727  0.00  0.00    +0.000 A 
ATOM     17  C   UNL A   1     -23.317   1.986  27.403  0.00  0.00    +0.000 A 
ATOM     18  C   UNL A   1     -22.131   1.737  28.050  0.00  0.00    +0.000 A 
ATOM     19  C   UNL A   1     -23.298   0.137  29.377  0.00  0.00    +0.000 A 
ATOM     20  C   UNL A   1     -22.101   0.819  29.041  0.00  0.00    +0.000 A 
ENDBRANCH  11  15
ENDBRANCH   8  14
ENDBRANCH   1   8
BRANCH   1  21
ATOM     21  C   UNL A   1     -29.301  -1.701  32.320  0.00  0.00    +0.143 C 
BRANCH  21  22
ATOM     22  N   UNL A   1     -29.101  -0.665  32.042  0.00  0.00    -0.278 N 
BRANCH  22  23
ATOM     23  C   UNL A   1     -27.734  -0.049  32.438  0.00  0.00    +0.028 C 
ATOM     24  C   UNL A   1     -27.081  -0.595  33.524  0.00  0.00    +0.010 C 
ATOM     25  C   UNL A   1     -27.097   0.985  31.706  0.00  0.00    +0.047 C 
BRANCH  24  26
ATOM     26  C   UNL A   1     -25.742  -0.126  33.722  0.00  0.00    +0.001 C 
ATOM     27  C   UNL A   1     -25.197   0.803  32.828  0.00  0.00    +0.000 C 
ENDBRANCH  24  26
ENDBRANCH  22  23
BRANCH  22  28
ATOM     28  C   UNL A   1     -29.921   0.223  31.386  0.00  0.00    +0.260 C 
ATOM     29  F   UNL A   1     -30.865  -0.367  30.903  0.00  0.00    -0.210 F 
BRANCH  28  30
ATOM     30  C   UNL A   1     -30.423   1.252  32.340  0.00  0.00    +0.029 A 
ATOM     31  C   UNL A   1     -30.841   2.352  31.977  0.00  0.00    +0.000 A 
ATOM     32  C   UNL A   1     -31.416   3.353  32.869  0.00  0.00    -0.000 A 
ATOM     33  C   UNL A   1     -31.406   3.036  34.230  0.00  0.00    -0.000 A 
ATOM     34  C   UNL A   1     -30.913   1.821  34.664  0.00  0.00    -0.000 A 
ATOM     35  C   UNL A   1     -30.390   0.897  33.733  0.00  0.00    +0.000 A 
ENDBRANCH  28  30
ENDBRANCH  22  28
ENDBRANCH  21  22
ENDBRANCH   1  21
TORSDOF 12
