MODEL 1579
MODEL 1
REMARK VINA RESULT:    -7.212      0.000      0.000
REMARK INTER + INTRA:         -14.207
REMARK INTER:                 -12.271
REMARK INTRA:                  -1.936
REMARK UNBOUND:                -1.936
REMARK  Name = No_1579-gen_results/8p0m/2024-11-26-14-13-15/
REMARK  12 active torsions:
REMARK  status: ('A' for Active; 'I' for Inactive)
REMARK    1  A    between atoms: C_3  and  C_8
REMARK    2  A    between atoms: C_6  and  O_7
REMARK    3  A    between atoms: O_7  and  C_14
REMARK    4  A    between atoms: C_14  and  C_15
REMARK    5  A    between atoms: C_14  and  C_21
REMARK    6  A    between atoms: C_15  and  O_16
REMARK    7  A    between atoms: O_16  and  C_17
REMARK    8  A    between atoms: C_21  and  N_22
REMARK    9  A    between atoms: N_22  and  C_23
REMARK   10  A    between atoms: N_22  and  C_28
REMARK   11  A    between atoms: C_23  and  C_25
REMARK   12  A    between atoms: C_32  and  C_33
REMARK                            x       y       z     vdW  Elec       q    Type
REMARK                         _______ _______ _______ _____ _____    ______ ____
ROOT
ATOM      1  C   UNL A   1     -10.340   1.851  34.873  0.00  0.00    +0.258 C 
ENDROOT
BRANCH   1   2
ATOM      2  C   UNL A   1      -9.417   2.939  34.807  0.00  0.00    +0.360 C 
ATOM      3  O   UNL A   1      -9.599   3.875  35.875  0.00  0.00    -0.170 OA
BRANCH   2   4
ATOM      4  O   UNL A   1      -9.299   3.473  33.684  0.00  0.00    -0.444 OA
BRANCH   4   5
ATOM      5  C   UNL A   1      -8.395   3.405  32.907  0.00  0.00    +0.188 C 
ATOM      6  C   UNL A   1      -7.164   3.346  33.199  0.00  0.00    +0.108 C 
ATOM      7 CL   UNL A   1      -6.248   3.807  32.992  0.00  0.00    -0.078 Cl
ENDBRANCH   4   5
ENDBRANCH   2   4
ENDBRANCH   1   2
BRANCH   1   8
ATOM      8  O   UNL A   1     -11.541   2.192  34.259  0.00  0.00    -0.471 OA
BRANCH   8  14
ATOM      9  C   UNL A   1     -12.637   2.287  36.456  0.00  0.00    +0.037 A 
ATOM     10  C   UNL A   1     -13.602   2.598  37.116  0.00  0.00    +0.003 A 
ATOM     11  C   UNL A   1     -14.786   3.089  36.567  0.00  0.00    +0.000 A 
ATOM     12  C   UNL A   1     -14.866   3.300  35.134  0.00  0.00    +0.003 A 
ATOM     13  C   UNL A   1     -13.699   2.923  34.431  0.00  0.00    +0.037 A 
ATOM     14  C   UNL A   1     -12.628   2.476  35.037  0.00  0.00    +0.139 A 
BRANCH  11  15
ATOM     15  C   UNL A   1     -16.019   3.493  37.317  0.00  0.00    +0.000 A 
ATOM     16  C   UNL A   1     -16.838   4.409  36.818  0.00  0.00    +0.000 A 
ATOM     17  C   UNL A   1     -17.974   4.850  37.585  0.00  0.00    +0.000 A 
ATOM     18  C   UNL A   1     -18.190   4.427  38.874  0.00  0.00    +0.000 A 
ATOM     19  C   UNL A   1     -16.224   3.094  38.667  0.00  0.00    +0.000 A 
ATOM     20  C   UNL A   1     -17.329   3.548  39.432  0.00  0.00    +0.000 A 
ENDBRANCH  11  15
ENDBRANCH   8  14
ENDBRANCH   1   8
BRANCH   1  21
ATOM     21  C   UNL A   1     -10.018   0.642  35.415  0.00  0.00    +0.143 C 
BRANCH  21  22
ATOM     22  N   UNL A   1      -9.304   0.491  36.226  0.00  0.00    -0.278 N 
BRANCH  22  23
ATOM     23  C   UNL A   1      -7.835   0.157  35.858  0.00  0.00    +0.028 C 
ATOM     24  C   UNL A   1      -7.618  -0.910  35.010  0.00  0.00    +0.010 C 
ATOM     25  C   UNL A   1      -6.723   0.927  36.284  0.00  0.00    +0.047 C 
BRANCH  24  26
ATOM     26  C   UNL A   1      -6.270  -1.050  34.547  0.00  0.00    +0.001 C 
ATOM     27  C   UNL A   1      -5.647  -2.302  34.603  0.00  0.00    +0.000 C 
ENDBRANCH  24  26
ENDBRANCH  22  23
BRANCH  22  28
ATOM     28  C   UNL A   1      -9.522   0.532  37.583  0.00  0.00    +0.260 C 
ATOM     29  F   UNL A   1      -9.988   1.608  37.894  0.00  0.00    -0.210 F 
BRANCH  28  30
ATOM     30  C   UNL A   1     -10.472  -0.546  37.978  0.00  0.00    +0.029 A 
ATOM     31  C   UNL A   1     -10.680  -1.541  37.282  0.00  0.00    +0.000 A 
ATOM     32  C   UNL A   1     -11.538  -2.656  37.670  0.00  0.00    -0.000 A 
ATOM     33  C   UNL A   1     -12.210  -2.514  38.887  0.00  0.00    -0.000 A 
ATOM     34  C   UNL A   1     -12.017  -1.393  39.669  0.00  0.00    -0.000 A 
ATOM     35  C   UNL A   1     -11.154  -0.365  39.231  0.00  0.00    +0.000 A 
ENDBRANCH  28  30
ENDBRANCH  22  28
ENDBRANCH  21  22
ENDBRANCH   1  21
TORSDOF 12
ENDMDL
ENDMDL
