MODEL 157
MODEL 1
REMARK VINA RESULT:    -3.496      0.000      0.000
REMARK INTER + INTRA:          -3.496
REMARK INTER:                  -3.496
REMARK INTRA:                   0.000
REMARK UNBOUND:                 0.000
REMARK  Name = No_157-gen_results/8p0m/2024-11-26-14-13-15/
REMARK  0 active torsions:
REMARK  status: ('A' for Active; 'I' for Inactive)
REMARK                            x       y       z     vdW  Elec       q    Type
REMARK                         _______ _______ _______ _____ _____    ______ ____
ROOT
ATOM      1  F   UNL A   1      -7.714 -10.591  19.670  0.00  0.00    -0.140 F 
ATOM      2  C   UNL A   1      -7.769  -9.750  20.446  0.00  0.00    +0.561 C 
ATOM      3  F   UNL A   1      -7.258 -10.202  21.387  0.00  0.00    -0.140 F 
ATOM      4  F   UNL A   1      -7.131  -8.628  20.069  0.00  0.00    -0.140 F 
ATOM      5  F   UNL A   1      -9.065  -9.463  20.707  0.00  0.00    -0.140 F 
ENDROOT
TORSDOF 0
ENDMDL
ENDMDL
