REMARK  Name = No_158-gen_results/8p0m/2024-11-26-14-13-15/
REMARK  4 active torsions:
REMARK  status: ('A' for Active; 'I' for Inactive)
REMARK    1  A    between atoms: C_3  and  N_7
REMARK    2  A    between atoms: C_5  and  N_16
REMARK    3  A    between atoms: C_9  and  C_13
REMARK    4  A    between atoms: C_13  and  N_14
REMARK                            x       y       z     vdW  Elec       q    Type
REMARK                         _______ _______ _______ _____ _____    ______ ____
ROOT
ATOM      1  N   UNL A   1     -25.945   1.537  27.033  0.00  0.00    -0.307 N 
ATOM      2  C   UNL A   1     -24.644   1.312  27.545  0.00  0.00    +0.092 C 
ATOM      3  C   UNL A   1     -23.595   2.166  27.022  0.00  0.00    +0.042 C 
ATOM      4  C   UNL A   1     -25.988   2.510  26.145  0.00  0.00    +0.091 C 
ATOM      5  C   UNL A   1     -24.951   3.419  25.802  0.00  0.00    +0.021 C 
ATOM      6  C   UNL A   1     -23.700   3.188  26.277  0.00  0.00    +0.005 C 
ENDROOT
BRANCH   1   9
ATOM      7  C   UNL A   1     -28.016  -0.814  28.878  0.00  0.00    +0.003 A 
ATOM      8  C   UNL A   1     -27.064  -0.119  28.608  0.00  0.00    +0.015 A 
ATOM      9  C   UNL A   1     -26.972   0.714  27.506  0.00  0.00    +0.049 A 
ATOM     10  C   UNL A   1     -28.105   0.774  26.642  0.00  0.00    +0.029 A 
ATOM     11  C   UNL A   1     -29.204   0.118  27.048  0.00  0.00    +0.049 A 
ATOM     12  C   UNL A   1     -29.213  -0.609  28.128  0.00  0.00    +0.015 A 
BRANCH  11  13
ATOM     13  N   UNL A   1     -30.352   0.163  26.232  0.00  0.00    -0.304 N 
ATOM     14  C   UNL A   1     -30.236  -0.119  24.923  0.00  0.00    +0.112 C 
ATOM     15  C   UNL A   1     -31.622   0.396  26.745  0.00  0.00    +0.112 C 
ENDBRANCH  11  13
ENDBRANCH   1   9
BRANCH   3  16
ATOM     16  C   UNL A   1     -22.191   1.855  27.729  0.00  0.00    +0.116 C 
BRANCH  16  17
ATOM     17  N   UNL A   1     -21.883   0.631  28.147  0.00  0.00    -0.216 NA
ATOM     18  C   UNL A   1     -20.742   0.246  28.476  0.00  0.00    +0.204 C 
ATOM     19  N   UNL A   1     -20.641  -1.052  29.034  0.00  0.00    -0.127 NA
ENDBRANCH  16  17
ENDBRANCH   3  16
TORSDOF 4
