MODEL 1580
MODEL 1
REMARK VINA RESULT:    -7.416      0.000      0.000
REMARK INTER + INTRA:         -10.365
REMARK INTER:                  -9.150
REMARK INTRA:                  -1.215
REMARK UNBOUND:                -1.215
REMARK  Name = No_1580-gen_results/8p0m/2024-11-26-14-13-15/
REMARK  4 active torsions:
REMARK  status: ('A' for Active; 'I' for Inactive)
REMARK    1  A    between atoms: C_3  and  C_4
REMARK    2  A    between atoms: C_6  and  C_17
REMARK    3  A    between atoms: N_8  and  C_10
REMARK    4  A    between atoms: C_17  and  C_19
REMARK                            x       y       z     vdW  Elec       q    Type
REMARK                         _______ _______ _______ _____ _____    ______ ____
ROOT
ATOM      1  C   UNL A   1     -21.818  -0.732  29.274  0.00  0.00    +0.005 A 
ATOM      2  C   UNL A   1     -21.481   0.148  28.802  0.00  0.00    -0.000 A 
ATOM      3  C   UNL A   1     -23.181  -1.111  28.901  0.00  0.00    +0.055 A 
ATOM      4  C   UNL A   1     -22.055   1.092  27.852  0.00  0.00    -0.003 A 
ATOM      5  C   UNL A   1     -23.347   0.774  27.486  0.00  0.00    -0.003 A 
ATOM      6  C   UNL A   1     -23.916  -0.351  27.955  0.00  0.00    +0.002 A 
ENDROOT
BRANCH   3   7
ATOM      7  C   UNL A   1     -23.837  -2.360  29.349  0.00  0.00    +0.269 C 
ATOM      8  N   UNL A   1     -24.537  -2.483  30.145  0.00  0.00    -0.172 NA
ATOM      9  O   UNL A   1     -23.503  -3.432  28.592  0.00  0.00    -0.268 OA
BRANCH   8  10
ATOM     10  C   UNL A   1     -25.014  -1.432  31.116  0.00  0.00    +0.113 A 
ATOM     11  C   UNL A   1     -26.211  -0.865  30.954  0.00  0.00    +0.211 A 
ATOM     12  C   UNL A   1     -24.177  -1.111  32.198  0.00  0.00    +0.020 A 
ATOM     13  C   UNL A   1     -24.595  -0.098  33.080  0.00  0.00    +0.002 A 
ATOM     14  C   UNL A   1     -26.642   0.220  31.853  0.00  0.00    +0.043 A 
ATOM     15  C   UNL A   1     -25.853   0.544  32.906  0.00  0.00    +0.003 A 
ATOM     16  O   UNL A   1     -27.059  -1.134  29.939  0.00  0.00    -0.285 OA
ENDBRANCH   8  10
ENDBRANCH   3   7
BRANCH   5  17
ATOM     17  C   UNL A   1     -24.098   1.653  26.536  0.00  0.00    +0.124 C 
ATOM     18 CL   UNL A   1     -23.786   2.986  26.085  0.00  0.00    -0.105 Cl
BRANCH  17  19
ATOM     19  C   UNL A   1     -25.368   1.032  26.010  0.00  0.00    -0.003 A 
ATOM     20  C   UNL A   1     -26.423   1.778  26.279  0.00  0.00    -0.003 A 
ATOM     21  C   UNL A   1     -27.201   1.914  25.150  0.00  0.00    -0.000 A 
ATOM     22  C   UNL A   1     -27.529   0.792  24.277  0.00  0.00    -0.000 A 
ATOM     23  C   UNL A   1     -26.451  -0.165  24.382  0.00  0.00    -0.000 A 
ATOM     24  C   UNL A   1     -25.352   0.022  25.079  0.00  0.00    -0.003 A 
ENDBRANCH  17  19
ENDBRANCH   5  17
TORSDOF 4
ENDMDL
ENDMDL
