REMARK  Name = No_1580-gen_results/8p0m/2024-11-26-14-13-15/
REMARK  4 active torsions:
REMARK  status: ('A' for Active; 'I' for Inactive)
REMARK    1  A    between atoms: C_3  and  C_4
REMARK    2  A    between atoms: C_6  and  C_17
REMARK    3  A    between atoms: N_8  and  C_10
REMARK    4  A    between atoms: C_17  and  C_19
REMARK                            x       y       z     vdW  Elec       q    Type
REMARK                         _______ _______ _______ _____ _____    ______ ____
ROOT
ATOM      1  C   UNL A   1     -28.016  -0.814  28.878  0.00  0.00    +0.005 A 
ATOM      2  C   UNL A   1     -28.469  -0.785  29.829  0.00  0.00    -0.000 A 
ATOM      3  C   UNL A   1     -27.087   0.290  28.638  0.00  0.00    +0.055 A 
ATOM      4  C   UNL A   1     -28.391   0.104  30.980  0.00  0.00    -0.003 A 
ATOM      5  C   UNL A   1     -27.533   1.167  30.787  0.00  0.00    -0.003 A 
ATOM      6  C   UNL A   1     -26.828   1.256  29.645  0.00  0.00    +0.002 A 
ENDROOT
BRANCH   3   7
ATOM      7  C   UNL A   1     -26.252   0.411  27.422  0.00  0.00    +0.269 C 
ATOM      8  N   UNL A   1     -25.189   0.469  27.361  0.00  0.00    -0.172 NA
ATOM      9  O   UNL A   1     -26.979   0.397  26.280  0.00  0.00    -0.268 OA
BRANCH   8  10
ATOM     10  C   UNL A   1     -24.207   0.528  28.505  0.00  0.00    +0.113 A 
ATOM     11  C   UNL A   1     -23.659   1.692  28.857  0.00  0.00    +0.211 A 
ATOM     12  C   UNL A   1     -23.931  -0.665  29.194  0.00  0.00    +0.020 A 
ATOM     13  C   UNL A   1     -22.980  -0.626  30.230  0.00  0.00    +0.002 A 
ATOM     14  C   UNL A   1     -22.637   1.737  29.918  0.00  0.00    +0.043 A 
ATOM     15  C   UNL A   1     -22.358   0.599  30.599  0.00  0.00    +0.003 A 
ATOM     16  O   UNL A   1     -23.887   2.870  28.237  0.00  0.00    -0.285 OA
ENDBRANCH   8  10
ENDBRANCH   3   7
BRANCH   5  17
ATOM     17  C   UNL A   1     -27.353   2.194  31.860  0.00  0.00    +0.124 C 
ATOM     18 CL   UNL A   1     -27.723   2.134  33.252  0.00  0.00    -0.105 Cl
BRANCH  17  19
ATOM     19  C   UNL A   1     -26.707   3.469  31.377  0.00  0.00    -0.003 A 
ATOM     20  C   UNL A   1     -27.372   4.535  31.781  0.00  0.00    -0.003 A 
ATOM     21  C   UNL A   1     -26.498   5.464  32.301  0.00  0.00    -0.000 A 
ATOM     22  C   UNL A   1     -25.239   5.814  31.652  0.00  0.00    -0.000 A 
ATOM     23  C   UNL A   1     -24.807   4.659  30.898  0.00  0.00    -0.000 A 
ATOM     24  C   UNL A   1     -25.420   3.496  30.898  0.00  0.00    -0.003 A 
ENDBRANCH  17  19
ENDBRANCH   5  17
TORSDOF 4
