MODEL 1581
MODEL 1
REMARK VINA RESULT:    -7.784      0.000      0.000
REMARK INTER + INTRA:         -11.806
REMARK INTER:                 -10.059
REMARK INTRA:                  -1.746
REMARK UNBOUND:                -1.746
REMARK  Name = No_1581-gen_results/8p0m/2024-11-26-14-13-15/
REMARK  5 active torsions:
REMARK  status: ('A' for Active; 'I' for Inactive)
REMARK    1  A    between atoms: C_3  and  C_8
REMARK    2  A    between atoms: C_6  and  O_7
REMARK    3  A    between atoms: O_7  and  C_14
REMARK    4  A    between atoms: C_14  and  C_15
REMARK    5  A    between atoms: C_14  and  C_21
REMARK                            x       y       z     vdW  Elec       q    Type
REMARK                         _______ _______ _______ _____ _____    ______ ____
ROOT
ATOM      1  O   UNL A   1      -9.270   0.793  37.214  0.00  0.00    -0.470 OA
ENDROOT
BRANCH   1   7
ATOM      2  C   UNL A   1      -6.863   1.145  36.841  0.00  0.00    +0.037 A 
ATOM      3  C   UNL A   1      -5.834   0.848  36.280  0.00  0.00    +0.003 A 
ATOM      4  C   UNL A   1      -5.822  -0.082  35.246  0.00  0.00    +0.000 A 
ATOM      5  C   UNL A   1      -7.029  -0.757  34.843  0.00  0.00    +0.003 A 
ATOM      6  C   UNL A   1      -8.169  -0.371  35.561  0.00  0.00    +0.037 A 
ATOM      7  C   UNL A   1      -8.123   0.502  36.541  0.00  0.00    +0.139 A 
BRANCH   4   8
ATOM      8  C   UNL A   1      -4.610  -0.526  34.464  0.00  0.00    +0.000 A 
ATOM      9  C   UNL A   1      -3.565   0.190  34.234  0.00  0.00    +0.000 A 
ATOM     10  C   UNL A   1      -2.411  -0.357  33.542  0.00  0.00    +0.000 A 
ATOM     11  C   UNL A   1      -2.330  -1.747  33.369  0.00  0.00    +0.000 A 
ATOM     12  C   UNL A   1      -4.458  -1.964  34.271  0.00  0.00    +0.000 A 
ATOM     13  C   UNL A   1      -3.346  -2.506  33.703  0.00  0.00    +0.000 A 
ENDBRANCH   4   8
ENDBRANCH   1   7
BRANCH   1  14
ATOM     14  C   UNL A   1     -10.431   0.099  36.937  0.00  0.00    +0.210 C 
BRANCH  14  15
ATOM     15  C   UNL A   1     -10.966  -0.574  37.912  0.00  0.00    +0.021 A 
ATOM     16  C   UNL A   1     -11.650  -1.615  37.607  0.00  0.00    -0.001 A 
ATOM     17  C   UNL A   1     -12.033  -2.660  38.597  0.00  0.00    -0.000 A 
ATOM     18  C   UNL A   1     -11.807  -2.331  39.956  0.00  0.00    -0.000 A 
ATOM     19  C   UNL A   1     -11.065  -1.206  40.246  0.00  0.00    -0.000 A 
ATOM     20  C   UNL A   1     -10.560  -0.381  39.226  0.00  0.00    -0.001 A 
ENDBRANCH  14  15
BRANCH  14  21
ATOM     21  C   UNL A   1     -11.452   1.125  36.313  0.00  0.00    +0.021 A 
ATOM     22  C   UNL A   1     -11.582   1.203  35.110  0.00  0.00    -0.001 A 
ATOM     23  C   UNL A   1     -12.473   2.095  34.602  0.00  0.00    -0.000 A 
ATOM     24  C   UNL A   1     -13.348   2.790  35.467  0.00  0.00    -0.000 A 
ATOM     25  C   UNL A   1     -12.383   1.900  37.199  0.00  0.00    -0.001 A 
ATOM     26  C   UNL A   1     -13.255   2.697  36.797  0.00  0.00    -0.000 A 
ENDBRANCH  14  21
ENDBRANCH   1  14
TORSDOF 5
ENDMDL
ENDMDL
