MODEL 1582
MODEL 1
REMARK VINA RESULT:    -6.217      0.000      0.000
REMARK INTER + INTRA:          -8.107
REMARK INTER:                  -7.671
REMARK INTRA:                  -0.436
REMARK UNBOUND:                -0.436
REMARK  Name = No_1582-gen_results/8p0m/2024-11-26-14-13-15/
REMARK  4 active torsions:
REMARK  status: ('A' for Active; 'I' for Inactive)
REMARK    1  A    between atoms: C_5  and  C_12
REMARK    2  A    between atoms: C_9  and  N_11
REMARK    3  A    between atoms: N_11  and  C_15
REMARK    4  A    between atoms: C_16  and  C_17
REMARK                            x       y       z     vdW  Elec       q    Type
REMARK                         _______ _______ _______ _____ _____    ______ ____
ROOT
ATOM      1  C   UNL A   1     -23.634   0.466  27.669  0.00  0.00    +0.089 A 
ATOM      2  C   UNL A   1     -22.630   1.124  27.519  0.00  0.00    +0.018 A 
ATOM      3  C   UNL A   1     -22.512   2.136  26.586  0.00  0.00    +0.004 A 
ATOM      4  C   UNL A   1     -23.644   2.500  25.967  0.00  0.00    +0.036 A 
ATOM      5  C   UNL A   1     -23.602  -0.572  28.753  0.00  0.00    +0.097 A 
ATOM      6  C   UNL A   1     -22.392  -0.962  29.267  0.00  0.00    +0.008 A 
ATOM      7  C   UNL A   1     -21.215  -0.375  28.931  0.00  0.00    +0.000 A 
ATOM      8  C   UNL A   1     -21.264   0.706  28.059  0.00  0.00    +0.002 A 
ATOM      9  C   UNL A   1     -24.794   1.955  26.421  0.00  0.00    +0.152 A 
ATOM     10  N   UNL A   1     -24.817   0.945  27.297  0.00  0.00    -0.229 NA
ENDROOT
BRANCH   5  11
ATOM     11  C   UNL A   1     -24.818  -1.379  29.085  0.00  0.00    +0.389 C 
ATOM     12  O   UNL A   1     -25.171  -2.294  28.455  0.00  0.00    -0.240 OA
ATOM     13  O   UNL A   1     -25.456  -0.955  30.136  0.00  0.00    -0.240 OA
ENDBRANCH   5  11
BRANCH   9  14
ATOM     14  N   UNL A   1     -26.012   2.308  25.830  0.00  0.00    -0.193 NA
BRANCH  14  15
ATOM     15  C   UNL A   1     -26.718   1.407  25.172  0.00  0.00    +0.087 C 
ATOM     16  C   UNL A   1     -27.591   1.629  24.363  0.00  0.00    +0.018 C 
BRANCH  16  17
ATOM     17  C   UNL A   1     -28.349   0.651  23.600  0.00  0.00    -0.003 C 
ATOM     18  C   UNL A   1     -28.646  -0.665  24.032  0.00  0.00    -0.026 C 
ATOM     19  C   UNL A   1     -29.340  -1.566  23.277  0.00  0.00    +0.031 C 
ENDBRANCH  16  17
ENDBRANCH  14  15
ENDBRANCH   9  14
TORSDOF 4
ENDMDL
ENDMDL
