REMARK  Name = No_1582-gen_results/8p0m/2024-11-26-14-13-15/
REMARK  4 active torsions:
REMARK  status: ('A' for Active; 'I' for Inactive)
REMARK    1  A    between atoms: C_5  and  C_12
REMARK    2  A    between atoms: C_9  and  N_11
REMARK    3  A    between atoms: N_11  and  C_15
REMARK    4  A    between atoms: C_16  and  C_17
REMARK                            x       y       z     vdW  Elec       q    Type
REMARK                         _______ _______ _______ _____ _____    ______ ____
ROOT
ATOM      1  C   UNL A   1     -28.016  -0.814  28.878  0.00  0.00    +0.089 A 
ATOM      2  C   UNL A   1     -27.064  -0.119  28.608  0.00  0.00    +0.018 A 
ATOM      3  C   UNL A   1     -27.001   0.691  27.491  0.00  0.00    +0.004 A 
ATOM      4  C   UNL A   1     -28.142   0.828  26.799  0.00  0.00    +0.036 A 
ATOM      5  C   UNL A   1     -27.931  -1.607  30.150  0.00  0.00    +0.097 A 
ATOM      6  C   UNL A   1     -26.709  -1.784  30.745  0.00  0.00    +0.008 A 
ATOM      7  C   UNL A   1     -25.573  -1.181  30.308  0.00  0.00    +0.000 A 
ATOM      8  C   UNL A   1     -25.684  -0.306  29.235  0.00  0.00    +0.002 A 
ATOM      9  C   UNL A   1     -29.257   0.293  27.343  0.00  0.00    +0.152 A 
ATOM     10  N   UNL A   1     -29.223  -0.519  28.405  0.00  0.00    -0.229 NA
ENDROOT
BRANCH   5  11
ATOM     11  C   UNL A   1     -29.088  -2.428  30.626  0.00  0.00    +0.389 C 
ATOM     12  O   UNL A   1     -29.051  -3.589  30.728  0.00  0.00    -0.240 OA
ATOM     13  O   UNL A   1     -30.148  -1.727  30.903  0.00  0.00    -0.240 OA
ENDBRANCH   5  11
BRANCH   9  14
ATOM     14  N   UNL A   1     -30.483   0.417  26.680  0.00  0.00    -0.193 NA
BRANCH  14  15
ATOM     15  C   UNL A   1     -31.614   0.219  27.330  0.00  0.00    +0.087 C 
ATOM     16  C   UNL A   1     -31.962   0.771  28.350  0.00  0.00    +0.018 C 
BRANCH  16  17
ATOM     17  C   UNL A   1     -33.221   0.595  29.056  0.00  0.00    -0.003 C 
ATOM     18  C   UNL A   1     -33.577   1.249  30.261  0.00  0.00    -0.026 C 
ATOM     19  C   UNL A   1     -34.760   1.040  30.910  0.00  0.00    +0.031 C 
ENDBRANCH  16  17
ENDBRANCH  14  15
ENDBRANCH   9  14
TORSDOF 4
