REMARK  Name = No_1583-gen_results/8p0m/2024-11-26-14-13-15/
REMARK  2 active torsions:
REMARK  status: ('A' for Active; 'I' for Inactive)
REMARK    1  A    between atoms: C_2  and  C_11
REMARK    2  A    between atoms: C_17  and  C_18
REMARK                            x       y       z     vdW  Elec       q    Type
REMARK                         _______ _______ _______ _____ _____    ______ ____
ROOT
ATOM      1  C   UNL A   1     -28.016  -0.814  28.878  0.00  0.00    +0.003 A 
ATOM      2  C   UNL A   1     -28.469  -0.785  29.829  0.00  0.00    +0.080 A 
ATOM      3  C   UNL A   1     -26.546  -0.876  28.850  0.00  0.00    -0.018 A 
ATOM      4  C   UNL A   1     -25.804  -1.032  30.057  0.00  0.00    -0.007 A 
ATOM      5  C   UNL A   1     -27.944  -0.987  31.207  0.00  0.00    +0.006 A 
ATOM      6  C   UNL A   1     -26.582  -1.039  31.223  0.00  0.00    -0.000 A 
ATOM      7  C   UNL A   1     -24.381  -1.108  30.085  0.00  0.00    -0.016 A 
ATOM      8  C   UNL A   1     -23.759  -1.132  30.896  0.00  0.00    -0.004 A 
ATOM      9  C   UNL A   1     -24.356  -0.770  32.249  0.00  0.00    -0.000 A 
ATOM     10  C   UNL A   1     -25.765  -0.895  32.403  0.00  0.00    -0.000 A 
ATOM     11  C   UNL A   1     -25.770  -0.834  27.563  0.00  0.00    +0.052 C 
ATOM     12  C   UNL A   1     -24.722   0.143  27.546  0.00  0.00    -0.026 C 
ATOM     13  C   UNL A   1     -24.359   0.839  28.460  0.00  0.00    -0.024 C 
ATOM     14  C   UNL A   1     -23.697  -0.087  29.535  0.00  0.00    +0.077 C 
ENDROOT
BRANCH   2  15
ATOM     15  C   UNL A   1     -30.096  -0.773  29.858  0.00  0.00    +0.388 C 
ATOM     16  O   UNL A   1     -30.529  -0.245  28.938  0.00  0.00    -0.241 OA
ATOM     17  O   UNL A   1     -30.765  -1.192  30.848  0.00  0.00    -0.241 OA
ENDBRANCH   2  15
BRANCH  14  18
ATOM     18  C   UNL A   1     -22.194   0.156  29.676  0.00  0.00    +0.191 C 
ATOM     19  O   UNL A   1     -21.843   1.293  29.163  0.00  0.00    -0.220 OA
ENDBRANCH  14  18
TORSDOF 2
