MODEL 1584
MODEL 1
REMARK VINA RESULT:    -6.194      0.000      0.000
REMARK INTER + INTRA:          -6.679
REMARK INTER:                  -6.557
REMARK INTRA:                  -0.123
REMARK UNBOUND:                -0.123
REMARK  Name = No_1584-gen_results/8p0m/2024-11-26-14-13-15/
REMARK  1 active torsions:
REMARK  status: ('A' for Active; 'I' for Inactive)
REMARK    1  A    between atoms: C_7  and  C_9
REMARK                            x       y       z     vdW  Elec       q    Type
REMARK                         _______ _______ _______ _____ _____    ______ ____
ROOT
ATOM      1 BR   UNL A   1     -26.466  -0.272  30.021  0.00  0.00    -0.049 Br
ATOM      2  C   UNL A   1     -26.061  -1.851  29.742  0.00  0.00    +0.035 A 
ATOM      3  C   UNL A   1     -26.737  -2.900  30.042  0.00  0.00    +0.008 A 
ATOM      4  C   UNL A   1     -26.348  -4.239  29.776  0.00  0.00    +0.012 A 
ATOM      5  C   UNL A   1     -25.153  -4.459  29.069  0.00  0.00    +0.058 A 
ATOM      6  C   UNL A   1     -24.435  -3.354  28.691  0.00  0.00    +0.012 A 
ATOM      7  C   UNL A   1     -24.854  -2.122  28.961  0.00  0.00    +0.007 A 
ATOM      8 CL   UNL A   1     -24.677  -6.079  28.719  0.00  0.00    -0.082 Cl
ENDROOT
BRANCH   7   9
ATOM      9  C   UNL A   1     -24.171  -0.893  28.647  0.00  0.00    +0.001 A 
ATOM     10  C   UNL A   1     -22.840  -0.774  29.156  0.00  0.00    +0.000 A 
ATOM     11  C   UNL A   1     -21.974   0.287  28.784  0.00  0.00    +0.000 A 
ATOM     12  C   UNL A   1     -22.395   1.116  27.787  0.00  0.00    +0.000 A 
ATOM     13  C   UNL A   1     -23.609   0.907  27.093  0.00  0.00    +0.000 A 
ATOM     14  C   UNL A   1     -24.400  -0.115  27.508  0.00  0.00    +0.000 A 
ENDBRANCH   7   9
TORSDOF 1
ENDMDL
ENDMDL
