REMARK  Name = No_1584-gen_results/8p0m/2024-11-26-14-13-15/
REMARK  1 active torsions:
REMARK  status: ('A' for Active; 'I' for Inactive)
REMARK    1  A    between atoms: C_7  and  C_9
REMARK                            x       y       z     vdW  Elec       q    Type
REMARK                         _______ _______ _______ _____ _____    ______ ____
ROOT
ATOM      1 BR   UNL A   1     -28.115  -0.626  29.081  0.00  0.00    -0.049 Br
ATOM      2  C   UNL A   1     -26.927   0.455  28.685  0.00  0.00    +0.035 A 
ATOM      3  C   UNL A   1     -25.846   0.704  29.331  0.00  0.00    +0.008 A 
ATOM      4  C   UNL A   1     -24.851   1.641  28.947  0.00  0.00    +0.012 A 
ATOM      5  C   UNL A   1     -25.010   2.321  27.727  0.00  0.00    +0.058 A 
ATOM      6  C   UNL A   1     -26.131   2.037  26.991  0.00  0.00    +0.012 A 
ATOM      7  C   UNL A   1     -27.026   1.143  27.398  0.00  0.00    +0.007 A 
ATOM      8 CL   UNL A   1     -23.799   3.446  27.235  0.00  0.00    -0.082 Cl
ENDROOT
BRANCH   7   9
ATOM      9  C   UNL A   1     -28.253   0.789  26.731  0.00  0.00    +0.001 A 
ATOM     10  C   UNL A   1     -28.976   1.873  26.144  0.00  0.00    +0.000 A 
ATOM     11  C   UNL A   1     -30.100   1.672  25.300  0.00  0.00    +0.000 A 
ATOM     12  C   UNL A   1     -30.379   0.390  24.927  0.00  0.00    +0.000 A 
ATOM     13  C   UNL A   1     -29.558  -0.700  25.299  0.00  0.00    +0.000 A 
ATOM     14  C   UNL A   1     -28.509  -0.443  26.121  0.00  0.00    +0.000 A 
ENDBRANCH   7   9
TORSDOF 1
