REMARK  Name = No_1585-gen_results/8p0m/2024-11-26-14-13-15/
REMARK  6 active torsions:
REMARK  status: ('A' for Active; 'I' for Inactive)
REMARK    1  A    between atoms: C_1  and  O_14
REMARK    2  A    between atoms: C_2  and  C_8
REMARK    3  A    between atoms: O_14  and  C_15
REMARK    4  A    between atoms: C_15  and  C_16
REMARK    5  A    between atoms: C_15  and  C_23
REMARK    6  A    between atoms: C_16  and  C_17
REMARK                            x       y       z     vdW  Elec       q    Type
REMARK                         _______ _______ _______ _____ _____    ______ ____
ROOT
ATOM      1  C   UNL A   1     -28.016  -0.814  28.878  0.00  0.00    +0.139 A 
ATOM      2  C   UNL A   1     -27.064  -0.119  28.608  0.00  0.00    +0.034 A 
ATOM      3  C   UNL A   1     -26.972   0.714  27.506  0.00  0.00    +0.004 A 
ATOM      4  C   UNL A   1     -28.105   0.774  26.642  0.00  0.00    +0.007 A 
ATOM      5  C   UNL A   1     -29.201   0.104  27.053  0.00  0.00    +0.038 A 
ATOM      6  C   UNL A   1     -29.210  -0.603  28.185  0.00  0.00    +0.044 A 
ATOM      7 BR   UNL A   1     -30.691   0.254  25.950  0.00  0.00    -0.049 Br
ENDROOT
BRANCH   2   8
ATOM      8  C   UNL A   1     -25.696  -0.234  29.420  0.00  0.00    +0.003 A 
ATOM      9  C   UNL A   1     -24.744  -1.056  29.000  0.00  0.00    +0.000 A 
ATOM     10  C   UNL A   1     -23.498  -1.168  29.639  0.00  0.00    +0.000 A 
ATOM     11  C   UNL A   1     -23.234  -0.342  30.719  0.00  0.00    +0.000 A 
ATOM     12  C   UNL A   1     -24.236   0.461  31.231  0.00  0.00    +0.000 A 
ATOM     13  C   UNL A   1     -25.462   0.563  30.515  0.00  0.00    +0.000 A 
ENDBRANCH   2   8
BRANCH   1  14
ATOM     14  O   UNL A   1     -28.096  -1.623  29.998  0.00  0.00    -0.471 OA
BRANCH  14  15
ATOM     15  C   UNL A   1     -29.115  -1.710  30.799  0.00  0.00    +0.234 C 
BRANCH  15  16
ATOM     16  C   UNL A   1     -30.064  -2.652  30.631  0.00  0.00    +0.251 C 
ATOM     17  O   UNL A   1     -29.774  -3.708  30.204  0.00  0.00    -0.284 OA
ENDBRANCH  15  16
BRANCH  15  18
ATOM     18  C   UNL A   1     -29.054  -0.916  31.859  0.00  0.00    +0.078 C 
BRANCH  18  19
ATOM     19  C   UNL A   1     -29.701  -0.065  32.219  0.00  0.00    -0.018 A 
ATOM     20  C   UNL A   1     -29.577   0.832  33.393  0.00  0.00    -0.004 A 
ATOM     21  C   UNL A   1     -30.277   2.028  33.665  0.00  0.00    -0.000 A 
ATOM     22  C   UNL A   1     -31.281   2.309  32.712  0.00  0.00    -0.000 A 
ATOM     23  C   UNL A   1     -31.464   1.567  31.582  0.00  0.00    -0.000 A 
ATOM     24  C   UNL A   1     -30.684   0.524  31.305  0.00  0.00    -0.004 A 
ENDBRANCH  18  19
ENDBRANCH  15  18
ENDBRANCH  14  15
ENDBRANCH   1  14
TORSDOF 6
