MODEL 1585
MODEL 1
REMARK VINA RESULT:    -6.947      0.000      0.000
REMARK INTER + INTRA:         -10.817
REMARK INTER:                  -9.384
REMARK INTRA:                  -1.433
REMARK UNBOUND:                -1.433
REMARK  Name = No_1585-gen_results/8p0m/2024-11-26-14-13-15/
REMARK  6 active torsions:
REMARK  status: ('A' for Active; 'I' for Inactive)
REMARK    1  A    between atoms: C_1  and  O_14
REMARK    2  A    between atoms: C_2  and  C_8
REMARK    3  A    between atoms: O_14  and  C_15
REMARK    4  A    between atoms: C_15  and  C_16
REMARK    5  A    between atoms: C_15  and  C_23
REMARK    6  A    between atoms: C_16  and  C_17
REMARK                            x       y       z     vdW  Elec       q    Type
REMARK                         _______ _______ _______ _____ _____    ______ ____
ROOT
ATOM      1  C   UNL A   1     -10.359   0.761  35.732  0.00  0.00    +0.139 A 
ATOM      2  C   UNL A   1      -9.914   0.354  36.780  0.00  0.00    +0.034 A 
ATOM      3  C   UNL A   1      -8.585   0.428  37.163  0.00  0.00    +0.004 A 
ATOM      4  C   UNL A   1      -7.683   1.061  36.258  0.00  0.00    +0.007 A 
ATOM      5  C   UNL A   1      -8.238   1.635  35.171  0.00  0.00    +0.038 A 
ATOM      6  C   UNL A   1      -9.551   1.580  34.940  0.00  0.00    +0.044 A 
ATOM      7 BR   UNL A   1      -7.054   2.518  34.041  0.00  0.00    -0.049 Br
ENDROOT
BRANCH   2   8
ATOM      8  C   UNL A   1     -10.807  -0.505  37.783  0.00  0.00    +0.003 A 
ATOM      9  C   UNL A   1     -11.113  -1.761  37.487  0.00  0.00    +0.000 A 
ATOM     10  C   UNL A   1     -11.853  -2.587  38.349  0.00  0.00    +0.000 A 
ATOM     11  C   UNL A   1     -12.228  -2.085  39.585  0.00  0.00    +0.000 A 
ATOM     12  C   UNL A   1     -11.997  -0.756  39.884  0.00  0.00    +0.000 A 
ATOM     13  C   UNL A   1     -11.207   0.019  38.990  0.00  0.00    +0.000 A 
ENDBRANCH   2   8
BRANCH   1  14
ATOM     14  O   UNL A   1     -11.696   0.698  35.378  0.00  0.00    -0.471 OA
BRANCH  14  15
ATOM     15  C   UNL A   1     -12.358   1.622  34.749  0.00  0.00    +0.234 C 
BRANCH  15  16
ATOM     16  C   UNL A   1     -12.893   1.400  33.532  0.00  0.00    +0.251 C 
ATOM     17  O   UNL A   1     -12.193   1.173  32.615  0.00  0.00    -0.284 OA
ENDBRANCH  15  16
BRANCH  15  18
ATOM     18  C   UNL A   1     -12.591   2.716  35.460  0.00  0.00    +0.078 C 
BRANCH  18  19
ATOM     19  C   UNL A   1     -13.420   3.011  36.166  0.00  0.00    -0.018 A 
ATOM     20  C   UNL A   1     -14.835   3.375  35.918  0.00  0.00    -0.004 A 
ATOM     21  C   UNL A   1     -15.888   3.503  36.851  0.00  0.00    -0.000 A 
ATOM     22  C   UNL A   1     -15.462   3.347  38.189  0.00  0.00    -0.000 A 
ATOM     23  C   UNL A   1     -14.191   2.986  38.529  0.00  0.00    -0.000 A 
ATOM     24  C   UNL A   1     -13.268   2.745  37.600  0.00  0.00    -0.004 A 
ENDBRANCH  18  19
ENDBRANCH  15  18
ENDBRANCH  14  15
ENDBRANCH   1  14
TORSDOF 6
ENDMDL
ENDMDL
