REMARK  Name = No_1586-gen_results/8p0m/2024-11-26-14-13-15/
REMARK  8 active torsions:
REMARK  status: ('A' for Active; 'I' for Inactive)
REMARK    1  A    between atoms: C_1  and  C_2
REMARK    2  A    between atoms: C_1  and  N_8
REMARK    3  A    between atoms: C_5  and  C_13
REMARK    4  A    between atoms: N_8  and  C_9
REMARK    5  A    between atoms: C_10  and  C_11
REMARK    6  A    between atoms: C_11  and  C_12
REMARK    7  A    between atoms: C_16  and  C_17
REMARK    8  A    between atoms: C_20  and  C_23
REMARK                            x       y       z     vdW  Elec       q    Type
REMARK                         _______ _______ _______ _____ _____    ______ ____
ROOT
ATOM      1  C   UNL A   1     -28.932   0.323  30.538  0.00  0.00    +0.076 C 
ATOM      2  C   UNL A   1     -29.304   1.006  31.266  0.00  0.00    -0.004 C 
ENDROOT
BRANCH   1   3
ATOM      3  N   UNL A   1     -28.730  -0.530  30.043  0.00  0.00    -0.232 NA
BRANCH   3   4
ATOM      4  C   UNL A   1     -28.016  -0.814  28.878  0.00  0.00    +0.139 C 
BRANCH   4   5
ATOM      5  C   UNL A   1     -27.064  -0.119  28.608  0.00  0.00    -0.001 A 
ATOM      6  C   UNL A   1     -27.001   0.691  27.491  0.00  0.00    -0.002 A 
ATOM      7  C   UNL A   1     -25.855   1.482  27.083  0.00  0.00    +0.006 A 
ATOM      8  C   UNL A   1     -24.690   1.453  27.881  0.00  0.00    +0.080 A 
ATOM      9  C   UNL A   1     -24.738   0.601  29.042  0.00  0.00    +0.006 A 
ATOM     10  C   UNL A   1     -25.823  -0.169  29.389  0.00  0.00    -0.002 A 
BRANCH   8  11
ATOM     11  C   UNL A   1     -23.520   2.233  27.583  0.00  0.00    +0.388 C 
ATOM     12  O   UNL A   1     -22.584   1.931  27.049  0.00  0.00    -0.241 OA
ATOM     13  O   UNL A   1     -23.705   3.541  27.911  0.00  0.00    -0.241 OA
ENDBRANCH   8  11
ENDBRANCH   4   5
ENDBRANCH   3   4
ENDBRANCH   1   3
BRANCH   2  14
ATOM     14  C   UNL A   1     -29.747   2.212  31.876  0.00  0.00    +0.053 C 
BRANCH  14  15
ATOM     15  C   UNL A   1     -29.929   3.224  32.386  0.00  0.00    -0.021 C 
ATOM     16  C   UNL A   1     -30.175   4.369  32.676  0.00  0.00    -0.004 C 
BRANCH  16  17
ATOM     17  C   UNL A   1     -30.394   5.561  32.972  0.00  0.00    -0.000 A 
ATOM     18  C   UNL A   1     -30.311   5.984  34.255  0.00  0.00    +0.000 A 
ATOM     19  C   UNL A   1     -30.683   7.309  34.517  0.00  0.00    +0.002 A 
ATOM     20  C   UNL A   1     -31.104   8.096  33.440  0.00  0.00    +0.021 A 
ATOM     21  C   UNL A   1     -31.154   7.622  32.181  0.00  0.00    +0.002 A 
ATOM     22  C   UNL A   1     -30.807   6.386  31.905  0.00  0.00    +0.000 A 
BRANCH  20  23
ATOM     23  C   UNL A   1     -31.493   9.518  33.748  0.00  0.00    +0.122 C 
ATOM     24  N   UNL A   1     -32.124  10.194  33.225  0.00  0.00    -0.146 NA
ENDBRANCH  20  23
ENDBRANCH  16  17
ENDBRANCH  14  15
ENDBRANCH   2  14
TORSDOF 8
