MODEL 1586
MODEL 1
REMARK VINA RESULT:    -6.454      0.000      0.000
REMARK INTER + INTRA:         -10.068
REMARK INTER:                  -9.472
REMARK INTRA:                  -0.597
REMARK UNBOUND:                -0.597
REMARK  Name = No_1586-gen_results/8p0m/2024-11-26-14-13-15/
REMARK  8 active torsions:
REMARK  status: ('A' for Active; 'I' for Inactive)
REMARK    1  A    between atoms: C_1  and  C_2
REMARK    2  A    between atoms: C_1  and  N_8
REMARK    3  A    between atoms: C_5  and  C_13
REMARK    4  A    between atoms: N_8  and  C_9
REMARK    5  A    between atoms: C_10  and  C_11
REMARK    6  A    between atoms: C_11  and  C_12
REMARK    7  A    between atoms: C_16  and  C_17
REMARK    8  A    between atoms: C_20  and  C_23
REMARK                            x       y       z     vdW  Elec       q    Type
REMARK                         _______ _______ _______ _____ _____    ______ ____
ROOT
ATOM      1  C   UNL A   1     -30.312 -15.008  26.036  0.00  0.00    +0.076 C 
ATOM      2  C   UNL A   1     -30.232 -14.236  26.766  0.00  0.00    -0.004 C 
ENDROOT
BRANCH   1   3
ATOM      3  N   UNL A   1     -30.654 -15.572  25.275  0.00  0.00    -0.232 NA
BRANCH   3   4
ATOM      4  C   UNL A   1     -31.386 -15.282  24.123  0.00  0.00    +0.139 C 
BRANCH   4   5
ATOM      5  C   UNL A   1     -30.856 -14.620  23.261  0.00  0.00    -0.001 A 
ATOM      6  C   UNL A   1     -30.031 -15.151  22.289  0.00  0.00    -0.002 A 
ATOM      7  C   UNL A   1     -29.312 -14.392  21.283  0.00  0.00    +0.006 A 
ATOM      8  C   UNL A   1     -29.455 -12.987  21.260  0.00  0.00    +0.080 A 
ATOM      9  C   UNL A   1     -30.303 -12.420  22.277  0.00  0.00    +0.006 A 
ATOM     10  C   UNL A   1     -30.945 -13.156  23.244  0.00  0.00    -0.002 A 
BRANCH   8  11
ATOM     11  C   UNL A   1     -28.818 -12.153  20.277  0.00  0.00    +0.388 C 
ATOM     12  O   UNL A   1     -27.950 -12.383  19.608  0.00  0.00    -0.241 OA
ATOM     13  O   UNL A   1     -29.501 -10.989  20.103  0.00  0.00    -0.241 OA
ENDBRANCH   8  11
ENDBRANCH   4   5
ENDBRANCH   3   4
ENDBRANCH   1   3
BRANCH   2  14
ATOM     14  C   UNL A   1     -29.673 -13.335  27.714  0.00  0.00    +0.053 C 
BRANCH  14  15
ATOM     15  C   UNL A   1     -29.371 -12.641  28.577  0.00  0.00    -0.021 C 
ATOM     16  C   UNL A   1     -29.085 -12.128  29.631  0.00  0.00    -0.004 C 
BRANCH  16  17
ATOM     17  C   UNL A   1     -28.825 -11.589  30.725  0.00  0.00    -0.000 A 
ATOM     18  C   UNL A   1     -27.878 -12.104  31.544  0.00  0.00    +0.000 A 
ATOM     19  C   UNL A   1     -27.727 -11.506  32.802  0.00  0.00    +0.002 A 
ATOM     20  C   UNL A   1     -28.555 -10.423  33.116  0.00  0.00    +0.021 A 
ATOM     21  C   UNL A   1     -29.472  -9.947  32.253  0.00  0.00    +0.002 A 
ATOM     22  C   UNL A   1     -29.633 -10.484  31.066  0.00  0.00    +0.000 A 
BRANCH  20  23
ATOM     23  C   UNL A   1     -28.369  -9.795  34.472  0.00  0.00    +0.122 C 
ATOM     24  N   UNL A   1     -27.498  -9.678  35.069  0.00  0.00    -0.146 NA
ENDBRANCH  20  23
ENDBRANCH  16  17
ENDBRANCH  14  15
ENDBRANCH   2  14
TORSDOF 8
ENDMDL
ENDMDL
