MODEL 1587
MODEL 1
REMARK VINA RESULT:    -5.392      0.000      0.000
REMARK INTER + INTRA:          -5.834
REMARK INTER:                  -5.707
REMARK INTRA:                  -0.127
REMARK UNBOUND:                -0.127
REMARK  Name = No_1587-gen_results/8p0m/2024-11-26-14-13-15/
REMARK  1 active torsions:
REMARK  status: ('A' for Active; 'I' for Inactive)
REMARK    1  A    between atoms: C_5  and  C_7
REMARK                            x       y       z     vdW  Elec       q    Type
REMARK                         _______ _______ _______ _____ _____    ______ ____
ROOT
ATOM      1  C   UNL A   1     -24.539  -5.156  28.905  0.00  0.00    +0.000 A 
ATOM      2  C   UNL A   1     -25.697  -5.165  29.254  0.00  0.00    +0.007 A 
ATOM      3  C   UNL A   1     -26.380  -4.079  29.775  0.00  0.00    +0.035 A 
ATOM      4  C   UNL A   1     -25.663  -2.851  29.879  0.00  0.00    +0.011 A 
ATOM      5  C   UNL A   1     -24.425  -2.839  29.344  0.00  0.00    +0.072 A 
ATOM      6  C   UNL A   1     -23.891  -3.925  28.783  0.00  0.00    +0.004 A 
ATOM      7 BR   UNL A   1     -28.131  -4.229  30.521  0.00  0.00    -0.049 Br
ENDROOT
BRANCH   5   8
ATOM      8  C   UNL A   1     -23.730  -1.539  29.427  0.00  0.00    +0.419 C 
ATOM      9  F   UNL A   1     -24.289  -0.677  28.897  0.00  0.00    -0.166 F 
ATOM     10  F   UNL A   1     -23.486  -1.285  30.723  0.00  0.00    -0.166 F 
ATOM     11  F   UNL A   1     -22.488  -1.648  28.839  0.00  0.00    -0.166 F 
ENDBRANCH   5   8
TORSDOF 1
ENDMDL
ENDMDL
