MODEL 1588
MODEL 1
REMARK VINA RESULT:    -4.281      0.000      0.000
REMARK INTER + INTRA:          -4.281
REMARK INTER:                  -4.281
REMARK INTRA:                   0.000
REMARK UNBOUND:                 0.000
REMARK  Name = No_1588-gen_results/8p0m/2024-11-26-14-13-15/
REMARK  0 active torsions:
REMARK  status: ('A' for Active; 'I' for Inactive)
REMARK                            x       y       z     vdW  Elec       q    Type
REMARK                         _______ _______ _______ _____ _____    ______ ____
ROOT
ATOM      1  C   UNL A   1     -26.065  -4.838  29.656  0.00  0.00    +0.000 A 
ATOM      2  C   UNL A   1     -26.196  -3.637  29.721  0.00  0.00    +0.000 A 
ATOM      3  C   UNL A   1     -25.226  -2.739  29.322  0.00  0.00    +0.000 A 
ATOM      4  C   UNL A   1     -24.022  -3.260  28.769  0.00  0.00    +0.000 A 
ATOM      5  C   UNL A   1     -23.993  -4.597  28.560  0.00  0.00    +0.000 A 
ATOM      6  C   UNL A   1     -24.988  -5.377  28.938  0.00  0.00    +0.000 A 
ENDROOT
TORSDOF 0
ENDMDL
ENDMDL
