MODEL 1589
MODEL 1
REMARK VINA RESULT:    -6.395      0.000      0.000
REMARK INTER + INTRA:          -7.684
REMARK INTER:                  -7.143
REMARK INTRA:                  -0.541
REMARK UNBOUND:                -0.541
REMARK  Name = No_1589-gen_results/8p0m/2024-11-26-14-13-15/
REMARK  2 active torsions:
REMARK  status: ('A' for Active; 'I' for Inactive)
REMARK    1  A    between atoms: C_3  and  C_4
REMARK    2  A    between atoms: C_4  and  C_8
REMARK                            x       y       z     vdW  Elec       q    Type
REMARK                         _______ _______ _______ _____ _____    ______ ____
ROOT
ATOM      1  C   UNL A   1     -24.400  -1.187  29.663  0.00  0.00    +0.053 C 
ENDROOT
BRANCH   1   4
ATOM      2  C   UNL A   1     -24.895  -0.174  27.357  0.00  0.00    -0.004 A 
ATOM      3  C   UNL A   1     -24.605   0.532  26.631  0.00  0.00    -0.000 A 
ATOM      4  C   UNL A   1     -24.077  -0.319  28.500  0.00  0.00    -0.018 A 
ATOM      5  C   UNL A   1     -23.444   1.436  26.565  0.00  0.00    -0.000 A 
ATOM      6  C   UNL A   1     -22.587   1.346  27.662  0.00  0.00    -0.000 A 
ATOM      7  C   UNL A   1     -22.902   0.503  28.679  0.00  0.00    -0.004 A 
ENDBRANCH   1   4
BRANCH   1   8
ATOM      8  C   UNL A   1     -24.804  -2.530  29.390  0.00  0.00    -0.018 A 
ATOM      9  C   UNL A   1     -25.924  -2.988  29.811  0.00  0.00    -0.004 A 
ATOM     10  C   UNL A   1     -26.185  -4.504  29.646  0.00  0.00    -0.000 A 
ATOM     11  C   UNL A   1     -25.198  -5.285  29.018  0.00  0.00    -0.000 A 
ATOM     12  C   UNL A   1     -24.072  -4.688  28.538  0.00  0.00    -0.000 A 
ATOM     13  C   UNL A   1     -23.779  -3.344  28.811  0.00  0.00    -0.004 A 
ENDBRANCH   1   8
TORSDOF 2
ENDMDL
ENDMDL
