MODEL 158
MODEL 1
REMARK VINA RESULT:    -6.850      0.000      0.000
REMARK INTER + INTRA:          -8.946
REMARK INTER:                  -8.452
REMARK INTRA:                  -0.494
REMARK UNBOUND:                -0.494
REMARK  Name = No_158-gen_results/8p0m/2024-11-26-14-13-15/
REMARK  4 active torsions:
REMARK  status: ('A' for Active; 'I' for Inactive)
REMARK    1  A    between atoms: C_3  and  N_7
REMARK    2  A    between atoms: C_5  and  N_16
REMARK    3  A    between atoms: C_9  and  C_13
REMARK    4  A    between atoms: C_13  and  N_14
REMARK                            x       y       z     vdW  Elec       q    Type
REMARK                         _______ _______ _______ _____ _____    ______ ____
ROOT
ATOM      1  N   UNL A   1     -23.464  -1.607  28.783  0.00  0.00    -0.307 N 
ATOM      2  C   UNL A   1     -24.117  -0.536  28.126  0.00  0.00    +0.092 C 
ATOM      3  C   UNL A   1     -23.354   0.689  27.986  0.00  0.00    +0.042 C 
ATOM      4  C   UNL A   1     -22.239  -1.306  29.166  0.00  0.00    +0.091 C 
ATOM      5  C   UNL A   1     -21.492  -0.140  28.848  0.00  0.00    +0.021 C 
ATOM      6  C   UNL A   1     -22.127   0.893  28.237  0.00  0.00    +0.005 C 
ENDROOT
BRANCH   1   9
ATOM      7  C   UNL A   1     -24.625  -5.052  28.834  0.00  0.00    +0.003 A 
ATOM      8  C   UNL A   1     -23.878  -4.115  28.673  0.00  0.00    +0.015 A 
ATOM      9  C   UNL A   1     -24.185  -2.794  28.949  0.00  0.00    +0.049 A 
ATOM     10  C   UNL A   1     -25.476  -2.528  29.493  0.00  0.00    +0.029 A 
ATOM     11  C   UNL A   1     -26.225  -3.596  29.810  0.00  0.00    +0.049 A 
ATOM     12  C   UNL A   1     -25.834  -4.812  29.554  0.00  0.00    +0.015 A 
BRANCH  11  13
ATOM     13  N   UNL A   1     -27.502  -3.380  30.365  0.00  0.00    -0.304 N 
ATOM     14  C   UNL A   1     -28.287  -4.437  30.632  0.00  0.00    +0.112 C 
ATOM     15  C   UNL A   1     -27.948  -2.118  30.738  0.00  0.00    +0.112 C 
ENDBRANCH  11  13
ENDBRANCH   1   9
BRANCH   3  16
ATOM     16  C   UNL A   1     -24.179   1.794  27.170  0.00  0.00    +0.116 C 
BRANCH  16  17
ATOM     17  N   UNL A   1     -24.128   3.080  27.502  0.00  0.00    -0.216 NA
ATOM     18  C   UNL A   1     -24.990   3.935  27.213  0.00  0.00    +0.204 C 
ATOM     19  N   UNL A   1     -24.830   5.223  27.781  0.00  0.00    -0.127 NA
ENDBRANCH  16  17
ENDBRANCH   3  16
TORSDOF 4
ENDMDL
ENDMDL
