REMARK  Name = No_159-gen_results/8p0m/2024-11-26-14-13-15/
REMARK  2 active torsions:
REMARK  status: ('A' for Active; 'I' for Inactive)
REMARK    1  A    between atoms: C_3  and  O_10
REMARK    2  A    between atoms: O_10  and  C_11
REMARK                            x       y       z     vdW  Elec       q    Type
REMARK                         _______ _______ _______ _____ _____    ______ ____
ROOT
ATOM      1  C   UNL A   1     -28.016  -0.814  28.878  0.00  0.00    +0.052 A 
ATOM      2  C   UNL A   1     -28.469  -0.785  29.829  0.00  0.00    +0.067 A 
ATOM      3  C   UNL A   1     -26.504  -0.778  28.877  0.00  0.00    +0.173 A 
ATOM      4  C   UNL A   1     -25.915  -0.658  29.923  0.00  0.00    +0.175 A 
ATOM      5  C   UNL A   1     -27.969  -0.724  31.205  0.00  0.00    +0.048 A 
ATOM      6  C   UNL A   1     -26.585  -0.639  31.206  0.00  0.00    +0.040 A 
ATOM      7 CL   UNL A   1     -30.294  -0.893  29.884  0.00  0.00    -0.082 Cl
ATOM      8  F   UNL A   1     -24.534  -0.580  29.972  0.00  0.00    -0.201 F 
ATOM      9 BR   UNL A   1     -28.805  -0.778  32.932  0.00  0.00    -0.048 Br
ENDROOT
BRANCH   3  10
ATOM     10  O   UNL A   1     -25.773  -0.781  27.667  0.00  0.00    -0.449 OA
BRANCH  10  11
ATOM     11  C   UNL A   1     -25.779   0.330  26.875  0.00  0.00    +0.175 C 
ATOM     12  C   UNL A   1     -24.515   0.873  26.945  0.00  0.00    +0.015 C 
ATOM     13  C   UNL A   1     -24.339   2.058  26.052  0.00  0.00    +0.034 C 
ENDBRANCH  10  11
ENDBRANCH   3  10
TORSDOF 2
