REMARK  Name = No_1590-gen_results/8p0m/2024-11-26-14-13-15/
REMARK  2 active torsions:
REMARK  status: ('A' for Active; 'I' for Inactive)
REMARK    1  A    between atoms: N_20  and  C_23
REMARK    2  A    between atoms: C_23  and  C_24
REMARK                            x       y       z     vdW  Elec       q    Type
REMARK                         _______ _______ _______ _____ _____    ______ ____
ROOT
ATOM      1  C   UNL A   1     -28.016  -0.814  28.878  0.00  0.00    +0.015 A 
ATOM      2  C   UNL A   1     -28.469  -0.785  29.829  0.00  0.00    +0.001 A 
ATOM      3  C   UNL A   1     -27.136   0.236  28.535  0.00  0.00    +0.048 A 
ATOM      4  C   UNL A   1     -26.875   1.282  29.398  0.00  0.00    -0.004 A 
ATOM      5  C   UNL A   1     -28.361   0.199  30.924  0.00  0.00    -0.000 A 
ATOM      6  C   UNL A   1     -25.972   2.385  29.104  0.00  0.00    +0.057 C 
ATOM      7  C   UNL A   1     -27.512   1.232  30.632  0.00  0.00    -0.003 A 
ATOM      8  C   UNL A   1     -25.301   2.505  28.034  0.00  0.00    +0.015 A 
ATOM      9  C   UNL A   1     -24.728   1.480  27.381  0.00  0.00    +0.002 A 
ATOM     10  C   UNL A   1     -24.200   0.425  28.072  0.00  0.00    +0.013 A 
ATOM     11  C   UNL A   1     -23.139   0.666  28.962  0.00  0.00    +0.001 A 
ATOM     12  C   UNL A   1     -22.521  -0.499  29.576  0.00  0.00    +0.000 A 
ATOM     13  C   UNL A   1     -23.146  -1.710  29.444  0.00  0.00    +0.001 A 
ATOM     14  C   UNL A   1     -24.358  -1.837  28.974  0.00  0.00    +0.015 A 
ATOM     15  C   UNL A   1     -24.851  -0.808  28.167  0.00  0.00    +0.052 A 
ATOM     16  N   UNL A   1     -26.046  -0.147  27.703  0.00  0.00    -0.285 N 
ATOM     17  C   UNL A   1     -26.243  -0.214  26.353  0.00  0.00    +0.117 C 
ATOM     18  C   UNL A   1     -24.000   1.811  26.146  0.00  0.00    +0.021 A 
ATOM     19  C   UNL A   1     -25.393   3.886  27.398  0.00  0.00    +0.144 A 
ATOM     20  N   UNL A   1     -25.942   4.898  28.059  0.00  0.00    -0.216 NA
ATOM     21  N   UNL A   1     -24.635   4.193  26.343  0.00  0.00    -0.228 NA
ATOM     22  C   UNL A   1     -23.959   3.170  25.649  0.00  0.00    +0.100 A 
ENDROOT
BRANCH  20  23
ATOM     23  C   UNL A   1     -26.113   6.003  27.746  0.00  0.00    +0.140 C 
BRANCH  23  24
ATOM     24  C   UNL A   1     -26.632   6.963  28.690  0.00  0.00    -0.001 A 
ATOM     25  C   UNL A   1     -26.835   8.134  28.590  0.00  0.00    -0.003 A 
ATOM     26  C   UNL A   1     -27.352   9.057  29.609  0.00  0.00    -0.000 A 
ATOM     27  C   UNL A   1     -27.718   8.496  30.800  0.00  0.00    -0.000 A 
ATOM     28  C   UNL A   1     -27.515   7.153  31.009  0.00  0.00    -0.000 A 
ATOM     29  C   UNL A   1     -26.910   6.325  30.027  0.00  0.00    -0.003 A 
ENDBRANCH  23  24
ENDBRANCH  20  23
TORSDOF 2
