MODEL 1590
MODEL 1
REMARK VINA RESULT:    -8.104      0.000      0.000
REMARK INTER + INTRA:          -9.468
REMARK INTER:                  -9.052
REMARK INTRA:                  -0.417
REMARK UNBOUND:                -0.417
REMARK  Name = No_1590-gen_results/8p0m/2024-11-26-14-13-15/
REMARK  2 active torsions:
REMARK  status: ('A' for Active; 'I' for Inactive)
REMARK    1  A    between atoms: N_20  and  C_23
REMARK    2  A    between atoms: C_23  and  C_24
REMARK                            x       y       z     vdW  Elec       q    Type
REMARK                         _______ _______ _______ _____ _____    ______ ____
ROOT
ATOM      1  C   UNL A   1     -23.049  -1.619  28.960  0.00  0.00    +0.015 A 
ATOM      2  C   UNL A   1     -23.512  -2.519  29.251  0.00  0.00    +0.001 A 
ATOM      3  C   UNL A   1     -23.854  -0.633  28.346  0.00  0.00    +0.048 A 
ATOM      4  C   UNL A   1     -25.201  -0.829  28.115  0.00  0.00    -0.004 A 
ATOM      5  C   UNL A   1     -24.911  -2.975  29.126  0.00  0.00    -0.000 A 
ATOM      6  C   UNL A   1     -26.081   0.152  27.497  0.00  0.00    +0.057 C 
ATOM      7  C   UNL A   1     -25.725  -2.044  28.539  0.00  0.00    -0.003 A 
ATOM      8  C   UNL A   1     -25.722   1.309  27.120  0.00  0.00    +0.015 A 
ATOM      9  C   UNL A   1     -24.845   2.083  27.781  0.00  0.00    +0.002 A 
ATOM     10  C   UNL A   1     -24.804   2.074  29.148  0.00  0.00    +0.013 A 
ATOM     11  C   UNL A   1     -25.947   2.477  29.859  0.00  0.00    +0.001 A 
ATOM     12  C   UNL A   1     -25.818   2.578  31.304  0.00  0.00    +0.000 A 
ATOM     13  C   UNL A   1     -24.698   2.057  31.894  0.00  0.00    +0.001 A 
ATOM     14  C   UNL A   1     -23.844   1.303  31.255  0.00  0.00    +0.015 A 
ATOM     15  C   UNL A   1     -23.806   1.404  29.862  0.00  0.00    +0.052 A 
ATOM     16  N   UNL A   1     -23.480   0.709  28.640  0.00  0.00    -0.285 N 
ATOM     17  C   UNL A   1     -22.484   1.289  27.907  0.00  0.00    +0.117 C 
ATOM     18  C   UNL A   1     -24.540   3.392  27.182  0.00  0.00    +0.021 A 
ATOM     19  C   UNL A   1     -26.180   1.670  25.713  0.00  0.00    +0.144 A 
ATOM     20  N   UNL A   1     -27.063   0.911  25.075  0.00  0.00    -0.216 NA
ATOM     21  N   UNL A   1     -25.988   2.903  25.238  0.00  0.00    -0.228 NA
ATOM     22  C   UNL A   1     -25.125   3.785  25.918  0.00  0.00    +0.100 A 
ENDROOT
BRANCH  20  23
ATOM     23  C   UNL A   1     -27.520   1.011  24.012  0.00  0.00    +0.140 C 
BRANCH  23  24
ATOM     24  C   UNL A   1     -28.866   0.566  23.745  0.00  0.00    -0.001 A 
ATOM     25  C   UNL A   1     -29.851   1.171  23.450  0.00  0.00    -0.003 A 
ATOM     26  C   UNL A   1     -31.202   0.647  23.210  0.00  0.00    -0.000 A 
ATOM     27  C   UNL A   1     -31.338  -0.712  23.257  0.00  0.00    -0.000 A 
ATOM     28  C   UNL A   1     -30.259  -1.491  23.596  0.00  0.00    -0.000 A 
ATOM     29  C   UNL A   1     -28.999  -0.925  23.925  0.00  0.00    -0.003 A 
ENDBRANCH  23  24
ENDBRANCH  20  23
TORSDOF 2
ENDMDL
ENDMDL
