MODEL 1591
MODEL 1
REMARK VINA RESULT:    -5.464      0.000      0.000
REMARK INTER + INTRA:          -5.845
REMARK INTER:                  -5.784
REMARK INTRA:                  -0.061
REMARK UNBOUND:                -0.061
REMARK  Name = No_1591-gen_results/8p0m/2024-11-26-14-13-15/
REMARK  1 active torsions:
REMARK  status: ('A' for Active; 'I' for Inactive)
REMARK    1  A    between atoms: C_5  and  C_7
REMARK                            x       y       z     vdW  Elec       q    Type
REMARK                         _______ _______ _______ _____ _____    ______ ____
ROOT
ATOM      1  C   UNL A   1     -24.576  -5.191  28.924  0.00  0.00    +0.000 A 
ATOM      2  C   UNL A   1     -25.714  -5.068  29.315  0.00  0.00    +0.000 A 
ATOM      3  C   UNL A   1     -26.297  -3.877  29.711  0.00  0.00    +0.000 A 
ATOM      4  C   UNL A   1     -25.496  -2.700  29.618  0.00  0.00    +0.005 A 
ATOM      5  C   UNL A   1     -24.287  -2.849  29.039  0.00  0.00    +0.055 A 
ATOM      6  C   UNL A   1     -23.854  -4.037  28.610  0.00  0.00    +0.005 A 
ENDROOT
BRANCH   5   7
ATOM      7  C   UNL A   1     -23.504  -1.604  28.916  0.00  0.00    +0.265 C 
ATOM      8  N   UNL A   1     -22.409  -1.526  29.112  0.00  0.00    -0.200 NA
ATOM      9  O   UNL A   1     -24.157  -0.664  28.258  0.00  0.00    -0.268 OA
ATOM     10  C   UNL A   1     -21.564  -0.291  28.916  0.00  0.00    +0.139 C 
ENDBRANCH   5   7
TORSDOF 1
ENDMDL
ENDMDL
