REMARK  Name = No_1592-gen_results/8p0m/2024-11-26-14-13-15/
REMARK  9 active torsions:
REMARK  status: ('A' for Active; 'I' for Inactive)
REMARK    1  A    between atoms: C_2  and  C_8
REMARK    2  A    between atoms: C_8  and  C_9
REMARK    3  A    between atoms: C_9  and  C_10
REMARK    4  A    between atoms: C_9  and  C_11
REMARK    5  A    between atoms: C_11  and  N_13
REMARK    6  A    between atoms: C_11  and  O_25
REMARK    7  A    between atoms: C_12  and  C_14
REMARK    8  A    between atoms: C_12  and  C_21
REMARK    9  A    between atoms: C_21  and  O_23
REMARK                            x       y       z     vdW  Elec       q    Type
REMARK                         _______ _______ _______ _____ _____    ______ ____
ROOT
ATOM      1  C   UNL A   1     -25.131   1.019  29.900  0.00  0.00    +0.100 C 
ENDROOT
BRANCH   1   2
ATOM      2  C   UNL A   1     -25.703  -0.234  29.413  0.00  0.00    +0.182 C 
ATOM      3  O   UNL A   1     -25.738  -1.252  30.345  0.00  0.00    -0.218 OA
BRANCH   2   5
ATOM      4  C   UNL A   1     -28.016  -0.814  28.878  0.00  0.00    -0.001 A 
ATOM      5  C   UNL A   1     -27.064  -0.119  28.608  0.00  0.00    +0.008 A 
ATOM      6  C   UNL A   1     -26.972   0.714  27.506  0.00  0.00    -0.001 A 
ATOM      7  C   UNL A   1     -28.105   0.774  26.642  0.00  0.00    +0.011 A 
ATOM      8  C   UNL A   1     -29.201   0.104  27.053  0.00  0.00    +0.058 A 
ATOM      9  C   UNL A   1     -29.210  -0.603  28.185  0.00  0.00    +0.011 A 
ATOM     10 CL   UNL A   1     -30.565   0.243  26.049  0.00  0.00    -0.082 Cl
ENDBRANCH   2   5
ENDBRANCH   1   2
BRANCH   1  11
ATOM     11  C   UNL A   1     -25.779   1.597  30.851  0.00  0.00    -0.019 C 
ATOM     12  C   UNL A   1     -25.392   2.932  31.291  0.00  0.00    +0.032 C 
BRANCH  12  13
ATOM     13  C   UNL A   1     -25.911   3.878  31.296  0.00  0.00    +0.001 A 
ATOM     14  C   UNL A   1     -27.312   4.021  31.092  0.00  0.00    -0.000 A 
ATOM     15  C   UNL A   1     -28.043   5.165  31.129  0.00  0.00    -0.000 A 
ATOM     16  C   UNL A   1     -27.343   6.324  31.540  0.00  0.00    -0.000 A 
ATOM     17  C   UNL A   1     -26.013   6.350  31.891  0.00  0.00    -0.000 A 
ATOM     18  C   UNL A   1     -25.315   5.209  31.844  0.00  0.00    -0.000 A 
ENDBRANCH  12  13
BRANCH  12  19
ATOM     19  C   UNL A   1     -23.958   3.095  30.498  0.00  0.00    +0.292 C 
ATOM     20  O   UNL A   1     -22.999   2.640  31.259  0.00  0.00    -0.185 OA
BRANCH  19  21
ATOM     21  O   UNL A   1     -24.269   3.841  29.648  0.00  0.00    -0.323 OA
ATOM     22  C   UNL A   1     -24.818   4.819  29.059  0.00  0.00    +0.177 C 
ENDBRANCH  19  21
ENDBRANCH  12  19
ENDBRANCH   1  11
BRANCH   1  23
ATOM     23  C   UNL A   1     -24.007   1.546  29.230  0.00  0.00    +0.183 C 
BRANCH  23  24
ATOM     24  N   UNL A   1     -23.291   0.956  28.281  0.00  0.00    -0.248 NA
ATOM     25  C   UNL A   1     -22.355   1.597  27.536  0.00  0.00    +0.092 C 
ATOM     26  C   UNL A   1     -23.413  -0.375  27.959  0.00  0.00    +0.092 C 
ENDBRANCH  23  24
BRANCH  23  27
ATOM     27  O   UNL A   1     -23.958   2.491  28.638  0.00  0.00    -0.338 OA
ATOM     28  C   UNL A   1     -24.527   2.954  27.490  0.00  0.00    +0.176 C 
ENDBRANCH  23  27
ENDBRANCH   1  23
TORSDOF 9
