MODEL 1592
MODEL 1
REMARK VINA RESULT:    -5.525      0.000      0.000
REMARK INTER + INTRA:          -7.140
REMARK INTER:                  -8.432
REMARK INTRA:                   1.292
REMARK UNBOUND:                 1.292
REMARK  Name = No_1592-gen_results/8p0m/2024-11-26-14-13-15/
REMARK  9 active torsions:
REMARK  status: ('A' for Active; 'I' for Inactive)
REMARK    1  A    between atoms: C_2  and  C_8
REMARK    2  A    between atoms: C_8  and  C_9
REMARK    3  A    between atoms: C_9  and  C_10
REMARK    4  A    between atoms: C_9  and  C_11
REMARK    5  A    between atoms: C_11  and  N_13
REMARK    6  A    between atoms: C_11  and  O_25
REMARK    7  A    between atoms: C_12  and  C_14
REMARK    8  A    between atoms: C_12  and  C_21
REMARK    9  A    between atoms: C_21  and  O_23
REMARK                            x       y       z     vdW  Elec       q    Type
REMARK                         _______ _______ _______ _____ _____    ______ ____
ROOT
ATOM      1  C   UNL A   1     -25.457   0.742  28.729  0.00  0.00    +0.100 C 
ENDROOT
BRANCH   1   2
ATOM      2  C   UNL A   1     -25.225   1.923  27.899  0.00  0.00    +0.182 C 
ATOM      3  O   UNL A   1     -24.049   1.896  27.176  0.00  0.00    -0.218 OA
BRANCH   2   5
ATOM      4  C   UNL A   1     -27.428   2.914  27.533  0.00  0.00    -0.001 A 
ATOM      5  C   UNL A   1     -26.450   2.418  27.024  0.00  0.00    +0.008 A 
ATOM      6  C   UNL A   1     -26.335   2.073  25.688  0.00  0.00    -0.001 A 
ATOM      7  C   UNL A   1     -27.451   2.356  24.847  0.00  0.00    +0.011 A 
ATOM      8  C   UNL A   1     -28.463   3.043  25.414  0.00  0.00    +0.058 A 
ATOM      9  C   UNL A   1     -28.434   3.405  26.699  0.00  0.00    +0.011 A 
ATOM     10 CL   UNL A   1     -29.755   3.434  24.381  0.00  0.00    -0.082 Cl
ENDBRANCH   2   5
ENDBRANCH   1   2
BRANCH   1  11
ATOM     11  C   UNL A   1     -25.615  -0.366  28.092  0.00  0.00    -0.019 C 
ATOM     12  C   UNL A   1     -24.719  -1.488  28.347  0.00  0.00    +0.032 C 
BRANCH  12  13
ATOM     13  C   UNL A   1     -24.886  -2.483  28.728  0.00  0.00    +0.001 A 
ATOM     14  C   UNL A   1     -26.101  -2.914  29.330  0.00  0.00    -0.000 A 
ATOM     15  C   UNL A   1     -26.405  -4.156  29.789  0.00  0.00    -0.000 A 
ATOM     16  C   UNL A   1     -25.443  -5.158  29.521  0.00  0.00    -0.000 A 
ATOM     17  C   UNL A   1     -24.263  -4.948  28.845  0.00  0.00    -0.000 A 
ATOM     18  C   UNL A   1     -23.987  -3.714  28.405  0.00  0.00    -0.000 A 
ENDBRANCH  12  13
BRANCH  12  19
ATOM     19  C   UNL A   1     -23.566  -0.739  29.253  0.00  0.00    +0.292 C 
ATOM     20  O   UNL A   1     -22.672  -0.219  28.456  0.00  0.00    -0.185 OA
BRANCH  19  21
ATOM     21  O   UNL A   1     -23.796  -1.196  30.309  0.00  0.00    -0.323 OA
ATOM     22  C   UNL A   1     -23.665  -1.506  31.530  0.00  0.00    +0.177 C 
ENDBRANCH  19  21
ENDBRANCH  12  19
ENDBRANCH   1  11
BRANCH   1  23
ATOM     23  C   UNL A   1     -25.603   0.921  30.120  0.00  0.00    +0.183 C 
BRANCH  23  24
ATOM     24  N   UNL A   1     -25.308   2.008  30.823  0.00  0.00    -0.248 NA
ATOM     25  C   UNL A   1     -24.145   2.172  31.502  0.00  0.00    +0.092 C 
ATOM     26  C   UNL A   1     -26.149   3.091  30.929  0.00  0.00    +0.092 C 
ENDBRANCH  23  24
BRANCH  23  27
ATOM     27  O   UNL A   1     -26.542   0.826  30.716  0.00  0.00    -0.338 OA
ATOM     28  C   UNL A   1     -27.090  -0.119  31.531  0.00  0.00    +0.176 C 
ENDBRANCH  23  27
ENDBRANCH   1  23
TORSDOF 9
ENDMDL
ENDMDL
