MODEL 1593
MODEL 1
REMARK VINA RESULT:    -7.288      0.000      0.000
REMARK INTER + INTRA:         -10.392
REMARK INTER:                  -9.419
REMARK INTRA:                  -0.973
REMARK UNBOUND:                -0.973
REMARK  Name = No_1593-gen_results/8p0m/2024-11-26-14-13-15/
REMARK  5 active torsions:
REMARK  status: ('A' for Active; 'I' for Inactive)
REMARK    1  A    between atoms: C_2  and  C_7
REMARK    2  A    between atoms: C_5  and  C_18
REMARK    3  A    between atoms: C_7  and  C_8
REMARK    4  A    between atoms: C_8  and  C_9
REMARK    5  A    between atoms: C_8  and  C_15
REMARK                            x       y       z     vdW  Elec       q    Type
REMARK                         _______ _______ _______ _____ _____    ______ ____
ROOT
ATOM      1  C   UNL A   1     -22.787  -0.973  29.413  0.00  0.00    +0.039 C 
ENDROOT
BRANCH   1   3
ATOM      2  C   UNL A   1     -23.963   0.194  27.682  0.00  0.00    +0.002 A 
ATOM      3  C   UNL A   1     -22.941   0.066  28.316  0.00  0.00    -0.021 A 
ATOM      4  C   UNL A   1     -21.834   0.829  28.131  0.00  0.00    -0.004 A 
ATOM      5  C   UNL A   1     -21.870   1.831  27.143  0.00  0.00    -0.000 A 
ATOM      6  C   UNL A   1     -24.103   1.260  26.722  0.00  0.00    +0.080 A 
ATOM      7  C   UNL A   1     -23.009   2.035  26.479  0.00  0.00    +0.007 A 
BRANCH   6   8
ATOM      8  C   UNL A   1     -25.377   1.440  25.984  0.00  0.00    +0.388 C 
ATOM      9  O   UNL A   1     -26.024   0.649  25.488  0.00  0.00    -0.241 OA
ATOM     10  O   UNL A   1     -25.546   2.777  25.578  0.00  0.00    -0.241 OA
ENDBRANCH   6   8
ENDBRANCH   1   3
BRANCH   1  11
ATOM     11  C   UNL A   1     -24.091  -1.476  29.956  0.00  0.00    +0.097 C 
BRANCH  11  12
ATOM     12  C   UNL A   1     -24.699  -2.638  29.525  0.00  0.00    -0.014 A 
ATOM     13  C   UNL A   1     -25.945  -3.150  30.058  0.00  0.00    -0.004 A 
ATOM     14  C   UNL A   1     -26.374  -4.450  29.699  0.00  0.00    -0.000 A 
ATOM     15  C   UNL A   1     -25.468  -5.281  29.076  0.00  0.00    -0.000 A 
ATOM     16  C   UNL A   1     -24.219  -4.895  28.632  0.00  0.00    -0.000 A 
ATOM     17  C   UNL A   1     -23.832  -3.555  28.896  0.00  0.00    -0.004 A 
ENDBRANCH  11  12
BRANCH  11  18
ATOM     18  C   UNL A   1     -24.560  -0.849  31.140  0.00  0.00    +0.223 C 
ATOM     19  N   UNL A   1     -25.355   0.136  31.246  0.00  0.00    -0.120 NA
ATOM     20  F   UNL A   1     -24.199  -1.396  32.218  0.00  0.00    -0.186 F 
ENDBRANCH  11  18
ENDBRANCH   1  11
TORSDOF 5
ENDMDL
ENDMDL
