REMARK  Name = No_1593-gen_results/8p0m/2024-11-26-14-13-15/
REMARK  5 active torsions:
REMARK  status: ('A' for Active; 'I' for Inactive)
REMARK    1  A    between atoms: C_2  and  C_7
REMARK    2  A    between atoms: C_5  and  C_18
REMARK    3  A    between atoms: C_7  and  C_8
REMARK    4  A    between atoms: C_8  and  C_9
REMARK    5  A    between atoms: C_8  and  C_15
REMARK                            x       y       z     vdW  Elec       q    Type
REMARK                         _______ _______ _______ _____ _____    ______ ____
ROOT
ATOM      1  C   UNL A   1     -25.891  -0.626  27.786  0.00  0.00    +0.039 C 
ENDROOT
BRANCH   1   3
ATOM      2  C   UNL A   1     -28.016  -0.814  28.878  0.00  0.00    +0.002 A 
ATOM      3  C   UNL A   1     -27.064  -0.119  28.608  0.00  0.00    -0.021 A 
ATOM      4  C   UNL A   1     -26.929   1.171  29.008  0.00  0.00    -0.004 A 
ATOM      5  C   UNL A   1     -27.956   1.741  29.784  0.00  0.00    -0.000 A 
ATOM      6  C   UNL A   1     -29.057  -0.327  29.747  0.00  0.00    +0.080 A 
ATOM      7  C   UNL A   1     -28.983   0.972  30.152  0.00  0.00    +0.007 A 
BRANCH   6   8
ATOM      8  C   UNL A   1     -30.197  -1.203  30.114  0.00  0.00    +0.388 C 
ATOM      9  O   UNL A   1     -30.266  -1.953  30.964  0.00  0.00    -0.241 OA
ATOM     10  O   UNL A   1     -31.103  -1.335  29.045  0.00  0.00    -0.241 OA
ENDBRANCH   6   8
ENDBRANCH   1   3
BRANCH   1  11
ATOM     11  C   UNL A   1     -24.718  -1.061  28.613  0.00  0.00    +0.097 C 
BRANCH  11  12
ATOM     12  C   UNL A   1     -23.595  -0.283  28.812  0.00  0.00    -0.014 A 
ATOM     13  C   UNL A   1     -23.436   1.061  28.295  0.00  0.00    -0.004 A 
ATOM     14  C   UNL A   1     -22.171   1.692  28.375  0.00  0.00    -0.000 A 
ATOM     15  C   UNL A   1     -21.079   0.914  28.691  0.00  0.00    -0.000 A 
ATOM     16  C   UNL A   1     -21.140  -0.406  29.091  0.00  0.00    -0.000 A 
ATOM     17  C   UNL A   1     -22.425  -1.008  29.117  0.00  0.00    -0.004 A 
ENDBRANCH  11  12
BRANCH  11  18
ATOM     18  C   UNL A   1     -24.915  -2.211  29.422  0.00  0.00    +0.223 C 
ATOM     19  N   UNL A   1     -25.530  -2.296  30.530  0.00  0.00    -0.120 NA
ATOM     20  F   UNL A   1     -24.492  -3.293  28.931  0.00  0.00    -0.186 F 
ENDBRANCH  11  18
ENDBRANCH   1  11
TORSDOF 5
