MODEL 1594
MODEL 1
REMARK VINA RESULT:    -5.881      0.000      0.000
REMARK INTER + INTRA:          -7.174
REMARK INTER:                  -6.569
REMARK INTRA:                  -0.605
REMARK UNBOUND:                -0.605
REMARK  Name = No_1594-gen_results/8p0m/2024-11-26-14-13-15/
REMARK  2 active torsions:
REMARK  status: ('A' for Active; 'I' for Inactive)
REMARK    1  A    between atoms: C_3  and  C_4
REMARK    2  A    between atoms: C_8  and  C_9
REMARK                            x       y       z     vdW  Elec       q    Type
REMARK                         _______ _______ _______ _____ _____    ______ ____
ROOT
ATOM      1  C   UNL A   1     -23.229  -0.422  30.584  0.00  0.00    +0.002 C 
ATOM      2  C   UNL A   1     -23.076   0.638  30.135  0.00  0.00    -0.000 C 
ENDROOT
BRANCH   1   5
ATOM      3  C   UNL A   1     -25.461  -1.743  30.655  0.00  0.00    +0.002 A 
ATOM      4  C   UNL A   1     -25.938  -2.585  30.238  0.00  0.00    +0.000 A 
ATOM      5  C   UNL A   1     -24.074  -1.581  30.219  0.00  0.00    +0.028 A 
ATOM      6  C   UNL A   1     -25.543  -3.642  29.317  0.00  0.00    +0.002 A 
ATOM      7  C   UNL A   1     -24.235  -3.531  28.894  0.00  0.00    +0.030 A 
ATOM      8  C   UNL A   1     -23.493  -2.481  29.288  0.00  0.00    +0.140 A 
ATOM      9  F   UNL A   1     -22.980  -2.245  28.888  0.00  0.00    -0.204 F 
ENDBRANCH   1   5
BRANCH   2  10
ATOM     10  C   UNL A   1     -23.950   0.975  28.994  0.00  0.00    -0.001 A 
ATOM     11  C   UNL A   1     -24.957   1.428  29.085  0.00  0.00    +0.020 A 
ATOM     12  C   UNL A   1     -25.800   2.036  27.969  0.00  0.00    +0.099 A 
ATOM     13  N   UNL A   1     -25.218   1.617  26.814  0.00  0.00    -0.243 NA
ATOM     14  C   UNL A   1     -24.042   1.026  26.609  0.00  0.00    +0.095 A 
ATOM     15  C   UNL A   1     -23.328   0.706  27.670  0.00  0.00    -0.003 A 
ATOM     16  C   UNL A   1     -21.993   1.551  27.620  0.00  0.00    +0.033 C 
ENDBRANCH   2  10
TORSDOF 2
ENDMDL
ENDMDL
