REMARK  Name = No_1594-gen_results/8p0m/2024-11-26-14-13-15/
REMARK  2 active torsions:
REMARK  status: ('A' for Active; 'I' for Inactive)
REMARK    1  A    between atoms: C_3  and  C_4
REMARK    2  A    between atoms: C_8  and  C_9
REMARK                            x       y       z     vdW  Elec       q    Type
REMARK                         _______ _______ _______ _____ _____    ______ ____
ROOT
ATOM      1  C   UNL A   1     -26.252   0.411  27.422  0.00  0.00    +0.002 C 
ATOM      2  C   UNL A   1     -25.138   0.675  27.231  0.00  0.00    -0.000 C 
ENDROOT
BRANCH   1   5
ATOM      3  C   UNL A   1     -28.016  -0.814  28.878  0.00  0.00    +0.002 A 
ATOM      4  C   UNL A   1     -28.469  -0.785  29.829  0.00  0.00    +0.000 A 
ATOM      5  C   UNL A   1     -27.087   0.290  28.638  0.00  0.00    +0.028 A 
ATOM      6  C   UNL A   1     -28.391   0.104  30.980  0.00  0.00    +0.002 A 
ATOM      7  C   UNL A   1     -27.533   1.167  30.787  0.00  0.00    +0.030 A 
ATOM      8  C   UNL A   1     -26.828   1.256  29.645  0.00  0.00    +0.140 A 
ATOM      9  F   UNL A   1     -26.214   1.574  29.637  0.00  0.00    -0.204 F 
ENDBRANCH   1   5
BRANCH   2  10
ATOM     10  C   UNL A   1     -24.316   0.867  28.442  0.00  0.00    -0.001 A 
ATOM     11  C   UNL A   1     -23.353   0.354  28.637  0.00  0.00    +0.020 A 
ATOM     12  C   UNL A   1     -22.333   0.686  29.721  0.00  0.00    +0.099 A 
ATOM     13  N   UNL A   1     -22.987   1.506  30.587  0.00  0.00    -0.243 NA
ATOM     14  C   UNL A   1     -24.158   2.129  30.462  0.00  0.00    +0.095 A 
ATOM     15  C   UNL A   1     -24.869   1.880  29.380  0.00  0.00    -0.003 A 
ATOM     16  C   UNL A   1     -24.988   3.230  28.566  0.00  0.00    +0.033 C 
ENDBRANCH   2  10
TORSDOF 2
