MODEL 1595
MODEL 1
REMARK VINA RESULT:    -7.610      0.000      0.000
REMARK INTER + INTRA:          -9.966
REMARK INTER:                  -8.945
REMARK INTRA:                  -1.021
REMARK UNBOUND:                -1.021
REMARK  Name = No_1595-gen_results/8p0m/2024-11-26-14-13-15/
REMARK  3 active torsions:
REMARK  status: ('A' for Active; 'I' for Inactive)
REMARK    1  A    between atoms: C_3  and  C_19
REMARK    2  A    between atoms: C_8  and  C_9
REMARK    3  A    between atoms: C_23  and  C_25
REMARK                            x       y       z     vdW  Elec       q    Type
REMARK                         _______ _______ _______ _____ _____    ______ ____
ROOT
ATOM      1  C   UNL A   1     -28.685 -11.272  31.320  0.00  0.00    +0.007 A 
ATOM      2  C   UNL A   1     -29.630 -10.612  30.956  0.00  0.00    +0.000 A 
ATOM      3  C   UNL A   1     -30.153 -10.666  29.679  0.00  0.00    -0.000 A 
ATOM      4  C   UNL A   1     -30.817  -9.571  29.129  0.00  0.00    -0.000 A 
ATOM      5  C   UNL A   1     -31.199  -8.416  29.929  0.00  0.00    -0.001 A 
ATOM      6  C   UNL A   1     -30.712  -8.404  31.246  0.00  0.00    +0.019 A 
ATOM      7  C   UNL A   1     -29.918  -9.426  31.670  0.00  0.00    +0.002 A 
ATOM      8  C   UNL A   1     -28.319 -11.331  32.762  0.00  0.00    +0.080 A 
ATOM      9  C   UNL A   1     -28.747 -10.282  33.661  0.00  0.00    +0.007 A 
ATOM     10  C   UNL A   1     -29.489  -9.267  33.064  0.00  0.00    +0.000 A 
ATOM     11  C   UNL A   1     -32.137  -7.408  29.397  0.00  0.00    -0.003 A 
ATOM     12  C   UNL A   1     -32.586  -7.448  28.076  0.00  0.00    +0.033 C 
ATOM     13  C   UNL A   1     -32.747  -6.488  30.301  0.00  0.00    +0.095 A 
ATOM     14  N   UNL A   1     -32.604  -6.410  31.544  0.00  0.00    -0.243 NA
ATOM     15  C   UNL A   1     -31.472  -7.270  32.033  0.00  0.00    +0.099 A 
ENDROOT
BRANCH   3  16
ATOM     16  C   UNL A   1     -29.819 -11.798  28.791  0.00  0.00    -0.000 A 
ATOM     17  C   UNL A   1     -29.164 -11.659  27.717  0.00  0.00    -0.000 A 
ATOM     18  C   UNL A   1     -29.121 -12.681  26.860  0.00  0.00    -0.000 A 
ATOM     19  C   UNL A   1     -29.648 -13.933  27.103  0.00  0.00    -0.000 A 
ATOM     20  C   UNL A   1     -30.321 -14.069  28.307  0.00  0.00    -0.000 A 
ATOM     21  C   UNL A   1     -30.539 -13.032  29.105  0.00  0.00    -0.000 A 
BRANCH  20  22
ATOM     22  C   UNL A   1     -30.955 -15.416  28.560  0.00  0.00    -0.005 C 
ATOM     23  C   UNL A   1     -30.881 -16.153  29.340  0.00  0.00    -0.026 C 
ATOM     24  C   UNL A   1     -31.630 -17.397  29.573  0.00  0.00    +0.031 C 
ENDBRANCH  20  22
ENDBRANCH   3  16
BRANCH   8  25
ATOM     25  C   UNL A   1     -27.311 -12.281  33.240  0.00  0.00    +0.388 C 
ATOM     26  O   UNL A   1     -27.169 -12.389  34.486  0.00  0.00    -0.241 OA
ATOM     27  O   UNL A   1     -26.425 -12.672  32.488  0.00  0.00    -0.241 OA
ENDBRANCH   8  25
TORSDOF 3
ENDMDL
ENDMDL
