REMARK  Name = No_1595-gen_results/8p0m/2024-11-26-14-13-15/
REMARK  3 active torsions:
REMARK  status: ('A' for Active; 'I' for Inactive)
REMARK    1  A    between atoms: C_3  and  C_19
REMARK    2  A    between atoms: C_8  and  C_9
REMARK    3  A    between atoms: C_23  and  C_25
REMARK                            x       y       z     vdW  Elec       q    Type
REMARK                         _______ _______ _______ _____ _____    ______ ____
ROOT
ATOM      1  C   UNL A   1     -28.016  -0.814  28.878  0.00  0.00    +0.007 A 
ATOM      2  C   UNL A   1     -27.064  -0.119  28.608  0.00  0.00    +0.000 A 
ATOM      3  C   UNL A   1     -27.001   0.691  27.491  0.00  0.00    -0.000 A 
ATOM      4  C   UNL A   1     -25.777   1.021  26.913  0.00  0.00    -0.000 A 
ATOM      5  C   UNL A   1     -24.509   0.736  27.569  0.00  0.00    -0.001 A 
ATOM      6  C   UNL A   1     -24.593  -0.036  28.739  0.00  0.00    +0.019 A 
ATOM      7  C   UNL A   1     -25.811  -0.477  29.158  0.00  0.00    +0.002 A 
ATOM      8  C   UNL A   1     -28.107  -1.483  30.205  0.00  0.00    +0.080 A 
ATOM      9  C   UNL A   1     -26.910  -1.712  30.984  0.00  0.00    +0.007 A 
ATOM     10  C   UNL A   1     -25.732  -1.271  30.389  0.00  0.00    +0.000 A 
ATOM     11  C   UNL A   1     -23.254   1.339  27.078  0.00  0.00    -0.003 A 
ATOM     12  C   UNL A   1     -23.211   2.089  25.901  0.00  0.00    +0.033 C 
ATOM     13  C   UNL A   1     -22.103   1.319  27.921  0.00  0.00    +0.095 A 
ATOM     14  N   UNL A   1     -21.996   0.849  29.078  0.00  0.00    -0.243 NA
ATOM     15  C   UNL A   1     -23.195   0.029  29.463  0.00  0.00    +0.099 A 
ENDROOT
BRANCH   3  16
ATOM     16  C   UNL A   1     -28.236   1.032  26.756  0.00  0.00    -0.000 A 
ATOM     17  C   UNL A   1     -28.234   1.405  25.546  0.00  0.00    -0.000 A 
ATOM     18  C   UNL A   1     -29.353   1.926  25.039  0.00  0.00    -0.000 A 
ATOM     19  C   UNL A   1     -30.561   1.992  25.703  0.00  0.00    -0.000 A 
ATOM     20  C   UNL A   1     -30.543   1.535  27.011  0.00  0.00    -0.000 A 
ATOM     21  C   UNL A   1     -29.415   1.175  27.609  0.00  0.00    -0.000 A 
BRANCH  20  22
ATOM     22  C   UNL A   1     -31.843   1.656  27.770  0.00  0.00    -0.005 C 
ATOM     23  C   UNL A   1     -32.640   0.978  28.020  0.00  0.00    -0.026 C 
ATOM     24  C   UNL A   1     -33.826   1.147  28.873  0.00  0.00    +0.031 C 
ENDBRANCH  20  22
ENDBRANCH   3  16
BRANCH   8  25
ATOM     25  C   UNL A   1     -29.340  -2.156  30.620  0.00  0.00    +0.388 C 
ATOM     26  O   UNL A   1     -29.786  -1.884  31.765  0.00  0.00    -0.241 OA
ATOM     27  O   UNL A   1     -29.711  -3.175  30.047  0.00  0.00    -0.241 OA
ENDBRANCH   8  25
TORSDOF 3
