MODEL 1596
MODEL 1
REMARK VINA RESULT:    -6.297      0.000      0.000
REMARK INTER + INTRA:          -9.188
REMARK INTER:                  -7.769
REMARK INTRA:                  -1.419
REMARK UNBOUND:                -1.419
REMARK  Name = No_1596-gen_results/8p0m/2024-11-26-14-13-15/
REMARK  4 active torsions:
REMARK  status: ('A' for Active; 'I' for Inactive)
REMARK    1  A    between atoms: C_3  and  C_4
REMARK    2  A    between atoms: C_6  and  C_13
REMARK    3  A    between atoms: C_18  and  C_19
REMARK    4  A    between atoms: C_18  and  C_20
REMARK                            x       y       z     vdW  Elec       q    Type
REMARK                         _______ _______ _______ _____ _____    ______ ____
ROOT
ATOM      1  C   UNL A   1     -11.115  -0.789  37.779  0.00  0.00    -0.000 A 
ATOM      2  C   UNL A   1     -11.511  -2.171  37.783  0.00  0.00    -0.000 A 
ATOM      3  C   UNL A   1     -12.187  -2.655  38.866  0.00  0.00    +0.003 A 
ATOM      4  C   UNL A   1     -12.336  -2.051  40.076  0.00  0.00    +0.037 A 
ATOM      5  C   UNL A   1     -11.315  -0.113  39.040  0.00  0.00    +0.022 A 
ATOM      6  C   UNL A   1     -11.913  -0.742  40.128  0.00  0.00    +0.135 A 
ATOM      7  O   UNL A   1     -12.034  -0.004  41.262  0.00  0.00    -0.475 OA
ATOM      8  C   UNL A   1     -11.152   1.116  41.241  0.00  0.00    +0.217 C 
ATOM      9  C   UNL A   1     -10.728   1.072  39.508  0.00  0.00    +0.095 C 
ENDROOT
BRANCH   1  12
ATOM     10  C   UNL A   1      -8.475   0.327  35.504  0.00  0.00    +0.007 A 
ATOM     11  C   UNL A   1      -9.003  -0.279  36.407  0.00  0.00    +0.000 A 
ATOM     12  C   UNL A   1     -10.354  -0.111  36.691  0.00  0.00    -0.000 A 
ATOM     13  C   UNL A   1      -9.206   1.397  34.806  0.00  0.00    +0.080 A 
ATOM     14  C   UNL A   1     -10.547   1.589  34.960  0.00  0.00    +0.007 A 
ATOM     15  C   UNL A   1     -11.193   0.817  35.940  0.00  0.00    +0.000 A 
BRANCH  13  16
ATOM     16  C   UNL A   1      -8.547   2.238  33.745  0.00  0.00    +0.388 C 
ATOM     17  O   UNL A   1      -7.346   2.185  33.621  0.00  0.00    -0.241 OA
ATOM     18  O   UNL A   1      -9.261   2.959  32.986  0.00  0.00    -0.241 OA
ENDBRANCH  13  16
ENDBRANCH   1  12
BRANCH   9  19
ATOM     19  C   UNL A   1     -11.542   2.303  38.951  0.00  0.00    -0.020 C 
ATOM     20  C   UNL A   1     -12.861   2.163  38.581  0.00  0.00    -0.030 C 
ATOM     21  C   UNL A   1     -13.517   3.297  38.060  0.00  0.00    +0.030 C 
ENDBRANCH   9  19
BRANCH   9  22
ATOM     22  C   UNL A   1      -9.299   1.268  39.508  0.00  0.00    -0.034 C 
ATOM     23  C   UNL A   1      -8.434   0.283  39.919  0.00  0.00    -0.008 C 
ATOM     24  C   UNL A   1      -8.780   2.433  38.903  0.00  0.00    +0.027 C 
ENDBRANCH   9  22
TORSDOF 4
ENDMDL
ENDMDL
