REMARK  Name = No_1596-gen_results/8p0m/2024-11-26-14-13-15/
REMARK  4 active torsions:
REMARK  status: ('A' for Active; 'I' for Inactive)
REMARK    1  A    between atoms: C_3  and  C_4
REMARK    2  A    between atoms: C_6  and  C_13
REMARK    3  A    between atoms: C_18  and  C_19
REMARK    4  A    between atoms: C_18  and  C_20
REMARK                            x       y       z     vdW  Elec       q    Type
REMARK                         _______ _______ _______ _____ _____    ______ ____
ROOT
ATOM      1  C   UNL A   1     -24.546   0.349  28.823  0.00  0.00    -0.000 A 
ATOM      2  C   UNL A   1     -23.241   0.022  29.332  0.00  0.00    -0.000 A 
ATOM      3  C   UNL A   1     -22.188   0.822  28.993  0.00  0.00    +0.003 A 
ATOM      4  C   UNL A   1     -22.162   1.777  28.024  0.00  0.00    +0.037 A 
ATOM      5  C   UNL A   1     -24.548   1.398  27.831  0.00  0.00    +0.022 A 
ATOM      6  C   UNL A   1     -23.387   2.076  27.471  0.00  0.00    +0.135 A 
ATOM      7  O   UNL A   1     -23.517   3.035  26.517  0.00  0.00    -0.475 OA
ATOM      8  C   UNL A   1     -24.728   2.866  25.783  0.00  0.00    +0.217 C 
ATOM      9  C   UNL A   1     -25.532   1.712  26.881  0.00  0.00    +0.095 C 
ENDROOT
BRANCH   1  12
ATOM     10  C   UNL A   1     -28.016  -0.814  28.878  0.00  0.00    +0.007 A 
ATOM     11  C   UNL A   1     -27.064  -0.119  28.608  0.00  0.00    +0.000 A 
ATOM     12  C   UNL A   1     -25.792  -0.430  29.076  0.00  0.00    -0.000 A 
ATOM     13  C   UNL A   1     -27.882  -1.899  29.863  0.00  0.00    +0.080 A 
ATOM     14  C   UNL A   1     -26.671  -2.327  30.321  0.00  0.00    +0.007 A 
ATOM     15  C   UNL A   1     -25.543  -1.585  29.932  0.00  0.00    +0.000 A 
BRANCH  13  16
ATOM     16  C   UNL A   1     -29.068  -2.719  30.297  0.00  0.00    +0.388 C 
ATOM     17  O   UNL A   1     -28.970  -3.923  30.312  0.00  0.00    -0.241 OA
ATOM     18  O   UNL A   1     -30.130  -2.135  30.666  0.00  0.00    -0.241 OA
ENDBRANCH  13  16
ENDBRANCH   1  12
BRANCH   9  19
ATOM     19  C   UNL A   1     -26.625   2.627  27.557  0.00  0.00    -0.020 C 
ATOM     20  C   UNL A   1     -26.933   3.861  27.028  0.00  0.00    -0.030 C 
ATOM     21  C   UNL A   1     -27.895   4.639  27.704  0.00  0.00    +0.030 C 
ENDBRANCH   9  19
BRANCH   9  22
ATOM     22  C   UNL A   1     -26.073   0.719  25.986  0.00  0.00    -0.034 C 
ATOM     23  C   UNL A   1     -27.252   0.921  25.310  0.00  0.00    -0.008 C 
ATOM     24  C   UNL A   1     -25.279  -0.403  25.667  0.00  0.00    +0.027 C 
ENDBRANCH   9  22
TORSDOF 4
