MODEL 1597
MODEL 1
REMARK VINA RESULT:    -5.076      0.000      0.000
REMARK INTER + INTRA:          -5.391
REMARK INTER:                  -5.372
REMARK INTRA:                  -0.019
REMARK UNBOUND:                -0.019
REMARK  Name = No_1597-gen_results/8p0m/2024-11-26-14-13-15/
REMARK  1 active torsions:
REMARK  status: ('A' for Active; 'I' for Inactive)
REMARK    1  A    between atoms: C_1  and  C_2
REMARK                            x       y       z     vdW  Elec       q    Type
REMARK                         _______ _______ _______ _____ _____    ______ ____
ROOT
ATOM      1  C   UNL A   1      -9.868 -10.456  18.180  0.00  0.00    +0.042 A 
ATOM      2  C   UNL A   1      -8.440 -10.540  18.298  0.00  0.00    +0.003 A 
ATOM      3  C   UNL A   1      -7.773 -10.342  19.602  0.00  0.00    +0.000 A 
ATOM      4  C   UNL A   1      -8.377  -9.504  20.558  0.00  0.00    +0.000 A 
ATOM      5  C   UNL A   1      -9.684  -9.032  20.324  0.00  0.00    +0.000 A 
ATOM      6  C   UNL A   1     -10.341  -9.355  19.195  0.00  0.00    +0.003 A 
ENDROOT
BRANCH   1   7
ATOM      7  C   UNL A   1     -10.254 -10.455  17.199  0.00  0.00    +0.234 C 
ATOM      8  O   UNL A   1     -11.400 -10.450  16.862  0.00  0.00    -0.283 OA
ENDBRANCH   1   7
TORSDOF 1
ENDMDL
ENDMDL
