MODEL 1598
MODEL 1
REMARK VINA RESULT:    -4.923      0.000      0.000
REMARK INTER + INTRA:          -5.234
REMARK INTER:                  -5.211
REMARK INTRA:                  -0.023
REMARK UNBOUND:                -0.023
REMARK  Name = No_1598-gen_results/8p0m/2024-11-26-14-13-15/
REMARK  1 active torsions:
REMARK  status: ('A' for Active; 'I' for Inactive)
REMARK    1  A    between atoms: C_3  and  C_4
REMARK                            x       y       z     vdW  Elec       q    Type
REMARK                         _______ _______ _______ _____ _____    ______ ____
ROOT
ATOM      1  C   UNL A   1     -10.280  -9.264  19.499  0.00  0.00    +0.010 A 
ATOM      2  C   UNL A   1      -9.764  -9.074  20.397  0.00  0.00    +0.001 A 
ATOM      3  C   UNL A   1      -9.598  -9.967  18.482  0.00  0.00    +0.068 A 
ATOM      4  C   UNL A   1      -8.391  -9.404  20.818  0.00  0.00    +0.000 A 
ATOM      5  C   UNL A   1      -7.653 -10.100  19.860  0.00  0.00    +0.001 A 
ATOM      6  C   UNL A   1      -8.247 -10.441  18.687  0.00  0.00    +0.010 A 
ENDROOT
BRANCH   3   7
ATOM      7  C   UNL A   1     -10.213 -10.410  17.204  0.00  0.00    +0.100 C 
ATOM      8  N   UNL A   1     -11.133 -10.371  16.718  0.00  0.00    -0.191 NA
ENDBRANCH   3   7
TORSDOF 1
ENDMDL
ENDMDL
