MODEL 1599
MODEL 1
REMARK VINA RESULT:    -6.786      0.000      0.000
REMARK INTER + INTRA:         -16.238
REMARK INTER:                 -11.546
REMARK INTRA:                  -4.692
REMARK UNBOUND:                -4.692
REMARK  Name = No_1599-gen_results/8p0m/2024-11-26-14-13-15/
REMARK  12 active torsions:
REMARK  status: ('A' for Active; 'I' for Inactive)
REMARK    1  A    between atoms: C_1  and  O_15
REMARK    2  A    between atoms: C_2  and  C_8
REMARK    3  A    between atoms: O_15  and  C_16
REMARK    4  A    between atoms: C_16  and  C_17
REMARK    5  A    between atoms: C_17  and  C_18
REMARK    6  A    between atoms: C_18  and  O_21
REMARK    7  A    between atoms: O_21  and  C_22
REMARK    8  A    between atoms: C_22  and  C_23
REMARK    9  A    between atoms: C_26  and  C_29
REMARK   10  A    between atoms: C_29  and  C_30
REMARK   11  A    between atoms: C_31  and  C_32
REMARK   12  A    between atoms: C_33  and  C_34
REMARK                            x       y       z     vdW  Elec       q    Type
REMARK                         _______ _______ _______ _____ _____    ______ ____
ROOT
ATOM      1  C   UNL A   1     -23.543  -0.476  32.002  0.00  0.00    +0.293 C 
ATOM      2  O   UNL A   1     -23.562  -1.886  31.787  0.00  0.00    -0.207 OA
ENDROOT
BRANCH   1   3
ATOM      3  C   UNL A   1     -24.814   0.115  32.029  0.00  0.00    +0.352 C 
ATOM      4  O   UNL A   1     -25.253   0.053  33.157  0.00  0.00    -0.247 OA
BRANCH   3   5
ATOM      5  O   UNL A   1     -25.102   1.038  31.277  0.00  0.00    -0.442 OA
BRANCH   5   6
ATOM      6  C   UNL A   1     -26.423   1.019  30.675  0.00  0.00    +0.235 C 
BRANCH   6   7
ATOM      7  C   UNL A   1     -26.513   1.788  29.494  0.00  0.00    +0.021 A 
ATOM      8  C   UNL A   1     -25.705   2.637  29.314  0.00  0.00    -0.001 A 
ATOM      9  C   UNL A   1     -27.637   1.562  28.574  0.00  0.00    -0.005 A 
ATOM     10  C   UNL A   1     -27.875   2.476  27.519  0.00  0.00    -0.018 A 
ATOM     11  C   UNL A   1     -25.851   3.629  28.150  0.00  0.00    -0.001 A 
ATOM     12  C   UNL A   1     -26.916   3.441  27.274  0.00  0.00    -0.004 A 
BRANCH  10  13
ATOM     13  C   UNL A   1     -28.998   2.247  26.609  0.00  0.00    +0.052 C 
BRANCH  13  14
ATOM     14  C   UNL A   1     -28.634   1.744  25.362  0.00  0.00    -0.021 C 
ATOM     15  C   UNL A   1     -28.645   0.283  25.253  0.00  0.00    -0.004 C 
BRANCH  15  16
ATOM     16  C   UNL A   1     -28.165  -0.336  24.074  0.00  0.00    -0.000 C 
ATOM     17  C   UNL A   1     -29.029  -1.308  23.536  0.00  0.00    -0.000 C 
BRANCH  17  18
ATOM     18  C   UNL A   1     -30.297  -1.608  24.061  0.00  0.00    -0.000 C 
ATOM     19  C   UNL A   1     -31.407  -1.306  23.283  0.00  0.00    -0.000 C 
ENDBRANCH  17  18
ENDBRANCH  15  16
ENDBRANCH  13  14
ENDBRANCH  10  13
ENDBRANCH   6   7
ENDBRANCH   5   6
ENDBRANCH   3   5
ENDBRANCH   1   3
BRANCH   1  20
ATOM     20  C   UNL A   1     -22.692   0.026  30.807  0.00  0.00    +0.250 C 
BRANCH  20  21
ATOM     21  O   UNL A   1     -22.858  -0.864  29.745  0.00  0.00    -0.472 OA
BRANCH  21  22
ATOM     22  C   UNL A   1     -23.519  -0.388  28.643  0.00  0.00    +0.141 A 
ATOM     23  C   UNL A   1     -24.407  -0.998  28.093  0.00  0.00    +0.036 A 
ATOM     24  C   UNL A   1     -25.048  -0.599  26.933  0.00  0.00    +0.035 A 
ATOM     25  C   UNL A   1     -24.601   0.613  26.328  0.00  0.00    +0.168 A 
ATOM     26  C   UNL A   1     -23.514   1.187  26.883  0.00  0.00    +0.170 A 
ATOM     27  C   UNL A   1     -22.915   0.668  27.957  0.00  0.00    +0.069 A 
ATOM     28  F   UNL A   1     -23.049   2.273  26.281  0.00  0.00    -0.202 F 
ATOM     29  F   UNL A   1     -25.352   0.972  25.307  0.00  0.00    -0.202 F 
BRANCH  23  30
ATOM     30  C   UNL A   1     -25.069  -2.264  28.745  0.00  0.00    +0.003 A 
ATOM     31  C   UNL A   1     -26.009  -2.291  29.279  0.00  0.00    +0.000 A 
ATOM     32  C   UNL A   1     -26.662  -3.476  29.917  0.00  0.00    +0.000 A 
ATOM     33  C   UNL A   1     -26.039  -4.710  29.749  0.00  0.00    +0.000 A 
ATOM     34  C   UNL A   1     -24.833  -4.720  28.989  0.00  0.00    +0.000 A 
ATOM     35  C   UNL A   1     -24.273  -3.507  28.449  0.00  0.00    +0.000 A 
ENDBRANCH  23  30
ENDBRANCH  21  22
ENDBRANCH  20  21
ENDBRANCH   1  20
TORSDOF 12
ENDMDL
ENDMDL
