REMARK  Name = No_1599-gen_results/8p0m/2024-11-26-14-13-15/
REMARK  12 active torsions:
REMARK  status: ('A' for Active; 'I' for Inactive)
REMARK    1  A    between atoms: C_1  and  O_15
REMARK    2  A    between atoms: C_2  and  C_8
REMARK    3  A    between atoms: O_15  and  C_16
REMARK    4  A    between atoms: C_16  and  C_17
REMARK    5  A    between atoms: C_17  and  C_18
REMARK    6  A    between atoms: C_18  and  O_21
REMARK    7  A    between atoms: O_21  and  C_22
REMARK    8  A    between atoms: C_22  and  C_23
REMARK    9  A    between atoms: C_26  and  C_29
REMARK   10  A    between atoms: C_29  and  C_30
REMARK   11  A    between atoms: C_31  and  C_32
REMARK   12  A    between atoms: C_33  and  C_34
REMARK                            x       y       z     vdW  Elec       q    Type
REMARK                         _______ _______ _______ _____ _____    ______ ____
ROOT
ATOM      1  C   UNL A   1     -28.579  -3.541  31.272  0.00  0.00    +0.293 C 
ATOM      2  O   UNL A   1     -29.042  -4.852  30.953  0.00  0.00    -0.207 OA
ENDROOT
BRANCH   1   3
ATOM      3  C   UNL A   1     -29.477  -2.790  32.042  0.00  0.00    +0.352 C 
ATOM      4  O   UNL A   1     -29.642  -3.344  33.107  0.00  0.00    -0.247 OA
BRANCH   3   5
ATOM      5  O   UNL A   1     -29.541  -1.571  31.935  0.00  0.00    -0.442 OA
BRANCH   5   6
ATOM      6  C   UNL A   1     -30.476  -0.875  32.801  0.00  0.00    +0.235 C 
BRANCH   6   7
ATOM      7  C   UNL A   1     -31.026   0.286  32.215  0.00  0.00    +0.021 A 
ATOM      8  C   UNL A   1     -32.202   0.343  32.079  0.00  0.00    -0.001 A 
ATOM      9  C   UNL A   1     -30.125   1.342  31.731  0.00  0.00    -0.005 A 
ATOM     10  C   UNL A   1     -30.639   2.392  30.933  0.00  0.00    -0.018 A 
ATOM     11  C   UNL A   1     -32.849   1.488  31.285  0.00  0.00    -0.001 A 
ATOM     12  C   UNL A   1     -32.012   2.492  30.806  0.00  0.00    -0.004 A 
BRANCH  10  13
ATOM     13  C   UNL A   1     -29.736   3.438  30.452  0.00  0.00    +0.052 C 
BRANCH  13  14
ATOM     14  C   UNL A   1     -29.265   3.241  29.156  0.00  0.00    -0.021 C 
ATOM     15  C   UNL A   1     -28.075   4.018  28.801  0.00  0.00    -0.004 C 
BRANCH  15  16
ATOM     16  C   UNL A   1     -27.593   3.995  27.470  0.00  0.00    -0.000 C 
ATOM     17  C   UNL A   1     -26.395   4.707  27.274  0.00  0.00    -0.000 C 
BRANCH  17  18
ATOM     18  C   UNL A   1     -25.678   5.336  28.306  0.00  0.00    -0.000 C 
ATOM     19  C   UNL A   1     -26.206   5.276  29.589  0.00  0.00    -0.000 C 
ENDBRANCH  17  18
ENDBRANCH  15  16
ENDBRANCH  13  14
ENDBRANCH  10  13
ENDBRANCH   6   7
ENDBRANCH   5   6
ENDBRANCH   3   5
ENDBRANCH   1   3
BRANCH   1  20
ATOM     20  C   UNL A   1     -28.355  -2.922  29.868  0.00  0.00    +0.250 C 
BRANCH  20  21
ATOM     21  O   UNL A   1     -28.094  -1.560  30.025  0.00  0.00    -0.472 OA
BRANCH  21  22
ATOM     22  C   UNL A   1     -28.016  -0.814  28.878  0.00  0.00    +0.141 A 
ATOM     23  C   UNL A   1     -27.064  -0.119  28.608  0.00  0.00    +0.036 A 
ATOM     24  C   UNL A   1     -26.972   0.714  27.506  0.00  0.00    +0.035 A 
ATOM     25  C   UNL A   1     -28.105   0.774  26.642  0.00  0.00    +0.168 A 
ATOM     26  C   UNL A   1     -29.201   0.104  27.053  0.00  0.00    +0.170 A 
ATOM     27  C   UNL A   1     -29.210  -0.603  28.185  0.00  0.00    +0.069 A 
ATOM     28  F   UNL A   1     -30.281   0.216  26.291  0.00  0.00    -0.202 F 
ATOM     29  F   UNL A   1     -27.875   1.490  25.560  0.00  0.00    -0.202 F 
BRANCH  23  30
ATOM     30  C   UNL A   1     -25.716  -0.214  29.408  0.00  0.00    +0.003 A 
ATOM     31  C   UNL A   1     -25.412  -1.024  30.056  0.00  0.00    +0.000 A 
ATOM     32  C   UNL A   1     -24.141  -1.141  30.837  0.00  0.00    +0.000 A 
ATOM     33  C   UNL A   1     -23.195  -0.135  30.661  0.00  0.00    +0.000 A 
ATOM     34  C   UNL A   1     -23.536   0.914  29.757  0.00  0.00    +0.000 A 
ATOM     35  C   UNL A   1     -24.809   0.944  29.084  0.00  0.00    +0.000 A 
ENDBRANCH  23  30
ENDBRANCH  21  22
ENDBRANCH  20  21
ENDBRANCH   1  20
TORSDOF 12
