MODEL 159
MODEL 1
REMARK VINA RESULT:    -5.488      0.000      0.000
REMARK INTER + INTRA:          -6.339
REMARK INTER:                  -6.129
REMARK INTRA:                  -0.210
REMARK UNBOUND:                -0.210
REMARK  Name = No_159-gen_results/8p0m/2024-11-26-14-13-15/
REMARK  2 active torsions:
REMARK  status: ('A' for Active; 'I' for Inactive)
REMARK    1  A    between atoms: C_3  and  O_10
REMARK    2  A    between atoms: O_10  and  C_11
REMARK                            x       y       z     vdW  Elec       q    Type
REMARK                         _______ _______ _______ _____ _____    ______ ____
ROOT
ATOM      1  C   UNL A   1     -24.818  -0.848  27.748  0.00  0.00    +0.052 A 
ATOM      2  C   UNL A   1     -24.672  -0.055  27.069  0.00  0.00    +0.067 A 
ATOM      3  C   UNL A   1     -23.770  -0.977  28.831  0.00  0.00    +0.173 A 
ATOM      4  C   UNL A   1     -22.820  -0.233  28.825  0.00  0.00    +0.175 A 
ATOM      5  C   UNL A   1     -23.665   0.998  26.918  0.00  0.00    +0.048 A 
ATOM      6  C   UNL A   1     -22.675   0.852  27.878  0.00  0.00    +0.040 A 
ATOM      7 CL   UNL A   1     -25.949   0.182  25.781  0.00  0.00    -0.082 Cl
ATOM      8  F   UNL A   1     -21.814  -0.336  29.770  0.00  0.00    -0.201 F 
ATOM      9 BR   UNL A   1     -23.470   2.499  25.738  0.00  0.00    -0.048 Br
ENDROOT
BRANCH   3  10
ATOM     10  O   UNL A   1     -23.831  -2.016  29.787  0.00  0.00    -0.449 OA
BRANCH  10  11
ATOM     11  C   UNL A   1     -24.776  -2.991  29.661  0.00  0.00    +0.175 C 
ATOM     12  C   UNL A   1     -24.143  -4.088  29.118  0.00  0.00    +0.015 C 
ATOM     13  C   UNL A   1     -25.038  -5.278  29.000  0.00  0.00    +0.034 C 
ENDBRANCH  10  11
ENDBRANCH   3  10
TORSDOF 2
ENDMDL
ENDMDL
