REMARK  Name = No_16-gen_results/8p0m/2024-11-26-14-13-15/
REMARK  4 active torsions:
REMARK  status: ('A' for Active; 'I' for Inactive)
REMARK    1  A    between atoms: C_2  and  C_7
REMARK    2  A    between atoms: C_8  and  C_10
REMARK    3  A    between atoms: C_10  and  C_14
REMARK    4  A    between atoms: C_10  and  C_15
REMARK                            x       y       z     vdW  Elec       q    Type
REMARK                         _______ _______ _______ _____ _____    ______ ____
ROOT
ATOM      1  C   UNL A   1     -27.106   1.102  27.759  0.00  0.00    -0.003 A 
ATOM      2  C   UNL A   1     -26.716   2.235  27.994  0.00  0.00    -0.009 A 
ATOM      3  C   UNL A   1     -27.681   0.855  26.426  0.00  0.00    -0.000 A 
ATOM      4  C   UNL A   1     -26.861   3.380  27.076  0.00  0.00    -0.004 A 
ATOM      5  C   UNL A   1     -27.457   3.269  25.892  0.00  0.00    -0.000 A 
ATOM      6  C   UNL A   1     -27.876   1.903  25.514  0.00  0.00    -0.000 A 
ENDROOT
BRANCH   1   8
ATOM      7  C   UNL A   1     -28.016  -0.814  28.878  0.00  0.00    -0.000 A 
ATOM      8  C   UNL A   1     -27.064  -0.119  28.608  0.00  0.00    -0.000 A 
ATOM      9  C   UNL A   1     -25.792  -0.430  29.076  0.00  0.00    -0.000 A 
ATOM     10  C   UNL A   1     -25.576  -1.565  29.936  0.00  0.00    -0.000 A 
ATOM     11  C   UNL A   1     -26.735  -2.300  30.217  0.00  0.00    -0.000 A 
ATOM     12  C   UNL A   1     -27.918  -1.954  29.763  0.00  0.00    -0.000 A 
ENDBRANCH   1   8
BRANCH   2  13
ATOM     13  C   UNL A   1     -26.032   2.594  29.191  0.00  0.00    +0.127 C 
BRANCH  13  14
ATOM     14  C   UNL A   1     -26.512   2.736  30.496  0.00  0.00    +0.070 A 
ATOM     15  N   UNL A   1     -27.687   3.070  30.650  0.00  0.00    -0.247 NA
ATOM     16  C   UNL A   1     -25.676   2.504  31.657  0.00  0.00    +0.015 A 
ATOM     17  C   UNL A   1     -28.449   3.125  31.448  0.00  0.00    +0.099 A 
ATOM     18  C   UNL A   1     -26.468   2.592  32.935  0.00  0.00    +0.003 A 
ATOM     19  C   UNL A   1     -27.823   2.960  32.871  0.00  0.00    +0.021 A 
ENDBRANCH  13  14
BRANCH  13  20
ATOM     20  C   UNL A   1     -24.503   2.626  29.122  0.00  0.00    +0.217 C 
ATOM     21  O   UNL A   1     -23.749   1.827  29.691  0.00  0.00    -0.287 OA
ENDBRANCH  13  20
ENDBRANCH   2  13
TORSDOF 4
