REMARK  Name = No_160-gen_results/8p0m/2024-11-26-14-13-15/
REMARK  5 active torsions:
REMARK  status: ('A' for Active; 'I' for Inactive)
REMARK    1  A    between atoms: C_2  and  C_23
REMARK    2  A    between atoms: C_3  and  C_4
REMARK    3  A    between atoms: C_4  and  C_8
REMARK    4  A    between atoms: C_12  and  C_13
REMARK    5  A    between atoms: N_25  and  C_26
REMARK                            x       y       z     vdW  Elec       q    Type
REMARK                         _______ _______ _______ _____ _____    ______ ____
ROOT
ATOM      1  C   UNL A   1     -25.654  -0.660  27.719  0.00  0.00    +0.053 C 
ENDROOT
BRANCH   1   2
ATOM      2  C   UNL A   1     -25.926   0.282  26.744  0.00  0.00    -0.018 C 
ATOM      3  C   UNL A   1     -24.990   0.678  25.868  0.00  0.00    -0.004 C 
ATOM      4  C   UNL A   1     -24.189   1.608  25.848  0.00  0.00    -0.004 C 
ATOM      5  C   UNL A   1     -24.120   2.582  26.965  0.00  0.00    -0.013 C 
ATOM      6  C   UNL A   1     -25.310   3.144  27.318  0.00  0.00    +0.120 C 
ATOM      7  C   UNL A   1     -27.104   1.121  26.941  0.00  0.00    -0.008 C 
ATOM      8  C   UNL A   1     -26.995   2.481  26.646  0.00  0.00    -0.013 C 
BRANCH   6   9
ATOM      9  C   UNL A   1     -25.224   4.265  28.258  0.00  0.00    +0.233 C 
ATOM     10  N   UNL A   1     -25.550   4.005  29.522  0.00  0.00    -0.279 N 
ATOM     11  C   UNL A   1     -25.454   2.873  30.110  0.00  0.00    +0.093 C 
ATOM     12  C   UNL A   1     -25.715   2.825  31.617  0.00  0.00    +0.022 C 
ATOM     13  C   UNL A   1     -25.360   3.843  32.220  0.00  0.00    +0.004 C 
ATOM     14  C   UNL A   1     -25.317   5.179  31.644  0.00  0.00    +0.022 C 
ATOM     15  C   UNL A   1     -25.562   5.247  30.329  0.00  0.00    +0.093 C 
ATOM     16  O   UNL A   1     -25.146   5.384  27.720  0.00  0.00    -0.274 OA
ENDBRANCH   6   9
ENDBRANCH   1   2
BRANCH   1  19
ATOM     17  C   UNL A   1     -28.016  -0.814  28.878  0.00  0.00    +0.001 A 
ATOM     18  C   UNL A   1     -28.469  -0.785  29.829  0.00  0.00    +0.055 A 
ATOM     19  C   UNL A   1     -26.504  -0.778  28.877  0.00  0.00    -0.018 A 
ATOM     20  C   UNL A   1     -27.918  -0.937  31.182  0.00  0.00    +0.005 A 
ATOM     21  C   UNL A   1     -26.542  -0.940  31.261  0.00  0.00    -0.000 A 
ATOM     22  C   UNL A   1     -25.783  -0.893  30.120  0.00  0.00    -0.004 A 
BRANCH  18  23
ATOM     23  C   UNL A   1     -30.056  -0.778  29.890  0.00  0.00    +0.269 C 
ATOM     24  O   UNL A   1     -30.666  -0.076  29.192  0.00  0.00    -0.268 OA
ATOM     25  N   UNL A   1     -30.692  -1.361  30.972  0.00  0.00    -0.175 NA
BRANCH  25  26
ATOM     26  C   UNL A   1     -32.115  -1.390  31.040  0.00  0.00    +0.074 A 
ATOM     27  C   UNL A   1     -32.908  -0.781  30.649  0.00  0.00    +0.017 A 
ATOM     28  C   UNL A   1     -32.411  -2.603  31.901  0.00  0.00    +0.017 A 
ATOM     29  C   UNL A   1     -34.317  -0.939  30.787  0.00  0.00    +0.001 A 
ATOM     30  C   UNL A   1     -33.803  -2.810  32.103  0.00  0.00    +0.001 A 
ATOM     31  C   UNL A   1     -34.706  -1.968  31.582  0.00  0.00    +0.000 A 
ENDBRANCH  25  26
ENDBRANCH  18  23
ENDBRANCH   1  19
TORSDOF 5
