REMARK  Name = No_1600-gen_results/8p0m/2024-11-26-14-13-15/
REMARK  0 active torsions:
REMARK  status: ('A' for Active; 'I' for Inactive)
REMARK                            x       y       z     vdW  Elec       q    Type
REMARK                         _______ _______ _______ _____ _____    ______ ____
ROOT
ATOM      1  O   UNL A   1     -28.123  -1.335  28.487  0.00  0.00    -0.265 OA
ATOM      2  C   UNL A   1     -27.064  -0.824  28.869  0.00  0.00    +0.279 A 
ATOM      3  C   UNL A   1     -27.025   0.188  29.736  0.00  0.00    +0.058 A 
ATOM      4  N   UNL A   1     -25.801  -1.109  28.241  0.00  0.00    -0.206 NA
ATOM      5  C   UNL A   1     -27.947   0.754  30.324  0.00  0.00    +0.005 A 
ATOM      6  C   UNL A   1     -24.568  -0.639  28.584  0.00  0.00    +0.102 A 
ATOM      7  C   UNL A   1     -24.515   0.363  29.464  0.00  0.00    +0.021 A 
ATOM      8  C   UNL A   1     -25.620   0.801  30.071  0.00  0.00    +0.006 A 
ATOM      9  C   UNL A   1     -28.178   1.883  30.669  0.00  0.00    +0.000 A 
ATOM     10  C   UNL A   1     -29.387   2.459  31.238  0.00  0.00    +0.000 A 
ATOM     11  C   UNL A   1     -29.517   3.784  31.672  0.00  0.00    +0.000 A 
ATOM     12  C   UNL A   1     -28.377   4.612  31.556  0.00  0.00    +0.000 A 
ATOM     13  C   UNL A   1     -27.170   4.134  31.051  0.00  0.00    +0.000 A 
ATOM     14  C   UNL A   1     -27.045   2.813  30.646  0.00  0.00    +0.000 A 
ATOM     15  C   UNL A   1     -25.722   2.275  30.281  0.00  0.00    +0.000 A 
ENDROOT
TORSDOF 0
