MODEL 1600
MODEL 1
REMARK VINA RESULT:    -6.346      0.000      0.000
REMARK INTER + INTRA:          -6.346
REMARK INTER:                  -6.346
REMARK INTRA:                   0.000
REMARK UNBOUND:                 0.000
REMARK  Name = No_1600-gen_results/8p0m/2024-11-26-14-13-15/
REMARK  0 active torsions:
REMARK  status: ('A' for Active; 'I' for Inactive)
REMARK                            x       y       z     vdW  Elec       q    Type
REMARK                         _______ _______ _______ _____ _____    ______ ____
ROOT
ATOM      1  O   UNL A   1     -26.362 -12.773  32.680  0.00  0.00    -0.265 OA
ATOM      2  C   UNL A   1     -27.277 -12.020  33.032  0.00  0.00    +0.279 A 
ATOM      3  C   UNL A   1     -28.325 -11.748  32.253  0.00  0.00    +0.058 A 
ATOM      4  N   UNL A   1     -27.184 -11.189  34.203  0.00  0.00    -0.206 NA
ATOM      5  C   UNL A   1     -28.605 -12.181  31.135  0.00  0.00    +0.005 A 
ATOM      6  C   UNL A   1     -28.127 -10.346  34.711  0.00  0.00    +0.102 A 
ATOM      7  C   UNL A   1     -29.189 -10.079  33.948  0.00  0.00    +0.021 A 
ATOM      8  C   UNL A   1     -29.373 -10.709  32.786  0.00  0.00    +0.006 A 
ATOM      9  C   UNL A   1     -29.120 -11.729  30.146  0.00  0.00    +0.000 A 
ATOM     10  C   UNL A   1     -29.266 -12.308  28.819  0.00  0.00    +0.000 A 
ATOM     11  C   UNL A   1     -29.956 -11.713  27.756  0.00  0.00    +0.000 A 
ATOM     12  C   UNL A   1     -30.563 -10.461  28.006  0.00  0.00    +0.000 A 
ATOM     13  C   UNL A   1     -30.499  -9.849  29.255  0.00  0.00    +0.000 A 
ATOM     14  C   UNL A   1     -29.833 -10.459  30.309  0.00  0.00    +0.000 A 
ATOM     15  C   UNL A   1     -29.922  -9.890  31.666  0.00  0.00    +0.000 A 
ENDROOT
TORSDOF 0
ENDMDL
ENDMDL
