MODEL 1601
MODEL 1
REMARK VINA RESULT:    -6.662      0.000      0.000
REMARK INTER + INTRA:          -7.502
REMARK INTER:                  -7.441
REMARK INTRA:                  -0.061
REMARK UNBOUND:                -0.061
REMARK  Name = No_1601-gen_results/8p0m/2024-11-26-14-13-15/
REMARK  2 active torsions:
REMARK  status: ('A' for Active; 'I' for Inactive)
REMARK    1  A    between atoms: C_5  and  C_11
REMARK    2  A    between atoms: C_11  and  C_13
REMARK                            x       y       z     vdW  Elec       q    Type
REMARK                         _______ _______ _______ _____ _____    ______ ____
ROOT
ATOM      1  C   UNL A   1     -30.890  -9.646  29.101  0.00  0.00    +0.000 A 
ATOM      2  C   UNL A   1     -30.122 -10.299  29.768  0.00  0.00    +0.000 A 
ATOM      3  C   UNL A   1     -29.254 -11.178  29.357  0.00  0.00    +0.000 A 
ATOM      4  C   UNL A   1     -28.322 -11.957  30.210  0.00  0.00    +0.002 A 
ATOM      5  C   UNL A   1     -28.357 -11.675  31.605  0.00  0.00    +0.024 A 
ATOM      6  C   UNL A   1     -29.240 -10.677  32.028  0.00  0.00    +0.002 A 
ATOM      7  C   UNL A   1     -30.062  -9.995  31.190  0.00  0.00    +0.000 A 
ATOM      8  C   UNL A   1     -31.207 -10.184  27.842  0.00  0.00    +0.000 A 
ATOM      9  C   UNL A   1     -30.414 -11.165  27.285  0.00  0.00    +0.000 A 
ATOM     10  C   UNL A   1     -29.487 -11.788  28.089  0.00  0.00    +0.000 A 
ENDROOT
BRANCH   5  11
ATOM     11  C   UNL A   1     -27.429 -12.226  32.567  0.00  0.00    +0.159 C 
ATOM     12  N   UNL A   1     -26.451 -12.808  32.526  0.00  0.00    -0.143 NA
BRANCH  11  13
ATOM     13  C   UNL A   1     -27.756 -11.877  34.050  0.00  0.00    +0.304 C 
ATOM     14  N   UNL A   1     -28.615 -12.580  34.751  0.00  0.00    -0.082 NA
ATOM     15  O   UNL A   1     -27.037 -10.961  34.573  0.00  0.00    -0.265 OA
ENDBRANCH  11  13
ENDBRANCH   5  11
TORSDOF 2
ENDMDL
ENDMDL
