REMARK  Name = No_1601-gen_results/8p0m/2024-11-26-14-13-15/
REMARK  2 active torsions:
REMARK  status: ('A' for Active; 'I' for Inactive)
REMARK    1  A    between atoms: C_5  and  C_11
REMARK    2  A    between atoms: C_11  and  C_13
REMARK                            x       y       z     vdW  Elec       q    Type
REMARK                         _______ _______ _______ _____ _____    ______ ____
ROOT
ATOM      1  C   UNL A   1     -28.016  -0.814  28.878  0.00  0.00    +0.000 A 
ATOM      2  C   UNL A   1     -27.064  -0.119  28.608  0.00  0.00    +0.000 A 
ATOM      3  C   UNL A   1     -26.876   1.133  28.913  0.00  0.00    +0.000 A 
ATOM      4  C   UNL A   1     -25.688   1.952  28.567  0.00  0.00    +0.002 A 
ATOM      5  C   UNL A   1     -24.639   1.283  27.875  0.00  0.00    +0.024 A 
ATOM      6  C   UNL A   1     -24.818  -0.080  27.617  0.00  0.00    +0.002 A 
ATOM      7  C   UNL A   1     -25.931  -0.772  27.970  0.00  0.00    +0.000 A 
ATOM      8  C   UNL A   1     -29.213  -0.126  29.139  0.00  0.00    +0.000 A 
ATOM      9  C   UNL A   1     -29.192   1.221  29.430  0.00  0.00    +0.000 A 
ATOM     10  C   UNL A   1     -28.032   1.921  29.193  0.00  0.00    +0.000 A 
ENDROOT
BRANCH   5  11
ATOM     11  C   UNL A   1     -23.353   1.876  27.584  0.00  0.00    +0.159 C 
ATOM     12  N   UNL A   1     -22.935   2.592  26.804  0.00  0.00    -0.143 NA
BRANCH  11  13
ATOM     13  C   UNL A   1     -22.247   1.562  28.636  0.00  0.00    +0.304 C 
ATOM     14  N   UNL A   1     -22.473   0.770  29.659  0.00  0.00    -0.082 NA
ATOM     15  O   UNL A   1     -21.083   2.007  28.363  0.00  0.00    -0.265 OA
ENDBRANCH  11  13
ENDBRANCH   5  11
TORSDOF 2
