REMARK  Name = No_1602-gen_results/8p0m/2024-11-26-14-13-15/
REMARK  9 active torsions:
REMARK  status: ('A' for Active; 'I' for Inactive)
REMARK    1  A    between atoms: C_1  and  C_8
REMARK    2  A    between atoms: C_3  and  C_16
REMARK    3  A    between atoms: C_5  and  C_10
REMARK    4  A    between atoms: C_8  and  C_9
REMARK    5  A    between atoms: C_8  and  O_15
REMARK    6  A    between atoms: O_15  and  C_23
REMARK    7  A    between atoms: C_16  and  C_18
REMARK    8  A    between atoms: C_19  and  C_20
REMARK    9  A    between atoms: C_23  and  C_24
REMARK                            x       y       z     vdW  Elec       q    Type
REMARK                         _______ _______ _______ _____ _____    ______ ____
ROOT
ATOM      1  C   UNL A   1     -28.016  -0.814  28.878  0.00  0.00    +0.006 C 
ATOM      2  C   UNL A   1     -27.064  -0.119  28.608  0.00  0.00    -0.041 C 
ATOM      3  C   UNL A   1     -25.765  -0.390  29.036  0.00  0.00    +0.049 C 
ATOM      4  C   UNL A   1     -24.552   0.406  28.765  0.00  0.00    +0.019 C 
ATOM      5  C   UNL A   1     -24.696   1.448  27.799  0.00  0.00    +0.092 C 
ATOM      6  C   UNL A   1     -25.976   1.725  27.308  0.00  0.00    +0.015 C 
ATOM      7  C   UNL A   1     -27.072   1.013  27.654  0.00  0.00    +0.023 C 
ENDROOT
BRANCH   5   8
ATOM      8  C   UNL A   1     -23.493   2.196  27.490  0.00  0.00    +0.310 C 
ATOM      9  O   UNL A   1     -22.336   1.837  27.823  0.00  0.00    -0.259 OA
ATOM     10  F   UNL A   1     -23.649   3.368  27.034  0.00  0.00    -0.164 F 
ENDBRANCH   5   8
BRANCH   3  11
ATOM     11  C   UNL A   1     -25.458  -1.508  29.968  0.00  0.00    +0.023 C 
ATOM     12  C   UNL A   1     -25.611  -1.442  31.026  0.00  0.00    +0.004 C 
BRANCH  11  13
ATOM     13  C   UNL A   1     -25.141  -2.723  29.218  0.00  0.00    -0.059 C 
ATOM     14  C   UNL A   1     -25.175  -3.696  28.922  0.00  0.00    +0.000 C 
BRANCH  14  15
ATOM     15  C   UNL A   1     -25.049  -5.106  28.868  0.00  0.00    +0.328 C 
ATOM     16  N   UNL A   1     -23.903  -5.506  28.455  0.00  0.00    -0.076 NA
ATOM     17  O   UNL A   1     -26.020  -5.849  29.072  0.00  0.00    -0.257 OA
ENDBRANCH  14  15
ENDBRANCH  11  13
ENDBRANCH   3  11
BRANCH   1  18
ATOM     18  C   UNL A   1     -29.210  -0.050  29.349  0.00  0.00    +0.240 C 
BRANCH  18  19
ATOM     19  C   UNL A   1     -30.347  -0.866  29.661  0.00  0.00    +0.396 C 
ATOM     20  O   UNL A   1     -31.109  -0.499  30.647  0.00  0.00    -0.243 OA
ATOM     21  O   UNL A   1     -30.753  -1.863  29.080  0.00  0.00    -0.243 OA
ENDBRANCH  18  19
BRANCH  18  22
ATOM     22  O   UNL A   1     -28.851   0.726  30.431  0.00  0.00    -0.336 OA
BRANCH  22  23
ATOM     23  C   UNL A   1     -28.641   2.096  30.301  0.00  0.00    +0.169 C 
BRANCH  23  24
ATOM     24  C   UNL A   1     -29.133   2.800  31.403  0.00  0.00    +0.001 C 
ATOM     25  C   UNL A   1     -29.151   2.502  32.563  0.00  0.00    -0.028 C 
ATOM     26  C   UNL A   1     -29.677   3.257  33.675  0.00  0.00    +0.030 C 
ENDBRANCH  23  24
ENDBRANCH  22  23
ENDBRANCH  18  22
ENDBRANCH   1  18
TORSDOF 9
