MODEL 1602
MODEL 1
REMARK VINA RESULT:    -5.587      0.000      0.000
REMARK INTER + INTRA:         -11.193
REMARK INTER:                  -8.527
REMARK INTRA:                  -2.666
REMARK UNBOUND:                -2.666
REMARK  Name = No_1602-gen_results/8p0m/2024-11-26-14-13-15/
REMARK  9 active torsions:
REMARK  status: ('A' for Active; 'I' for Inactive)
REMARK    1  A    between atoms: C_1  and  C_8
REMARK    2  A    between atoms: C_3  and  C_16
REMARK    3  A    between atoms: C_5  and  C_10
REMARK    4  A    between atoms: C_8  and  C_9
REMARK    5  A    between atoms: C_8  and  O_15
REMARK    6  A    between atoms: O_15  and  C_23
REMARK    7  A    between atoms: C_16  and  C_18
REMARK    8  A    between atoms: C_19  and  C_20
REMARK    9  A    between atoms: C_23  and  C_24
REMARK                            x       y       z     vdW  Elec       q    Type
REMARK                         _______ _______ _______ _____ _____    ______ ____
ROOT
ATOM      1  C   UNL A   1     -23.967   1.546  28.880  0.00  0.00    +0.006 C 
ATOM      2  C   UNL A   1     -24.127   1.024  29.959  0.00  0.00    -0.041 C 
ATOM      3  C   UNL A   1     -23.532  -0.181  30.329  0.00  0.00    +0.049 C 
ATOM      4  C   UNL A   1     -23.681  -0.893  31.614  0.00  0.00    +0.019 C 
ATOM      5  C   UNL A   1     -24.343  -0.168  32.651  0.00  0.00    +0.092 C 
ATOM      6  C   UNL A   1     -24.917   1.067  32.336  0.00  0.00    +0.015 C 
ATOM      7  C   UNL A   1     -24.820   1.639  31.114  0.00  0.00    +0.023 C 
ENDROOT
BRANCH   5   8
ATOM      8  C   UNL A   1     -24.443  -0.843  33.931  0.00  0.00    +0.310 C 
ATOM      9  O   UNL A   1     -25.151  -0.439  34.887  0.00  0.00    -0.259 OA
ATOM     10  F   UNL A   1     -23.616  -1.778  34.151  0.00  0.00    -0.164 F 
ENDBRANCH   5   8
BRANCH   3  11
ATOM     11  C   UNL A   1     -22.731  -0.992  29.374  0.00  0.00    +0.023 C 
ATOM     12  C   UNL A   1     -21.682  -0.842  29.220  0.00  0.00    +0.004 C 
BRANCH  11  13
ATOM     13  C   UNL A   1     -23.523  -2.114  28.870  0.00  0.00    -0.059 C 
ATOM     14  C   UNL A   1     -24.106  -2.948  28.878  0.00  0.00    +0.000 C 
BRANCH  14  15
ATOM     15  C   UNL A   1     -24.576  -4.277  29.017  0.00  0.00    +0.328 C 
ATOM     16  N   UNL A   1     -23.840  -5.148  28.432  0.00  0.00    -0.076 NA
ATOM     17  O   UNL A   1     -25.674  -4.522  29.539  0.00  0.00    -0.257 OA
ENDBRANCH  14  15
ENDBRANCH  11  13
ENDBRANCH   3  11
BRANCH   1  18
ATOM     18  C   UNL A   1     -25.232   2.016  28.240  0.00  0.00    +0.240 C 
BRANCH  18  19
ATOM     19  C   UNL A   1     -25.075   3.168  27.401  0.00  0.00    +0.396 C 
ATOM     20  O   UNL A   1     -26.093   3.964  27.262  0.00  0.00    -0.243 OA
ATOM     21  O   UNL A   1     -24.072   3.558  26.819  0.00  0.00    -0.243 OA
ENDBRANCH  18  19
BRANCH  18  22
ATOM     22  O   UNL A   1     -25.797   0.971  27.539  0.00  0.00    -0.336 OA
BRANCH  22  23
ATOM     23  C   UNL A   1     -27.123   0.597  27.743  0.00  0.00    +0.169 C 
BRANCH  23  24
ATOM     24  C   UNL A   1     -27.320   0.076  29.024  0.00  0.00    +0.001 C 
ATOM     25  C   UNL A   1     -27.089  -1.017  29.456  0.00  0.00    -0.028 C 
ATOM     26  C   UNL A   1     -27.315  -1.521  30.789  0.00  0.00    +0.030 C 
ENDBRANCH  23  24
ENDBRANCH  22  23
ENDBRANCH  18  22
ENDBRANCH   1  18
TORSDOF 9
ENDMDL
ENDMDL
