REMARK  Name = No_1603-gen_results/8p0m/2024-11-26-14-13-15/
REMARK  3 active torsions:
REMARK  status: ('A' for Active; 'I' for Inactive)
REMARK    1  A    between atoms: C_3  and  C_4
REMARK    2  A    between atoms: C_4  and  N_9
REMARK    3  A    between atoms: N_8  and  C_10
REMARK                            x       y       z     vdW  Elec       q    Type
REMARK                         _______ _______ _______ _____ _____    ______ ____
ROOT
ATOM      1  C   UNL A   1     -26.335   0.290  27.284  0.00  0.00    +0.376 C 
ATOM      2  N   UNL A   1     -25.357   0.480  26.983  0.00  0.00    -0.034 NA
ENDROOT
BRANCH   1   5
ATOM      3  C   UNL A   1     -28.016  -0.814  28.878  0.00  0.00    +0.008 A 
ATOM      4  C   UNL A   1     -28.469  -0.785  29.829  0.00  0.00    +0.000 A 
ATOM      5  C   UNL A   1     -27.136   0.236  28.535  0.00  0.00    +0.088 A 
ATOM      6  C   UNL A   1     -28.369   0.196  30.924  0.00  0.00    +0.000 A 
ATOM      7  C   UNL A   1     -27.516   1.266  30.654  0.00  0.00    +0.000 A 
ATOM      8  C   UNL A   1     -26.841   1.294  29.476  0.00  0.00    +0.008 A 
ENDBRANCH   1   5
BRANCH   2   9
ATOM      9  C   UNL A   1     -24.215   0.645  27.885  0.00  0.00    +0.194 A 
ATOM     10  C   UNL A   1     -23.245   1.675  27.720  0.00  0.00    +0.047 A 
ATOM     11  C   UNL A   1     -22.337   1.952  28.727  0.00  0.00    +0.004 A 
ATOM     12  C   UNL A   1     -23.990  -0.106  29.109  0.00  0.00    +0.047 A 
ATOM     13  C   UNL A   1     -22.999   0.066  30.008  0.00  0.00    +0.004 A 
ATOM     14  C   UNL A   1     -22.146   1.202  29.761  0.00  0.00    +0.000 A 
ENDBRANCH   2   9
BRANCH   1  15
ATOM     15  N   UNL A   1     -27.223   0.177  26.095  0.00  0.00    -0.026 NA
ATOM     16  C   UNL A   1     -26.371   0.249  25.053  0.00  0.00    +0.286 C 
ENDBRANCH   1  15
TORSDOF 3
