MODEL 1603
MODEL 1
REMARK VINA RESULT:    -6.668      0.000      0.000
REMARK INTER + INTRA:          -8.216
REMARK INTER:                  -7.838
REMARK INTRA:                  -0.378
REMARK UNBOUND:                -0.378
REMARK  Name = No_1603-gen_results/8p0m/2024-11-26-14-13-15/
REMARK  3 active torsions:
REMARK  status: ('A' for Active; 'I' for Inactive)
REMARK    1  A    between atoms: C_3  and  C_4
REMARK    2  A    between atoms: C_4  and  N_9
REMARK    3  A    between atoms: N_8  and  C_10
REMARK                            x       y       z     vdW  Elec       q    Type
REMARK                         _______ _______ _______ _____ _____    ______ ____
ROOT
ATOM      1  C   UNL A   1     -24.824  -1.245  30.017  0.00  0.00    +0.376 C 
ATOM      2  N   UNL A   1     -24.651  -0.297  29.624  0.00  0.00    -0.034 NA
ENDROOT
BRANCH   1   5
ATOM      3  C   UNL A   1     -23.872  -3.341  28.882  0.00  0.00    +0.008 A 
ATOM      4  C   UNL A   1     -24.013  -4.365  28.676  0.00  0.00    +0.000 A 
ATOM      5  C   UNL A   1     -24.908  -2.656  29.555  0.00  0.00    +0.088 A 
ATOM      6  C   UNL A   1     -25.145  -5.266  28.955  0.00  0.00    +0.000 A 
ATOM      7  C   UNL A   1     -26.209  -4.655  29.618  0.00  0.00    +0.000 A 
ATOM      8  C   UNL A   1     -26.104  -3.350  29.978  0.00  0.00    +0.008 A 
ENDBRANCH   1   5
BRANCH   2   9
ATOM      9  C   UNL A   1     -24.560   0.019  28.197  0.00  0.00    +0.194 A 
ATOM     10  C   UNL A   1     -25.477  -0.492  27.234  0.00  0.00    +0.047 A 
ATOM     11  C   UNL A   1     -25.510   0.029  25.952  0.00  0.00    +0.004 A 
ATOM     12  C   UNL A   1     -23.637   0.971  27.600  0.00  0.00    +0.047 A 
ATOM     13  C   UNL A   1     -23.571   1.351  26.307  0.00  0.00    +0.004 A 
ATOM     14  C   UNL A   1     -24.617   0.825  25.466  0.00  0.00    +0.000 A 
ENDBRANCH   2   9
BRANCH   1  15
ATOM     15  N   UNL A   1     -24.859  -1.184  31.503  0.00  0.00    -0.026 NA
ATOM     16  C   UNL A   1     -23.559  -1.107  31.850  0.00  0.00    +0.286 C 
ENDBRANCH   1  15
TORSDOF 3
ENDMDL
ENDMDL
