MODEL 1604
MODEL 1
REMARK VINA RESULT:    -5.189      0.000      0.000
REMARK INTER + INTRA:          -5.674
REMARK INTER:                  -5.493
REMARK INTRA:                  -0.181
REMARK UNBOUND:                -0.181
REMARK  Name = No_1604-gen_results/8p0m/2024-11-26-14-13-15/
REMARK  1 active torsions:
REMARK  status: ('A' for Active; 'I' for Inactive)
REMARK    1  A    between atoms: C_2  and  C_7
REMARK                            x       y       z     vdW  Elec       q    Type
REMARK                         _______ _______ _______ _____ _____    ______ ____
ROOT
ATOM      1  C   UNL A   1     -23.967  -3.789  28.819  0.00  0.00    +0.004 A 
ATOM      2  C   UNL A   1     -24.374  -2.895  29.201  0.00  0.00    +0.071 A 
ATOM      3  C   UNL A   1     -24.817  -5.025  29.014  0.00  0.00    -0.000 A 
ATOM      4  C   UNL A   1     -26.119  -4.893  29.542  0.00  0.00    -0.000 A 
ATOM      5  C   UNL A   1     -25.687  -2.487  29.750  0.00  0.00    +0.004 A 
ATOM      6  C   UNL A   1     -26.499  -3.597  29.937  0.00  0.00    -0.000 A 
ENDROOT
BRANCH   2   7
ATOM      7  C   UNL A   1     -23.499  -1.564  28.996  0.00  0.00    +0.419 C 
ATOM      8  F   UNL A   1     -22.364  -1.658  28.893  0.00  0.00    -0.166 F 
ATOM      9  F   UNL A   1     -24.051  -0.872  27.933  0.00  0.00    -0.166 F 
ATOM     10  F   UNL A   1     -23.806  -0.832  30.066  0.00  0.00    -0.166 F 
ENDBRANCH   2   7
TORSDOF 1
ENDMDL
ENDMDL
