MODEL 1605
MODEL 1
REMARK VINA RESULT:    -7.924      0.000      0.000
REMARK INTER + INTRA:         -11.444
REMARK INTER:                 -10.703
REMARK INTRA:                  -0.741
REMARK UNBOUND:                -0.741
REMARK  Name = No_1605-gen_results/8p0m/2024-11-26-14-13-15/
REMARK  6 active torsions:
REMARK  status: ('A' for Active; 'I' for Inactive)
REMARK    1  A    between atoms: C_2  and  C_3
REMARK    2  A    between atoms: C_3  and  C_5
REMARK    3  A    between atoms: C_8  and  C_12
REMARK    4  A    between atoms: C_10  and  C_26
REMARK    5  A    between atoms: C_18  and  C_19
REMARK    6  A    between atoms: C_26  and  C_27
REMARK                            x       y       z     vdW  Elec       q    Type
REMARK                         _______ _______ _______ _____ _____    ______ ____
ROOT
ATOM      1  O   UNL A   1     -29.875 -14.796  24.921  0.00  0.00    -0.275 OA
ATOM      2  C   UNL A   1     -30.122 -13.682  25.047  0.00  0.00    +0.230 C 
ATOM      3  N   UNL A   1     -30.143 -13.046  26.238  0.00  0.00    -0.279 N 
ATOM      4  C   UNL A   1     -29.867 -13.848  27.429  0.00  0.00    +0.094 C 
ATOM      5  C   UNL A   1     -30.390 -11.669  26.477  0.00  0.00    +0.094 C 
ATOM      6  C   UNL A   1     -30.164 -11.049  27.637  0.00  0.00    +0.026 C 
ATOM      7  C   UNL A   1     -29.547 -13.183  28.677  0.00  0.00    +0.026 C 
ATOM      8  C   UNL A   1     -29.825 -11.827  28.777  0.00  0.00    +0.026 C 
ENDROOT
BRANCH   8   9
ATOM      9  C   UNL A   1     -29.558 -11.189  30.076  0.00  0.00    -0.022 A 
ATOM     10  C   UNL A   1     -30.154 -10.248  30.411  0.00  0.00    -0.004 A 
ATOM     11  C   UNL A   1     -29.899  -9.615  31.725  0.00  0.00    +0.001 A 
ATOM     12  C   UNL A   1     -28.937 -10.214  32.536  0.00  0.00    +0.011 A 
ATOM     13  C   UNL A   1     -28.293 -11.328  32.098  0.00  0.00    +0.057 A 
ATOM     14  C   UNL A   1     -28.580 -11.940  30.835  0.00  0.00    +0.007 A 
ATOM     15 CL   UNL A   1     -27.152 -12.134  33.098  0.00  0.00    -0.082 Cl
ENDBRANCH   8   9
BRANCH   2  16
ATOM     16  C   UNL A   1     -30.428 -12.973  23.884  0.00  0.00    +0.111 C 
BRANCH  16  17
ATOM     17  C   UNL A   1     -31.140 -13.426  22.925  0.00  0.00    -0.017 A 
ATOM     18  C   UNL A   1     -32.446 -13.786  23.205  0.00  0.00    -0.004 A 
ATOM     19  C   UNL A   1     -33.406 -13.999  22.197  0.00  0.00    +0.004 A 
ATOM     20  C   UNL A   1     -32.917 -14.098  20.807  0.00  0.00    +0.056 A 
ATOM     21  C   UNL A   1     -31.588 -13.828  20.576  0.00  0.00    +0.001 A 
ATOM     22  C   UNL A   1     -30.762 -13.502  21.620  0.00  0.00    -0.014 A 
BRANCH  20  23
ATOM     23  C   UNL A   1     -33.874 -14.480  19.770  0.00  0.00    +0.284 C 
ATOM     24  N   UNL A   1     -33.771 -14.077  18.546  0.00  0.00    -0.084 NA
ATOM     25  O   UNL A   1     -34.805 -15.374  20.000  0.00  0.00    -0.267 OA
ENDBRANCH  20  23
BRANCH  22  26
ATOM     26  C   UNL A   1     -29.324 -13.211  21.239  0.00  0.00    +0.140 C 
BRANCH  26  27
ATOM     27  C   UNL A   1     -29.115 -12.115  20.456  0.00  0.00    +0.369 C 
ATOM     28  O   UNL A   1     -29.863 -11.184  20.529  0.00  0.00    -0.245 OA
ATOM     29  O   UNL A   1     -28.177 -12.171  19.569  0.00  0.00    -0.245 OA
ENDBRANCH  26  27
ENDBRANCH  22  26
ENDBRANCH  16  17
ENDBRANCH   2  16
TORSDOF 6
ENDMDL
ENDMDL
