REMARK  Name = No_1605-gen_results/8p0m/2024-11-26-14-13-15/
REMARK  6 active torsions:
REMARK  status: ('A' for Active; 'I' for Inactive)
REMARK    1  A    between atoms: C_2  and  C_3
REMARK    2  A    between atoms: C_3  and  C_5
REMARK    3  A    between atoms: C_8  and  C_12
REMARK    4  A    between atoms: C_10  and  C_26
REMARK    5  A    between atoms: C_18  and  C_19
REMARK    6  A    between atoms: C_26  and  C_27
REMARK                            x       y       z     vdW  Elec       q    Type
REMARK                         _______ _______ _______ _____ _____    ______ ____
ROOT
ATOM      1  O   UNL A   1     -28.123  -1.335  28.487  0.00  0.00    -0.275 OA
ATOM      2  C   UNL A   1     -28.521  -0.436  29.078  0.00  0.00    +0.230 C 
ATOM      3  N   UNL A   1     -29.742   0.110  28.887  0.00  0.00    -0.279 N 
ATOM      4  C   UNL A   1     -30.576  -0.470  27.835  0.00  0.00    +0.094 C 
ATOM      5  C   UNL A   1     -30.328   1.186  29.603  0.00  0.00    +0.094 C 
ATOM      6  C   UNL A   1     -31.617   1.527  29.537  0.00  0.00    +0.026 C 
ATOM      7  C   UNL A   1     -31.992  -0.164  27.800  0.00  0.00    +0.026 C 
ATOM      8  C   UNL A   1     -32.442   0.907  28.560  0.00  0.00    +0.026 C 
ENDROOT
BRANCH   8   9
ATOM      9  C   UNL A   1     -33.871   1.243  28.453  0.00  0.00    -0.022 A 
ATOM     10  C   UNL A   1     -34.683   0.538  28.897  0.00  0.00    -0.004 A 
ATOM     11  C   UNL A   1     -36.120   0.883  28.806  0.00  0.00    +0.001 A 
ATOM     12  C   UNL A   1     -36.440   2.091  28.189  0.00  0.00    +0.011 A 
ATOM     13  C   UNL A   1     -35.443   2.883  27.713  0.00  0.00    +0.057 A 
ATOM     14  C   UNL A   1     -34.057   2.542  27.842  0.00  0.00    +0.007 A 
ATOM     15 CL   UNL A   1     -35.793   4.411  27.010  0.00  0.00    -0.082 Cl
ENDBRANCH   8   9
BRANCH   2  16
ATOM     16  C   UNL A   1     -27.666   0.113  30.035  0.00  0.00    +0.111 C 
BRANCH  16  17
ATOM     17  C   UNL A   1     -26.411   0.288  29.871  0.00  0.00    -0.017 A 
ATOM     18  C   UNL A   1     -25.574  -0.788  30.107  0.00  0.00    -0.004 A 
ATOM     19  C   UNL A   1     -24.235  -0.815  29.672  0.00  0.00    +0.004 A 
ATOM     20  C   UNL A   1     -23.654   0.454  29.191  0.00  0.00    +0.056 A 
ATOM     21  C   UNL A   1     -24.496   1.534  29.059  0.00  0.00    +0.001 A 
ATOM     22  C   UNL A   1     -25.820   1.416  29.391  0.00  0.00    -0.014 A 
BRANCH  20  23
ATOM     23  C   UNL A   1     -22.223   0.482  28.890  0.00  0.00    +0.284 C 
ATOM     24  N   UNL A   1     -21.675   1.429  28.201  0.00  0.00    -0.084 NA
ATOM     25  O   UNL A   1     -21.398  -0.381  29.432  0.00  0.00    -0.267 OA
ENDBRANCH  20  23
BRANCH  22  26
ATOM     26  C   UNL A   1     -26.651   2.668  29.189  0.00  0.00    +0.140 C 
BRANCH  26  27
ATOM     27  C   UNL A   1     -25.973   3.791  28.818  0.00  0.00    +0.369 C 
ATOM     28  O   UNL A   1     -26.032   4.771  29.502  0.00  0.00    -0.245 OA
ATOM     29  O   UNL A   1     -25.382   3.793  27.669  0.00  0.00    -0.245 OA
ENDBRANCH  26  27
ENDBRANCH  22  26
ENDBRANCH  16  17
ENDBRANCH   2  16
TORSDOF 6
