MODEL 1606
MODEL 1
REMARK VINA RESULT:    -5.391      0.000      0.000
REMARK INTER + INTRA:          -6.608
REMARK INTER:                  -6.337
REMARK INTRA:                  -0.272
REMARK UNBOUND:                -0.272
REMARK  Name = No_1606-gen_results/8p0m/2024-11-26-14-13-15/
REMARK  3 active torsions:
REMARK  status: ('A' for Active; 'I' for Inactive)
REMARK    1  A    between atoms: C_1  and  C_2
REMARK    2  A    between atoms: C_1  and  C_8
REMARK    3  A    between atoms: C_5  and  C_12
REMARK                            x       y       z     vdW  Elec       q    Type
REMARK                         _______ _______ _______ _____ _____    ______ ____
ROOT
ATOM      1  C   UNL A   1     -23.567   0.907  27.782  0.00  0.00    -0.014 A 
ATOM      2  C   UNL A   1     -22.576   0.274  28.459  0.00  0.00    -0.003 A 
ATOM      3  C   UNL A   1     -22.662  -1.109  28.978  0.00  0.00    +0.010 A 
ATOM      4  C   UNL A   1     -23.896  -1.807  28.762  0.00  0.00    +0.068 A 
ATOM      5  C   UNL A   1     -24.928  -1.089  28.117  0.00  0.00    +0.010 A 
ATOM      6  C   UNL A   1     -24.775   0.195  27.662  0.00  0.00    -0.003 A 
ENDROOT
BRANCH   4   7
ATOM      7  C   UNL A   1     -24.126  -3.138  29.240  0.00  0.00    +0.100 C 
ATOM      8  N   UNL A   1     -23.904  -4.138  29.070  0.00  0.00    -0.191 NA
ENDBRANCH   4   7
BRANCH   1   9
ATOM      9  C   UNL A   1     -23.484   2.039  27.364  0.00  0.00    +0.130 C 
BRANCH   9  10
ATOM     10  C   UNL A   1     -23.162   2.258  25.867  0.00  0.00    +0.402 C 
ATOM     11  F   UNL A   1     -21.992   2.195  25.640  0.00  0.00    -0.170 F 
ATOM     12  F   UNL A   1     -23.728   1.292  25.101  0.00  0.00    -0.170 F 
ATOM     13  F   UNL A   1     -23.641   3.458  25.411  0.00  0.00    -0.170 F 
ENDBRANCH   9  10
ENDBRANCH   1   9
TORSDOF 3
ENDMDL
ENDMDL
