REMARK  Name = No_1606-gen_results/8p0m/2024-11-26-14-13-15/
REMARK  3 active torsions:
REMARK  status: ('A' for Active; 'I' for Inactive)
REMARK    1  A    between atoms: C_1  and  C_2
REMARK    2  A    between atoms: C_1  and  C_8
REMARK    3  A    between atoms: C_5  and  C_12
REMARK                            x       y       z     vdW  Elec       q    Type
REMARK                         _______ _______ _______ _____ _____    ______ ____
ROOT
ATOM      1  C   UNL A   1     -27.064  -0.119  28.608  0.00  0.00    -0.014 A 
ATOM      2  C   UNL A   1     -26.929   1.171  29.008  0.00  0.00    -0.003 A 
ATOM      3  C   UNL A   1     -25.770   2.034  28.688  0.00  0.00    +0.010 A 
ATOM      4  C   UNL A   1     -24.714   1.443  27.919  0.00  0.00    +0.068 A 
ATOM      5  C   UNL A   1     -24.859   0.078  27.584  0.00  0.00    +0.010 A 
ATOM      6  C   UNL A   1     -25.965  -0.661  27.916  0.00  0.00    -0.003 A 
ENDROOT
BRANCH   4   7
ATOM      7  C   UNL A   1     -23.521   2.154  27.568  0.00  0.00    +0.100 C 
ATOM      8  N   UNL A   1     -23.131   2.861  26.915  0.00  0.00    -0.191 NA
ENDBRANCH   4   7
BRANCH   1   9
ATOM      9  C   UNL A   1     -28.016  -0.814  28.878  0.00  0.00    +0.130 C 
BRANCH   9  10
ATOM     10  C   UNL A   1     -28.042  -1.543  30.242  0.00  0.00    +0.402 C 
ATOM     11  F   UNL A   1     -26.958  -1.908  30.584  0.00  0.00    -0.170 F 
ATOM     12  F   UNL A   1     -28.469  -0.715  31.228  0.00  0.00    -0.170 F 
ATOM     13  F   UNL A   1     -28.891  -2.619  30.231  0.00  0.00    -0.170 F 
ENDBRANCH   9  10
ENDBRANCH   1   9
TORSDOF 3
