MODEL 1607
MODEL 1
REMARK VINA RESULT:    -4.923      0.000      0.000
REMARK INTER + INTRA:          -4.923
REMARK INTER:                  -4.923
REMARK INTRA:                   0.000
REMARK UNBOUND:                 0.000
REMARK  Name = No_1607-gen_results/8p0m/2024-11-26-14-13-15/
REMARK  0 active torsions:
REMARK  status: ('A' for Active; 'I' for Inactive)
REMARK                            x       y       z     vdW  Elec       q    Type
REMARK                         _______ _______ _______ _____ _____    ______ ____
ROOT
ATOM      1  C   UNL A   1     -23.646  -1.525  29.576  0.00  0.00    +0.271 C 
ATOM      2  C   UNL A   1     -24.400  -2.470  29.590  0.00  0.00    +0.012 C 
ATOM      3  C   UNL A   1     -25.630  -2.505  30.014  0.00  0.00    +0.027 C 
ATOM      4  C   UNL A   1     -26.528  -3.687  30.009  0.00  0.00    +0.004 C 
ATOM      5  C   UNL A   1     -25.998  -4.880  29.441  0.00  0.00    +0.001 C 
ATOM      6  C   UNL A   1     -24.723  -4.832  28.938  0.00  0.00    +0.004 C 
ATOM      7  C   UNL A   1     -23.941  -3.727  28.948  0.00  0.00    +0.027 C 
ATOM      8  F   UNL A   1     -23.395  -1.074  30.712  0.00  0.00    -0.173 F 
ATOM      9  F   UNL A   1     -22.504  -1.708  28.854  0.00  0.00    -0.173 F 
ENDROOT
TORSDOF 0
ENDMDL
ENDMDL
