REMARK  Name = No_1607-gen_results/8p0m/2024-11-26-14-13-15/
REMARK  0 active torsions:
REMARK  status: ('A' for Active; 'I' for Inactive)
REMARK                            x       y       z     vdW  Elec       q    Type
REMARK                         _______ _______ _______ _____ _____    ______ ____
ROOT
ATOM      1  C   UNL A   1     -28.016  -0.814  28.878  0.00  0.00    +0.271 C 
ATOM      2  C   UNL A   1     -27.064  -0.119  28.608  0.00  0.00    +0.012 C 
ATOM      3  C   UNL A   1     -26.876   1.133  28.913  0.00  0.00    +0.027 C 
ATOM      4  C   UNL A   1     -25.688   1.952  28.567  0.00  0.00    +0.004 C 
ATOM      5  C   UNL A   1     -24.639   1.283  27.875  0.00  0.00    +0.001 C 
ATOM      6  C   UNL A   1     -24.807  -0.051  27.604  0.00  0.00    +0.004 C 
ATOM      7  C   UNL A   1     -25.902  -0.767  27.951  0.00  0.00    +0.027 C 
ATOM      8  F   UNL A   1     -29.085  -0.406  28.381  0.00  0.00    -0.173 F 
ATOM      9  F   UNL A   1     -27.841  -2.146  28.648  0.00  0.00    -0.173 F 
ENDROOT
TORSDOF 0
