MODEL 1608
MODEL 1
REMARK VINA RESULT:    -4.260      0.000      0.000
REMARK INTER + INTRA:          -4.260
REMARK INTER:                  -4.260
REMARK INTRA:                   0.000
REMARK UNBOUND:                 0.000
REMARK  Name = No_1608-gen_results/8p0m/2024-11-26-14-13-15/
REMARK  0 active torsions:
REMARK  status: ('A' for Active; 'I' for Inactive)
REMARK                            x       y       z     vdW  Elec       q    Type
REMARK                         _______ _______ _______ _____ _____    ______ ____
ROOT
ATOM      1  C   UNL A   1     -23.867  -3.510  28.580  0.00  0.00    +0.007 A 
ATOM      2  C   UNL A   1     -24.608  -2.652  29.002  0.00  0.00    +0.035 A 
ATOM      3  C   UNL A   1     -25.806  -2.981  29.626  0.00  0.00    +0.007 A 
ATOM      4  C   UNL A   1     -26.225  -4.354  29.749  0.00  0.00    +0.001 A 
ATOM      5  C   UNL A   1     -25.320  -5.279  29.214  0.00  0.00    +0.000 A 
ATOM      6  C   UNL A   1     -24.207  -4.915  28.618  0.00  0.00    +0.001 A 
ATOM      7 BR   UNL A   1     -24.253  -0.807  28.895  0.00  0.00    -0.049 Br
ENDROOT
TORSDOF 0
ENDMDL
ENDMDL
