MODEL 1609
MODEL 1
REMARK VINA RESULT:    -6.047      0.000      0.000
REMARK INTER + INTRA:          -9.968
REMARK INTER:                  -8.168
REMARK INTRA:                  -1.800
REMARK UNBOUND:                -1.800
REMARK  Name = No_1609-gen_results/8p0m/2024-11-26-14-13-15/
REMARK  6 active torsions:
REMARK  status: ('A' for Active; 'I' for Inactive)
REMARK    1  A    between atoms: C_3  and  C_4
REMARK    2  A    between atoms: C_7  and  C_22
REMARK    3  A    between atoms: C_8  and  C_10
REMARK    4  A    between atoms: C_15  and  O_16
REMARK    5  A    between atoms: O_16  and  C_17
REMARK    6  A    between atoms: C_17  and  C_18
REMARK                            x       y       z     vdW  Elec       q    Type
REMARK                         _______ _______ _______ _____ _____    ______ ____
ROOT
ATOM      1  C   UNL A   1     -23.121   0.044  28.360  0.00  0.00    -0.004 C 
ATOM      2  C   UNL A   1     -23.552   0.889  27.331  0.00  0.00    -0.019 C 
ATOM      3  C   UNL A   1     -22.696   1.864  26.828  0.00  0.00    +0.031 C 
ENDROOT
BRANCH   1   6
ATOM      4  C   UNL A   1     -24.597  -2.122  28.388  0.00  0.00    -0.000 A 
ATOM      5  C   UNL A   1     -25.359  -2.608  28.930  0.00  0.00    -0.000 A 
ATOM      6  C   UNL A   1     -24.060  -0.883  28.972  0.00  0.00    +0.004 A 
ATOM      7  C   UNL A   1     -25.877  -2.397  30.304  0.00  0.00    -0.000 A 
ATOM      8  C   UNL A   1     -25.410  -1.246  30.929  0.00  0.00    +0.004 A 
ATOM      9  C   UNL A   1     -24.468  -0.449  30.314  0.00  0.00    +0.071 A 
BRANCH   9  10
ATOM     10  C   UNL A   1     -23.975   0.732  30.939  0.00  0.00    +0.419 C 
ATOM     11  F   UNL A   1     -24.342   1.829  30.349  0.00  0.00    -0.166 F 
ATOM     12  F   UNL A   1     -24.474   0.864  32.196  0.00  0.00    -0.166 F 
ATOM     13  F   UNL A   1     -22.682   0.679  31.024  0.00  0.00    -0.166 F 
ENDBRANCH   9  10
ENDBRANCH   1   6
BRANCH   2  14
ATOM     14  C   UNL A   1     -24.823   0.744  26.763  0.00  0.00    +0.030 A 
ATOM     15  C   UNL A   1     -24.928   0.091  25.513  0.00  0.00    +0.003 A 
ATOM     16  C   UNL A   1     -26.174   0.048  24.981  0.00  0.00    +0.000 A 
ATOM     17  C   UNL A   1     -27.277   0.469  25.604  0.00  0.00    +0.003 A 
ATOM     18  C   UNL A   1     -27.167   1.064  26.817  0.00  0.00    +0.037 A 
ATOM     19  C   UNL A   1     -25.987   1.262  27.387  0.00  0.00    +0.139 A 
BRANCH  19  20
ATOM     20  O   UNL A   1     -25.892   2.563  27.086  0.00  0.00    -0.468 OA
BRANCH  20  21
ATOM     21  C   UNL A   1     -26.000   3.623  27.815  0.00  0.00    +0.268 C 
ATOM     22  C   UNL A   1     -26.534   3.779  29.058  0.00  0.00    +0.060 C 
BRANCH  21  23
ATOM     23  C   UNL A   1     -25.213   4.716  27.245  0.00  0.00    +0.404 C 
ATOM     24  O   UNL A   1     -24.673   4.700  26.262  0.00  0.00    -0.242 OA
ATOM     25  O   UNL A   1     -24.865   5.608  28.137  0.00  0.00    -0.242 OA
ENDBRANCH  21  23
ENDBRANCH  20  21
ENDBRANCH  19  20
ENDBRANCH   2  14
TORSDOF 6
ENDMDL
ENDMDL
