REMARK  Name = No_1609-gen_results/8p0m/2024-11-26-14-13-15/
REMARK  6 active torsions:
REMARK  status: ('A' for Active; 'I' for Inactive)
REMARK    1  A    between atoms: C_3  and  C_4
REMARK    2  A    between atoms: C_7  and  C_22
REMARK    3  A    between atoms: C_8  and  C_10
REMARK    4  A    between atoms: C_15  and  O_16
REMARK    5  A    between atoms: O_16  and  C_17
REMARK    6  A    between atoms: C_17  and  C_18
REMARK                            x       y       z     vdW  Elec       q    Type
REMARK                         _______ _______ _______ _____ _____    ______ ____
ROOT
ATOM      1  C   UNL A   1     -25.683  -0.777  27.683  0.00  0.00    -0.004 C 
ATOM      2  C   UNL A   1     -25.898   0.239  26.745  0.00  0.00    -0.019 C 
ATOM      3  C   UNL A   1     -25.002   0.417  25.696  0.00  0.00    +0.031 C 
ENDROOT
BRANCH   1   6
ATOM      4  C   UNL A   1     -28.016  -0.814  28.878  0.00  0.00    -0.000 A 
ATOM      5  C   UNL A   1     -28.469  -0.785  29.829  0.00  0.00    -0.000 A 
ATOM      6  C   UNL A   1     -26.546  -0.876  28.850  0.00  0.00    +0.004 A 
ATOM      7  C   UNL A   1     -27.918  -1.003  31.188  0.00  0.00    -0.000 A 
ATOM      8  C   UNL A   1     -26.531  -1.079  31.246  0.00  0.00    +0.004 A 
ATOM      9  C   UNL A   1     -25.780  -1.046  30.090  0.00  0.00    +0.071 A 
BRANCH   9  10
ATOM     10  C   UNL A   1     -24.358  -1.126  30.128  0.00  0.00    +0.419 C 
ATOM     11  F   UNL A   1     -23.762  -0.169  29.483  0.00  0.00    -0.166 F 
ATOM     12  F   UNL A   1     -23.895  -0.991  31.398  0.00  0.00    -0.166 F 
ATOM     13  F   UNL A   1     -23.970  -2.279  29.680  0.00  0.00    -0.166 F 
ENDBRANCH   9  10
ENDBRANCH   1   6
BRANCH   2  14
ATOM     14  C   UNL A   1     -27.030   1.060  26.818  0.00  0.00    +0.030 A 
ATOM     15  C   UNL A   1     -27.311   1.912  25.725  0.00  0.00    +0.003 A 
ATOM     16  C   UNL A   1     -28.375   2.735  25.887  0.00  0.00    +0.000 A 
ATOM     17  C   UNL A   1     -29.206   2.701  26.931  0.00  0.00    +0.003 A 
ATOM     18  C   UNL A   1     -28.944   1.855  27.958  0.00  0.00    +0.037 A 
ATOM     19  C   UNL A   1     -27.868   1.082  27.962  0.00  0.00    +0.139 A 
BRANCH  19  20
ATOM     20  O   UNL A   1     -27.147   1.832  28.804  0.00  0.00    -0.468 OA
BRANCH  20  21
ATOM     21  C   UNL A   1     -26.607   2.997  28.668  0.00  0.00    +0.268 C 
ATOM     22  C   UNL A   1     -27.067   4.105  28.024  0.00  0.00    +0.060 C 
BRANCH  21  23
ATOM     23  C   UNL A   1     -25.447   3.126  29.549  0.00  0.00    +0.404 C 
ATOM     24  O   UNL A   1     -25.380   2.772  30.611  0.00  0.00    -0.242 OA
ATOM     25  O   UNL A   1     -24.592   4.026  29.133  0.00  0.00    -0.242 OA
ENDBRANCH  21  23
ENDBRANCH  20  21
ENDBRANCH  19  20
ENDBRANCH   2  14
TORSDOF 6
