MODEL 160
MODEL 1
REMARK VINA RESULT:    -7.345      0.000      0.000
REMARK INTER + INTRA:         -11.653
REMARK INTER:                  -9.492
REMARK INTRA:                  -2.161
REMARK UNBOUND:                -2.161
REMARK  Name = No_160-gen_results/8p0m/2024-11-26-14-13-15/
REMARK  5 active torsions:
REMARK  status: ('A' for Active; 'I' for Inactive)
REMARK    1  A    between atoms: C_2  and  C_23
REMARK    2  A    between atoms: C_3  and  C_4
REMARK    3  A    between atoms: C_4  and  C_8
REMARK    4  A    between atoms: C_12  and  C_13
REMARK    5  A    between atoms: N_25  and  C_26
REMARK                            x       y       z     vdW  Elec       q    Type
REMARK                         _______ _______ _______ _____ _____    ______ ____
ROOT
ATOM      1  C   UNL A   1     -30.969 -15.224  11.266  0.00  0.00    +0.053 C 
ENDROOT
BRANCH   1   2
ATOM      2  C   UNL A   1     -31.035 -13.896  11.644  0.00  0.00    -0.018 C 
ATOM      3  C   UNL A   1     -32.029 -13.095  11.228  0.00  0.00    -0.004 C 
ATOM      4  C   UNL A   1     -32.153 -12.322  10.283  0.00  0.00    -0.004 C 
ATOM      5  C   UNL A   1     -31.057 -12.131   9.302  0.00  0.00    -0.013 C 
ATOM      6  C   UNL A   1     -29.840 -11.841   9.842  0.00  0.00    +0.120 C 
ATOM      7  C   UNL A   1     -29.811 -13.289  12.156  0.00  0.00    -0.008 C 
ATOM      8  C   UNL A   1     -29.498 -11.995  11.737  0.00  0.00    -0.013 C 
BRANCH   6   9
ATOM      9  C   UNL A   1     -28.808 -11.429   8.887  0.00  0.00    +0.233 C 
ATOM     10  N   UNL A   1     -28.748 -10.131   8.601  0.00  0.00    -0.279 N 
ATOM     11  C   UNL A   1     -29.108  -9.171   9.367  0.00  0.00    +0.093 C 
ATOM     12  C   UNL A   1     -28.793  -7.742   8.919  0.00  0.00    +0.022 C 
ATOM     13  C   UNL A   1     -27.739  -7.636   8.284  0.00  0.00    +0.004 C 
ATOM     14  C   UNL A   1     -27.156  -8.683   7.459  0.00  0.00    +0.022 C 
ATOM     15  C   UNL A   1     -27.767  -9.873   7.522  0.00  0.00    +0.093 C 
ATOM     16  O   UNL A   1     -28.308 -12.363   8.234  0.00  0.00    -0.274 OA
ENDBRANCH   6   9
ENDBRANCH   1   2
BRANCH   1  19
ATOM     17  C   UNL A   1     -28.989 -15.808   9.626  0.00  0.00    +0.001 A 
ATOM     18  C   UNL A   1     -28.785 -15.954   8.603  0.00  0.00    +0.055 A 
ATOM     19  C   UNL A   1     -30.445 -15.590   9.973  0.00  0.00    -0.018 A 
ATOM     20  C   UNL A   1     -29.665 -16.208   7.454  0.00  0.00    +0.005 A 
ATOM     21  C   UNL A   1     -31.012 -16.055   7.699  0.00  0.00    -0.000 A 
ATOM     22  C   UNL A   1     -31.458 -15.773   8.964  0.00  0.00    -0.004 A 
BRANCH  18  23
ATOM     23  C   UNL A   1     -27.268 -16.147   8.174  0.00  0.00    +0.269 C 
ATOM     24  O   UNL A   1     -26.476 -16.482   8.956  0.00  0.00    -0.268 OA
ATOM     25  N   UNL A   1     -26.836 -15.621   6.969  0.00  0.00    -0.175 NA
BRANCH  25  26
ATOM     26  C   UNL A   1     -25.486 -15.800   6.549  0.00  0.00    +0.074 A 
ATOM     27  C   UNL A   1     -24.910 -16.623   6.171  0.00  0.00    +0.017 A 
ATOM     28  C   UNL A   1     -24.859 -14.435   6.755  0.00  0.00    +0.017 A 
ATOM     29  C   UNL A   1     -23.543 -16.657   5.769  0.00  0.00    +0.001 A 
ATOM     30  C   UNL A   1     -23.484 -14.399   6.397  0.00  0.00    +0.001 A 
ATOM     31  C   UNL A   1     -22.860 -15.500   5.955  0.00  0.00    +0.000 A 
ENDBRANCH  25  26
ENDBRANCH  18  23
ENDBRANCH   1  19
TORSDOF 5
ENDMDL
ENDMDL
