REMARK  Name = No_161-gen_results/8p0m/2024-11-26-14-13-15/
REMARK  7 active torsions:
REMARK  status: ('A' for Active; 'I' for Inactive)
REMARK    1  A    between atoms: C_2  and  C_28
REMARK    2  A    between atoms: C_3  and  C_7
REMARK    3  A    between atoms: C_6  and  C_21
REMARK    4  A    between atoms: C_8  and  C_13
REMARK    5  A    between atoms: C_15  and  O_19
REMARK    6  A    between atoms: O_19  and  C_20
REMARK    7  A    between atoms: C_20  and  C_24
REMARK                            x       y       z     vdW  Elec       q    Type
REMARK                         _______ _______ _______ _____ _____    ______ ____
ROOT
ATOM      1  C   UNL A   1     -27.460   0.380  26.709  0.00  0.00    +0.000 A 
ATOM      2  C   UNL A   1     -27.930   0.584  25.680  0.00  0.00    +0.000 A 
ATOM      3  C   UNL A   1     -27.125   0.528  24.426  0.00  0.00    +0.000 A 
ATOM      4  C   UNL A   1     -26.035   0.137  26.781  0.00  0.00    +0.000 A 
ATOM      5  C   UNL A   1     -25.168   0.214  25.726  0.00  0.00    +0.000 A 
ATOM      6  C   UNL A   1     -25.762   0.353  24.524  0.00  0.00    +0.000 A 
ENDROOT
BRANCH   1   9
ATOM      7  C   UNL A   1     -28.016  -0.814  28.878  0.00  0.00    +0.007 A 
ATOM      8  C   UNL A   1     -28.469  -0.785  29.829  0.00  0.00    +0.080 A 
ATOM      9  C   UNL A   1     -28.196   0.348  28.055  0.00  0.00    +0.000 A 
ATOM     10  C   UNL A   1     -29.019   1.350  28.378  0.00  0.00    +0.007 A 
ATOM     11  C   UNL A   1     -29.411   0.180  30.378  0.00  0.00    +0.013 A 
ATOM     12  C   UNL A   1     -29.606   1.250  29.619  0.00  0.00    +0.080 A 
BRANCH  12  13
ATOM     13  C   UNL A   1     -30.599   2.346  30.041  0.00  0.00    +0.388 C 
ATOM     14  O   UNL A   1     -31.611   2.593  29.357  0.00  0.00    -0.241 OA
ATOM     15  O   UNL A   1     -30.458   2.876  31.267  0.00  0.00    -0.241 OA
ENDBRANCH  12  13
BRANCH   8  16
ATOM     16  C   UNL A   1     -28.375  -2.027  30.865  0.00  0.00    +0.388 C 
ATOM     17  O   UNL A   1     -28.177  -3.134  30.417  0.00  0.00    -0.241 OA
ATOM     18  O   UNL A   1     -28.767  -1.840  32.086  0.00  0.00    -0.241 OA
ENDBRANCH   8  16
ENDBRANCH   1   9
BRANCH   2  19
ATOM     19  C   UNL A   1     -29.365   0.746  25.355  0.00  0.00    +0.003 A 
ATOM     20  C   UNL A   1     -30.240   0.167  25.884  0.00  0.00    +0.038 A 
ATOM     21  C   UNL A   1     -31.652   0.286  25.654  0.00  0.00    +0.149 A 
ATOM     22  C   UNL A   1     -29.739   1.781  24.447  0.00  0.00    +0.000 A 
ATOM     23  C   UNL A   1     -31.092   2.037  24.127  0.00  0.00    +0.003 A 
ATOM     24  C   UNL A   1     -32.020   1.298  24.773  0.00  0.00    +0.038 A 
BRANCH  21  25
ATOM     25  O   UNL A   1     -32.612  -0.401  26.320  0.00  0.00    -0.416 OA
BRANCH  25  26
ATOM     26  C   UNL A   1     -32.442  -1.657  26.617  0.00  0.00    +0.427 C 
ATOM     27  O   UNL A   1     -32.282  -2.478  25.745  0.00  0.00    -0.237 OA
BRANCH  26  28
ATOM     28  C   UNL A   1     -32.530  -1.991  27.991  0.00  0.00    +0.463 C 
ATOM     29  O   UNL A   1     -31.943  -3.092  28.386  0.00  0.00    -0.233 OA
ATOM     30  O   UNL A   1     -32.985  -1.186  28.813  0.00  0.00    -0.233 OA
ENDBRANCH  26  28
ENDBRANCH  25  26
ENDBRANCH  21  25
ENDBRANCH   2  19
TORSDOF 7
