MODEL 1610
MODEL 1
REMARK VINA RESULT:    -4.565      0.000      0.000
REMARK INTER + INTRA:          -4.565
REMARK INTER:                  -4.565
REMARK INTRA:                   0.000
REMARK UNBOUND:                 0.000
REMARK  Name = No_1610-gen_results/8p0m/2024-11-26-14-13-15/
REMARK  0 active torsions:
REMARK  status: ('A' for Active; 'I' for Inactive)
REMARK                            x       y       z     vdW  Elec       q    Type
REMARK                         _______ _______ _______ _____ _____    ______ ____
ROOT
ATOM      1  C   UNL A   1     -23.972  -4.315  28.618  0.00  0.00    +0.030 A 
ATOM      2  C   UNL A   1     -24.857  -5.092  28.892  0.00  0.00    +0.140 A 
ATOM      3  C   UNL A   1     -26.011  -4.666  29.541  0.00  0.00    +0.030 A 
ATOM      4  C   UNL A   1     -26.169  -3.294  29.948  0.00  0.00    +0.002 A 
ATOM      5  C   UNL A   1     -25.088  -2.469  29.613  0.00  0.00    +0.000 A 
ATOM      6  C   UNL A   1     -24.011  -2.924  29.014  0.00  0.00    +0.002 A 
ATOM      7  F   UNL A   1     -24.811  -6.398  28.629  0.00  0.00    -0.204 F 
ENDROOT
TORSDOF 0
ENDMDL
ENDMDL
