MODEL 1611
MODEL 1
REMARK VINA RESULT:    -5.782      0.000      0.000
REMARK INTER + INTRA:          -5.990
REMARK INTER:                  -6.120
REMARK INTRA:                   0.130
REMARK UNBOUND:                 0.130
REMARK  Name = No_1611-gen_results/8p0m/2024-11-26-14-13-15/
REMARK  1 active torsions:
REMARK  status: ('A' for Active; 'I' for Inactive)
REMARK    1  A    between atoms: N_14  and  C_15
REMARK                            x       y       z     vdW  Elec       q    Type
REMARK                         _______ _______ _______ _____ _____    ______ ____
ROOT
ATOM      1  C   UNL A   1     -22.791  -1.139  32.026  0.00  0.00    -0.003 A 
ATOM      2  C   UNL A   1     -23.531  -1.148  32.776  0.00  0.00    -0.000 A 
ATOM      3  C   UNL A   1     -23.011  -0.327  30.892  0.00  0.00    -0.004 A 
ATOM      4  C   UNL A   1     -24.158   0.428  30.746  0.00  0.00    +0.048 A 
ATOM      5  C   UNL A   1     -25.076   0.363  31.781  0.00  0.00    +0.015 A 
ATOM      6  C   UNL A   1     -24.802  -0.416  32.886  0.00  0.00    +0.001 A 
ATOM      7  C   UNL A   1     -22.031  -0.203  29.764  0.00  0.00    +0.055 C 
ATOM      8  C   UNL A   1     -22.441   0.481  28.606  0.00  0.00    -0.004 A 
ATOM      9  C   UNL A   1     -21.589   1.040  27.789  0.00  0.00    -0.003 A 
ATOM     10  C   UNL A   1     -22.102   1.925  26.677  0.00  0.00    -0.000 A 
ATOM     11  C   UNL A   1     -23.525   2.087  26.568  0.00  0.00    +0.001 A 
ATOM     12  C   UNL A   1     -24.346   1.424  27.413  0.00  0.00    +0.015 A 
ATOM     13  C   UNL A   1     -23.851   0.712  28.508  0.00  0.00    +0.048 A 
ATOM     14  N   UNL A   1     -24.520   0.935  29.544  0.00  0.00    -0.287 N 
ENDROOT
BRANCH  14  15
ATOM     15  C   UNL A   1     -25.893   1.613  29.511  0.00  0.00    +0.096 C 
ATOM     16  C   UNL A   1     -25.982   2.931  29.736  0.00  0.00    +0.024 C 
ENDBRANCH  14  15
TORSDOF 1
ENDMDL
ENDMDL
