MODEL 1612
MODEL 1
REMARK VINA RESULT:    -5.329      0.000      0.000
REMARK INTER + INTRA:          -5.779
REMARK INTER:                  -5.640
REMARK INTRA:                  -0.139
REMARK UNBOUND:                -0.139
REMARK  Name = No_1612-gen_results/8p0m/2024-11-26-14-13-15/
REMARK  1 active torsions:
REMARK  status: ('A' for Active; 'I' for Inactive)
REMARK    1  A    between atoms: C_4  and  C_7
REMARK                            x       y       z     vdW  Elec       q    Type
REMARK                         _______ _______ _______ _____ _____    ______ ____
ROOT
ATOM      1  C   UNL A   1     -26.568  -3.924  29.778  0.00  0.00    -0.000 A 
ATOM      2  C   UNL A   1     -26.103  -4.848  29.579  0.00  0.00    -0.000 A 
ATOM      3  C   UNL A   1     -25.757  -2.717  29.557  0.00  0.00    -0.000 A 
ATOM      4  C   UNL A   1     -24.462  -2.812  28.968  0.00  0.00    -0.000 A 
ATOM      5  C   UNL A   1     -24.012  -4.081  28.706  0.00  0.00    -0.000 A 
ATOM      6  C   UNL A   1     -24.789  -5.157  28.953  0.00  0.00    -0.000 A 
ENDROOT
BRANCH   4   7
ATOM      7  C   UNL A   1     -23.663  -1.623  28.731  0.00  0.00    -0.005 C 
ATOM      8  C   UNL A   1     -22.669  -1.241  29.367  0.00  0.00    -0.026 C 
ATOM      9  C   UNL A   1     -21.782  -0.145  28.968  0.00  0.00    +0.031 C 
ENDBRANCH   4   7
TORSDOF 1
ENDMDL
ENDMDL
