MODEL 1613
MODEL 1
REMARK VINA RESULT:    -4.498      0.000      0.000
REMARK INTER + INTRA:          -4.498
REMARK INTER:                  -4.498
REMARK INTRA:                   0.000
REMARK UNBOUND:                 0.000
REMARK  Name = No_1613-gen_results/8p0m/2024-11-26-14-13-15/
REMARK  0 active torsions:
REMARK  status: ('A' for Active; 'I' for Inactive)
REMARK                            x       y       z     vdW  Elec       q    Type
REMARK                         _______ _______ _______ _____ _____    ______ ____
ROOT
ATOM      1  C   UNL A   1     -24.004  -3.426  28.979  0.00  0.00    +0.042 A 
ATOM      2  C   UNL A   1     -24.067  -2.447  29.362  0.00  0.00    +0.060 A 
ATOM      3  C   UNL A   1     -25.201  -4.309  29.250  0.00  0.00    +0.151 A 
ATOM      4  C   UNL A   1     -26.350  -3.751  29.848  0.00  0.00    +0.085 A 
ATOM      5  C   UNL A   1     -25.134  -1.624  29.976  0.00  0.00    +0.012 A 
ATOM      6  C   UNL A   1     -26.254  -2.401  30.235  0.00  0.00    +0.015 A 
ATOM      7 CL   UNL A   1     -22.627  -1.375  29.029  0.00  0.00    -0.082 Cl
ATOM      8 CL   UNL A   1     -27.700  -4.700  30.171  0.00  0.00    -0.080 Cl
ATOM      9  F   UNL A   1     -25.302  -5.588  28.882  0.00  0.00    -0.203 F 
ENDROOT
TORSDOF 0
ENDMDL
ENDMDL
