MODEL 1614
MODEL 1
REMARK VINA RESULT:    -7.663      0.000      0.000
REMARK INTER + INTRA:          -8.989
REMARK INTER:                  -8.558
REMARK INTRA:                  -0.431
REMARK UNBOUND:                -0.431
REMARK  Name = No_1614-gen_results/8p0m/2024-11-26-14-13-15/
REMARK  2 active torsions:
REMARK  status: ('A' for Active; 'I' for Inactive)
REMARK    1  A    between atoms: C_3  and  C_4
REMARK    2  A    between atoms: C_4  and  C_8
REMARK                            x       y       z     vdW  Elec       q    Type
REMARK                         _______ _______ _______ _____ _____    ______ ____
ROOT
ATOM      1  C   UNL A   1     -23.805  -0.245  28.792  0.00  0.00    +0.011 A 
ATOM      2  C   UNL A   1     -24.424   0.444  27.762  0.00  0.00    +0.016 A 
ATOM      3  C   UNL A   1     -23.543   1.300  26.931  0.00  0.00    +0.081 A 
ATOM      4  C   UNL A   1     -22.232   1.452  27.232  0.00  0.00    +0.021 A 
ATOM      5  C   UNL A   1     -22.498   0.003  29.136  0.00  0.00    +0.137 A 
ATOM      6  C   UNL A   1     -21.729   0.834  28.385  0.00  0.00    +0.031 A 
ATOM      7  C   UNL A   1     -25.741   0.168  27.330  0.00  0.00    +0.003 A 
ATOM      8  C   UNL A   1     -26.284   0.978  26.245  0.00  0.00    +0.021 A 
ATOM      9  C   UNL A   1     -25.511   1.988  25.780  0.00  0.00    +0.099 A 
ATOM     10  N   UNL A   1     -24.188   2.063  25.897  0.00  0.00    -0.244 NA
ATOM     11  F   UNL A   1     -22.000  -0.608  30.158  0.00  0.00    -0.204 F 
ENDROOT
BRANCH   1  12
ATOM     12  C   UNL A   1     -24.773  -0.915  29.642  0.00  0.00    +0.055 C 
BRANCH  12  15
ATOM     13  C   UNL A   1     -26.082  -3.191  29.867  0.00  0.00    +0.028 A 
ATOM     14  C   UNL A   1     -25.961  -4.228  29.721  0.00  0.00    +0.167 A 
ATOM     15  C   UNL A   1     -24.920  -2.332  29.422  0.00  0.00    -0.015 A 
ATOM     16  C   UNL A   1     -24.968  -5.001  28.964  0.00  0.00    +0.167 A 
ATOM     17  C   UNL A   1     -23.888  -4.281  28.500  0.00  0.00    +0.032 A 
ATOM     18  C   UNL A   1     -23.834  -2.922  28.681  0.00  0.00    -0.002 A 
ATOM     19  F   UNL A   1     -27.064  -5.048  30.145  0.00  0.00    -0.202 F 
ATOM     20  F   UNL A   1     -25.073  -6.322  28.786  0.00  0.00    -0.202 F 
ENDBRANCH  12  15
ENDBRANCH   1  12
TORSDOF 2
ENDMDL
ENDMDL
