REMARK  Name = No_1614-gen_results/8p0m/2024-11-26-14-13-15/
REMARK  2 active torsions:
REMARK  status: ('A' for Active; 'I' for Inactive)
REMARK    1  A    between atoms: C_3  and  C_4
REMARK    2  A    between atoms: C_4  and  C_8
REMARK                            x       y       z     vdW  Elec       q    Type
REMARK                         _______ _______ _______ _____ _____    ______ ____
ROOT
ATOM      1  C   UNL A   1     -25.220   0.687  27.394  0.00  0.00    +0.011 A 
ATOM      2  C   UNL A   1     -23.901   0.898  27.760  0.00  0.00    +0.016 A 
ATOM      3  C   UNL A   1     -23.304   2.184  27.324  0.00  0.00    +0.081 A 
ATOM      4  C   UNL A   1     -23.996   3.046  26.544  0.00  0.00    +0.021 A 
ATOM      5  C   UNL A   1     -25.865   1.529  26.521  0.00  0.00    +0.137 A 
ATOM      6  C   UNL A   1     -25.272   2.676  26.097  0.00  0.00    +0.031 A 
ATOM      7  C   UNL A   1     -23.225   0.099  28.709  0.00  0.00    +0.003 A 
ATOM      8  C   UNL A   1     -21.830   0.416  28.994  0.00  0.00    +0.021 A 
ATOM      9  C   UNL A   1     -21.260   1.409  28.271  0.00  0.00    +0.099 A 
ATOM     10  N   UNL A   1     -21.917   2.385  27.650  0.00  0.00    -0.244 NA
ATOM     11  F   UNL A   1     -27.066   1.235  26.150  0.00  0.00    -0.204 F 
ENDROOT
BRANCH   1  12
ATOM     12  C   UNL A   1     -25.654  -0.660  27.719  0.00  0.00    +0.055 C 
BRANCH  12  15
ATOM     13  C   UNL A   1     -28.016  -0.814  28.878  0.00  0.00    +0.028 A 
ATOM     14  C   UNL A   1     -28.469  -0.785  29.829  0.00  0.00    +0.167 A 
ATOM     15  C   UNL A   1     -26.504  -0.778  28.877  0.00  0.00    -0.015 A 
ATOM     16  C   UNL A   1     -27.918  -0.937  31.182  0.00  0.00    +0.167 A 
ATOM     17  C   UNL A   1     -26.542  -0.940  31.261  0.00  0.00    +0.032 A 
ATOM     18  C   UNL A   1     -25.783  -0.893  30.120  0.00  0.00    -0.002 A 
ATOM     19  F   UNL A   1     -29.907  -0.817  29.834  0.00  0.00    -0.202 F 
ATOM     20  F   UNL A   1     -28.695  -1.008  32.268  0.00  0.00    -0.202 F 
ENDBRANCH  12  15
ENDBRANCH   1  12
TORSDOF 2
