MODEL 1616
MODEL 1
REMARK VINA RESULT:    -8.396      0.000      0.000
REMARK INTER + INTRA:         -11.550
REMARK INTER:                  -9.869
REMARK INTRA:                  -1.682
REMARK UNBOUND:                -1.682
REMARK  Name = No_1616-gen_results/8p0m/2024-11-26-14-13-15/
REMARK  3 active torsions:
REMARK  status: ('A' for Active; 'I' for Inactive)
REMARK    1  A    between atoms: C_3  and  C_14
REMARK    2  A    between atoms: C_14  and  C_15
REMARK    3  A    between atoms: C_14  and  C_21
REMARK                            x       y       z     vdW  Elec       q    Type
REMARK                         _______ _______ _______ _____ _____    ______ ____
ROOT
ATOM      1 CL   UNL A   1     -22.088  -0.367  29.430  0.00  0.00    -0.083 Cl
ATOM      2  C   UNL A   1     -23.333   0.011  28.808  0.00  0.00    +0.054 A 
ATOM      3  C   UNL A   1     -24.413  -0.411  29.013  0.00  0.00    -0.004 A 
ATOM      4  C   UNL A   1     -25.629   0.045  28.343  0.00  0.00    +0.001 A 
ATOM      5  C   UNL A   1     -25.526   1.044  27.326  0.00  0.00    +0.049 A 
ATOM      6  C   UNL A   1     -26.636   1.549  26.612  0.00  0.00    +0.249 C 
ATOM      7  C   UNL A   1     -24.266   1.541  27.065  0.00  0.00    -0.015 A 
ATOM      8  C   UNL A   1     -23.203   1.103  27.765  0.00  0.00    +0.007 A 
ATOM      9  N   UNL A   1     -26.503   2.545  25.711  0.00  0.00    -0.274 N 
ATOM     10  O   UNL A   1     -27.747   0.934  26.567  0.00  0.00    -0.270 OA
ATOM     11  C   UNL A   1     -27.497   3.040  24.740  0.00  0.00    +0.115 C 
ATOM     12  C   UNL A   1     -25.356   3.482  25.803  0.00  0.00    +0.098 C 
ATOM     13  C   UNL A   1     -24.191   2.848  26.308  0.00  0.00    +0.048 C 
ENDROOT
BRANCH   3  14
ATOM     14  C   UNL A   1     -24.711  -1.542  29.979  0.00  0.00    +0.068 C 
BRANCH  14  15
ATOM     15  C   UNL A   1     -24.880  -2.748  29.616  0.00  0.00    -0.014 A 
ATOM     16  C   UNL A   1     -25.999  -3.484  29.959  0.00  0.00    -0.004 A 
ATOM     17  C   UNL A   1     -26.169  -4.855  29.603  0.00  0.00    -0.000 A 
ATOM     18  C   UNL A   1     -25.096  -5.460  28.868  0.00  0.00    -0.000 A 
ATOM     19  C   UNL A   1     -23.963  -4.748  28.511  0.00  0.00    -0.000 A 
ATOM     20  C   UNL A   1     -23.851  -3.455  28.871  0.00  0.00    -0.004 A 
ENDBRANCH  14  15
BRANCH  14  21
ATOM     21  C   UNL A   1     -24.773  -1.110  31.427  0.00  0.00    -0.014 A 
ATOM     22  C   UNL A   1     -23.806  -1.475  32.271  0.00  0.00    -0.004 A 
ATOM     23  C   UNL A   1     -23.894  -1.098  33.610  0.00  0.00    -0.000 A 
ATOM     24  C   UNL A   1     -25.909  -0.409  31.872  0.00  0.00    -0.004 A 
ATOM     25  C   UNL A   1     -26.013   0.029  33.203  0.00  0.00    -0.000 A 
ATOM     26  C   UNL A   1     -24.976  -0.303  34.106  0.00  0.00    -0.000 A 
ENDBRANCH  14  21
ENDBRANCH   3  14
TORSDOF 3
ENDMDL
ENDMDL
