REMARK  Name = No_1617-gen_results/8p0m/2024-11-26-14-13-15/
REMARK  5 active torsions:
REMARK  status: ('A' for Active; 'I' for Inactive)
REMARK    1  A    between atoms: C_3  and  C_8
REMARK    2  A    between atoms: C_6  and  O_7
REMARK    3  A    between atoms: O_7  and  C_14
REMARK    4  A    between atoms: C_14  and  C_15
REMARK    5  A    between atoms: C_21  and  C_22
REMARK                            x       y       z     vdW  Elec       q    Type
REMARK                         _______ _______ _______ _____ _____    ______ ____
ROOT
ATOM      1  C   UNL A   1     -24.539   0.421  28.742  0.00  0.00    +0.037 A 
ATOM      2  C   UNL A   1     -24.526   1.274  27.727  0.00  0.00    +0.172 A 
ATOM      3  C   UNL A   1     -23.317   1.986  27.403  0.00  0.00    +0.172 A 
ATOM      4  C   UNL A   1     -22.131   1.737  28.050  0.00  0.00    +0.040 A 
ATOM      5  C   UNL A   1     -23.298   0.137  29.377  0.00  0.00    +0.003 A 
ATOM      6  C   UNL A   1     -22.101   0.819  29.041  0.00  0.00    +0.003 A 
ATOM      7  O   UNL A   1     -23.549   2.936  26.436  0.00  0.00    -0.471 OA
ATOM      8  C   UNL A   1     -24.726   3.659  26.472  0.00  0.00    +0.195 C 
ATOM      9  O   UNL A   1     -25.526   2.137  27.870  0.00  0.00    -0.472 OA
ATOM     10  C   UNL A   1     -26.434   2.630  27.133  0.00  0.00    +0.210 C 
ATOM     11  C   UNL A   1     -25.785   2.865  25.892  0.00  0.00    +0.096 C 
ENDROOT
BRANCH   8  12
ATOM     12  C   UNL A   1     -25.053   4.157  27.728  0.00  0.00    +0.056 A 
ATOM     13  C   UNL A   1     -25.980   4.909  27.839  0.00  0.00    +0.002 A 
ATOM     14  C   UNL A   1     -26.375   5.472  29.147  0.00  0.00    -0.000 A 
ATOM     15  C   UNL A   1     -25.892   4.812  30.293  0.00  0.00    +0.003 A 
ATOM     16  C   UNL A   1     -25.022   3.735  30.129  0.00  0.00    +0.042 A 
ATOM     17  C   UNL A   1     -24.618   3.374  28.873  0.00  0.00    +0.195 A 
ATOM     18  O   UNL A   1     -23.390   3.265  29.163  0.00  0.00    -0.287 OA
ENDBRANCH   8  12
BRANCH   1  21
ATOM     19  C   UNL A   1     -28.016  -0.814  28.878  0.00  0.00    +0.038 A 
ATOM     20  C   UNL A   1     -27.064  -0.119  28.608  0.00  0.00    +0.003 A 
ATOM     21  C   UNL A   1     -25.765  -0.390  29.036  0.00  0.00    +0.003 A 
ATOM     22  C   UNL A   1     -25.530  -1.530  29.901  0.00  0.00    +0.003 A 
ATOM     23  C   UNL A   1     -26.689  -2.289  30.181  0.00  0.00    +0.038 A 
ATOM     24  C   UNL A   1     -27.873  -1.951  29.737  0.00  0.00    +0.149 A 
BRANCH  24  25
ATOM     25  O   UNL A   1     -28.930  -2.730  30.115  0.00  0.00    -0.418 OA
BRANCH  25  26
ATOM     26  C   UNL A   1     -30.065  -2.218  30.572  0.00  0.00    +0.402 C 
ATOM     27  O   UNL A   1     -30.721  -1.523  29.885  0.00  0.00    -0.239 OA
BRANCH  26  28
ATOM     28  C   UNL A   1     -30.468  -2.914  31.715  0.00  0.00    +0.341 C 
ATOM     29  O   UNL A   1     -31.463  -2.686  32.142  0.00  0.00    -0.261 OA
ATOM     30  N   UNL A   1     -29.526  -3.509  32.520  0.00  0.00    -0.194 NA
ATOM     31  C   UNL A   1     -29.603  -4.444  33.062  0.00  0.00    +0.139 C 
ENDBRANCH  26  28
ENDBRANCH  25  26
ENDBRANCH  24  25
ENDBRANCH   1  21
TORSDOF 5
