MODEL 1617
MODEL 1
REMARK VINA RESULT:    -8.346      0.000      0.000
REMARK INTER + INTRA:          -6.095
REMARK INTER:                 -10.786
REMARK INTRA:                   4.691
REMARK UNBOUND:                 4.691
REMARK  Name = No_1617-gen_results/8p0m/2024-11-26-14-13-15/
REMARK  5 active torsions:
REMARK  status: ('A' for Active; 'I' for Inactive)
REMARK    1  A    between atoms: C_3  and  C_8
REMARK    2  A    between atoms: C_6  and  O_7
REMARK    3  A    between atoms: O_7  and  C_14
REMARK    4  A    between atoms: C_14  and  C_15
REMARK    5  A    between atoms: C_21  and  C_22
REMARK                            x       y       z     vdW  Elec       q    Type
REMARK                         _______ _______ _______ _____ _____    ______ ____
ROOT
ATOM      1  C   UNL A   1     -24.430   0.432  27.730  0.00  0.00    +0.037 A 
ATOM      2  C   UNL A   1     -24.884   0.150  28.944  0.00  0.00    +0.172 A 
ATOM      3  C   UNL A   1     -23.956  -0.070  30.024  0.00  0.00    +0.172 A 
ATOM      4  C   UNL A   1     -22.603   0.104  29.866  0.00  0.00    +0.040 A 
ATOM      5  C   UNL A   1     -23.032   0.653  27.587  0.00  0.00    +0.003 A 
ATOM      6  C   UNL A   1     -22.121   0.462  28.656  0.00  0.00    +0.003 A 
ATOM      7  O   UNL A   1     -24.609  -0.508  31.152  0.00  0.00    -0.471 OA
ATOM      8  C   UNL A   1     -25.658  -1.399  31.019  0.00  0.00    +0.195 C 
ATOM      9  O   UNL A   1     -25.728  -0.872  28.867  0.00  0.00    -0.472 OA
ATOM     10  C   UNL A   1     -26.877  -1.159  29.325  0.00  0.00    +0.210 C 
ATOM     11  C   UNL A   1     -26.852  -0.670  30.658  0.00  0.00    +0.096 C 
ENDROOT
BRANCH   8  12
ATOM     12  C   UNL A   1     -25.398  -2.464  30.165  0.00  0.00    +0.056 A 
ATOM     13  C   UNL A   1     -24.289  -2.619  29.738  0.00  0.00    +0.002 A 
ATOM     14  C   UNL A   1     -23.952  -3.732  28.826  0.00  0.00    -0.000 A 
ATOM     15  C   UNL A   1     -24.856  -4.810  28.782  0.00  0.00    +0.003 A 
ATOM     16  C   UNL A   1     -26.031  -4.731  29.527  0.00  0.00    +0.042 A 
ATOM     17  C   UNL A   1     -26.306  -3.597  30.241  0.00  0.00    +0.195 A 
ATOM     18  O   UNL A   1     -27.510  -3.498  29.860  0.00  0.00    -0.287 OA
ENDBRANCH   8  12
BRANCH   1  21
ATOM     19  C   UNL A   1     -27.029   2.018  25.641  0.00  0.00    +0.038 A 
ATOM     20  C   UNL A   1     -26.282   1.814  26.570  0.00  0.00    +0.003 A 
ATOM     21  C   UNL A   1     -25.384   0.748  26.618  0.00  0.00    +0.003 A 
ATOM     22  C   UNL A   1     -25.370  -0.213  25.532  0.00  0.00    +0.003 A 
ATOM     23  C   UNL A   1     -26.275   0.085  24.488  0.00  0.00    +0.038 A 
ATOM     24  C   UNL A   1     -27.087   1.110  24.535  0.00  0.00    +0.149 A 
BRANCH  24  25
ATOM     25  O   UNL A   1     -27.956   1.269  23.493  0.00  0.00    -0.418 OA
BRANCH  25  26
ATOM     26  C   UNL A   1     -29.216   1.646  23.666  0.00  0.00    +0.402 C 
ATOM     27  O   UNL A   1     -29.501   2.788  23.652  0.00  0.00    -0.239 OA
BRANCH  26  28
ATOM     28  C   UNL A   1     -30.064   0.552  23.473  0.00  0.00    +0.341 C 
ATOM     29  O   UNL A   1     -31.058   0.734  23.021  0.00  0.00    -0.261 OA
ATOM     30  N   UNL A   1     -29.873  -0.598  24.202  0.00  0.00    -0.194 NA
ATOM     31  C   UNL A   1     -30.011  -1.624  23.882  0.00  0.00    +0.139 C 
ENDBRANCH  26  28
ENDBRANCH  25  26
ENDBRANCH  24  25
ENDBRANCH   1  21
TORSDOF 5
ENDMDL
ENDMDL
