REMARK  Name = No_1618-gen_results/8p0m/2024-11-26-14-13-15/
REMARK  1 active torsions:
REMARK  status: ('A' for Active; 'I' for Inactive)
REMARK    1  A    between atoms: C_13  and  O_21
REMARK                            x       y       z     vdW  Elec       q    Type
REMARK                         _______ _______ _______ _____ _____    ______ ____
ROOT
ATOM      1  C   UNL A   1     -28.016  -0.814  28.878  0.00  0.00    +0.001 A 
ATOM      2  C   UNL A   1     -27.064  -0.119  28.608  0.00  0.00    +0.013 A 
ATOM      3  C   UNL A   1     -25.792  -0.430  29.076  0.00  0.00    +0.046 A 
ATOM      4  C   UNL A   1     -25.576  -1.565  29.936  0.00  0.00    -0.009 A 
ATOM      5  C   UNL A   1     -26.735  -2.300  30.217  0.00  0.00    -0.003 A 
ATOM      6  C   UNL A   1     -27.918  -1.954  29.763  0.00  0.00    -0.000 A 
ATOM      7  C   UNL A   1     -27.106   1.102  27.759  0.00  0.00    +0.001 C 
ATOM      8  C   UNL A   1     -26.716   2.235  27.994  0.00  0.00    -0.003 C 
ATOM      9  C   UNL A   1     -26.069   2.477  29.357  0.00  0.00    +0.001 C 
ATOM     10  C   UNL A   1     -26.262   3.449  30.096  0.00  0.00    +0.001 C 
ATOM     11  C   UNL A   1     -25.634   3.582  31.419  0.00  0.00    +0.043 C 
ATOM     12  C   UNL A   1     -24.672   2.659  31.791  0.00  0.00    +0.231 C 
ATOM     13  C   UNL A   1     -24.374   1.633  30.948  0.00  0.00    +0.303 C 
ATOM     14  C   UNL A   1     -25.002   1.528  29.738  0.00  0.00    +0.162 C 
ATOM     15  N   UNL A   1     -25.331   0.164  29.706  0.00  0.00    -0.280 N 
ATOM     16  C   UNL A   1     -24.156  -0.262  30.570  0.00  0.00    +0.187 C 
ATOM     17  F   UNL A   1     -23.001   1.442  30.745  0.00  0.00    -0.199 F 
ATOM     18  C   UNL A   1     -24.036  -1.074  31.351  0.00  0.00    +0.054 C 
ATOM     19  C   UNL A   1     -22.967  -0.317  29.697  0.00  0.00    +0.054 C 
ATOM     20  C   UNL A   1     -24.466  -1.814  30.955  0.00  0.00    +0.032 C 
ATOM     21  O   UNL A   1     -23.926   3.146  32.736  0.00  0.00    -0.286 OA
ATOM     22  O   UNL A   1     -23.170  -0.111  30.863  0.00  0.00    -0.205 OA
ENDROOT
BRANCH  13  23
ATOM     23  O   UNL A   1     -25.305   0.910  31.978  0.00  0.00    -0.321 OA
ATOM     24  C   UNL A   1     -25.824   0.747  32.973  0.00  0.00    +0.177 C 
ENDBRANCH  13  23
TORSDOF 1
