MODEL 1618
MODEL 1
REMARK VINA RESULT:    -7.869      0.000      0.000
REMARK INTER + INTRA:          -7.162
REMARK INTER:                  -8.329
REMARK INTRA:                   1.167
REMARK UNBOUND:                 1.167
REMARK  Name = No_1618-gen_results/8p0m/2024-11-26-14-13-15/
REMARK  1 active torsions:
REMARK  status: ('A' for Active; 'I' for Inactive)
REMARK    1  A    between atoms: C_13  and  O_21
REMARK                            x       y       z     vdW  Elec       q    Type
REMARK                         _______ _______ _______ _____ _____    ______ ____
ROOT
ATOM      1  C   UNL A   1     -33.285 -11.356   9.604  0.00  0.00    +0.001 A 
ATOM      2  C   UNL A   1     -33.183 -12.410  10.188  0.00  0.00    +0.013 A 
ATOM      3  C   UNL A   1     -32.219 -12.594  11.174  0.00  0.00    +0.046 A 
ATOM      4  C   UNL A   1     -31.283 -11.549  11.499  0.00  0.00    -0.009 A 
ATOM      5  C   UNL A   1     -31.458 -10.372  10.760  0.00  0.00    -0.003 A 
ATOM      6  C   UNL A   1     -32.374 -10.255   9.826  0.00  0.00    -0.000 A 
ATOM      7  C   UNL A   1     -34.043 -13.603   9.963  0.00  0.00    +0.001 C 
ATOM      8  C   UNL A   1     -33.734 -14.755   9.704  0.00  0.00    -0.003 C 
ATOM      9  C   UNL A   1     -32.242 -15.066   9.593  0.00  0.00    +0.001 C 
ATOM     10  C   UNL A   1     -31.703 -15.768   8.731  0.00  0.00    +0.001 C 
ATOM     11  C   UNL A   1     -30.249 -15.977   8.667  0.00  0.00    +0.043 C 
ATOM     12  C   UNL A   1     -29.465 -15.494   9.700  0.00  0.00    +0.231 C 
ATOM     13  C   UNL A   1     -30.053 -14.799  10.712  0.00  0.00    +0.303 C 
ATOM     14  C   UNL A   1     -31.405 -14.601  10.720  0.00  0.00    +0.162 C 
ATOM     15  N   UNL A   1     -31.491 -13.239  11.048  0.00  0.00    -0.280 N 
ATOM     16  C   UNL A   1     -30.200 -13.229  11.849  0.00  0.00    +0.187 C 
ATOM     17  F   UNL A   1     -29.666 -15.220  11.992  0.00  0.00    -0.199 F 
ATOM     18  C   UNL A   1     -29.393 -12.446  11.989  0.00  0.00    +0.054 C 
ATOM     19  C   UNL A   1     -30.507 -13.782  13.183  0.00  0.00    +0.054 C 
ATOM     20  C   UNL A   1     -29.887 -11.652  12.111  0.00  0.00    +0.032 C 
ATOM     21  O   UNL A   1     -28.327 -16.119   9.729  0.00  0.00    -0.286 OA
ATOM     22  O   UNL A   1     -29.539 -13.734  12.473  0.00  0.00    -0.205 OA
ENDROOT
BRANCH  13  23
ATOM     23  O   UNL A   1     -29.453 -13.631   9.860  0.00  0.00    -0.321 OA
ATOM     24  C   UNL A   1     -29.026 -13.133   8.935  0.00  0.00    +0.177 C 
ENDBRANCH  13  23
TORSDOF 1
ENDMDL
ENDMDL
