REMARK  Name = No_1619-gen_results/8p0m/2024-11-26-14-13-15/
REMARK  1 active torsions:
REMARK  status: ('A' for Active; 'I' for Inactive)
REMARK    1  A    between atoms: C_3  and  C_7
REMARK                            x       y       z     vdW  Elec       q    Type
REMARK                         _______ _______ _______ _____ _____    ______ ____
ROOT
ATOM      1  C   UNL A   1     -28.016  -0.814  28.878  0.00  0.00    +0.000 A 
ATOM      2  C   UNL A   1     -28.469  -0.785  29.829  0.00  0.00    +0.000 A 
ATOM      3  C   UNL A   1     -27.136   0.236  28.535  0.00  0.00    +0.000 A 
ATOM      4  C   UNL A   1     -26.875   1.282  29.398  0.00  0.00    +0.000 A 
ATOM      5  C   UNL A   1     -27.507   1.238  30.630  0.00  0.00    +0.000 A 
ATOM      6  C   UNL A   1     -28.327   0.164  30.924  0.00  0.00    +0.000 A 
ENDROOT
BRANCH   3   7
ATOM      7  C   UNL A   1     -26.401   0.298  27.222  0.00  0.00    +0.000 A 
ATOM      8  C   UNL A   1     -26.693   0.862  26.303  0.00  0.00    +0.000 A 
ATOM      9  C   UNL A   1     -26.009   0.736  25.022  0.00  0.00    +0.000 A 
ATOM     10  C   UNL A   1     -24.974  -0.039  27.292  0.00  0.00    +0.000 A 
ATOM     11  C   UNL A   1     -24.119  -0.015  26.271  0.00  0.00    +0.000 A 
ATOM     12  C   UNL A   1     -24.648   0.406  25.059  0.00  0.00    +0.000 A 
ENDBRANCH   3   7
TORSDOF 1
