MODEL 1619
MODEL 1
REMARK VINA RESULT:    -6.485      0.000      0.000
REMARK INTER + INTRA:          -7.255
REMARK INTER:                  -6.864
REMARK INTRA:                  -0.391
REMARK UNBOUND:                -0.391
REMARK  Name = No_1619-gen_results/8p0m/2024-11-26-14-13-15/
REMARK  1 active torsions:
REMARK  status: ('A' for Active; 'I' for Inactive)
REMARK    1  A    between atoms: C_3  and  C_7
REMARK                            x       y       z     vdW  Elec       q    Type
REMARK                         _______ _______ _______ _____ _____    ______ ____
ROOT
ATOM      1  C   UNL A   1     -25.895  -2.616  29.633  0.00  0.00    +0.000 A 
ATOM      2  C   UNL A   1     -26.343  -3.543  29.859  0.00  0.00    +0.000 A 
ATOM      3  C   UNL A   1     -24.658  -2.631  28.952  0.00  0.00    +0.000 A 
ATOM      4  C   UNL A   1     -24.033  -3.810  28.599  0.00  0.00    +0.000 A 
ATOM      5  C   UNL A   1     -24.694  -4.982  28.929  0.00  0.00    +0.000 A 
ATOM      6  C   UNL A   1     -25.922  -4.904  29.560  0.00  0.00    +0.000 A 
ENDROOT
BRANCH   3   7
ATOM      7  C   UNL A   1     -23.929  -1.379  28.542  0.00  0.00    +0.000 A 
ATOM      8  C   UNL A   1     -24.361  -0.458  28.080  0.00  0.00    +0.000 A 
ATOM      9  C   UNL A   1     -23.559   0.644  27.564  0.00  0.00    +0.000 A 
ATOM     10  C   UNL A   1     -22.635  -1.168  29.203  0.00  0.00    +0.000 A 
ATOM     11  C   UNL A   1     -21.836  -0.117  29.029  0.00  0.00    +0.000 A 
ATOM     12  C   UNL A   1     -22.315   0.862  28.171  0.00  0.00    +0.000 A 
ENDBRANCH   3   7
TORSDOF 1
ENDMDL
ENDMDL
