MODEL 161
MODEL 1
REMARK VINA RESULT:    -7.312      0.000      0.000
REMARK INTER + INTRA:         -12.397
REMARK INTER:                 -10.305
REMARK INTRA:                  -2.092
REMARK UNBOUND:                -2.092
REMARK  Name = No_161-gen_results/8p0m/2024-11-26-14-13-15/
REMARK  7 active torsions:
REMARK  status: ('A' for Active; 'I' for Inactive)
REMARK    1  A    between atoms: C_2  and  C_28
REMARK    2  A    between atoms: C_3  and  C_7
REMARK    3  A    between atoms: C_6  and  C_21
REMARK    4  A    between atoms: C_8  and  C_13
REMARK    5  A    between atoms: C_15  and  O_19
REMARK    6  A    between atoms: O_19  and  C_20
REMARK    7  A    between atoms: C_20  and  C_24
REMARK                            x       y       z     vdW  Elec       q    Type
REMARK                         _______ _______ _______ _____ _____    ______ ____
ROOT
ATOM      1  C   UNL A   1     -23.751  -0.009  28.018  0.00  0.00    +0.000 A 
ATOM      2  C   UNL A   1     -24.121   0.664  27.162  0.00  0.00    +0.000 A 
ATOM      3  C   UNL A   1     -23.229   1.668  26.514  0.00  0.00    +0.000 A 
ATOM      4  C   UNL A   1     -22.407   0.185  28.517  0.00  0.00    +0.000 A 
ATOM      5  C   UNL A   1     -21.551   1.173  28.113  0.00  0.00    +0.000 A 
ATOM      6  C   UNL A   1     -21.974   1.876  27.044  0.00  0.00    +0.000 A 
ENDROOT
BRANCH   1   9
ATOM      7  C   UNL A   1     -25.596  -0.706  29.614  0.00  0.00    +0.007 A 
ATOM      8  C   UNL A   1     -26.183  -1.478  30.026  0.00  0.00    +0.080 A 
ATOM      9  C   UNL A   1     -24.553  -1.115  28.716  0.00  0.00    +0.000 A 
ATOM     10  C   UNL A   1     -24.215  -2.393  28.525  0.00  0.00    +0.007 A 
ATOM     11  C   UNL A   1     -25.989  -2.920  29.973  0.00  0.00    +0.013 A 
ATOM     12  C   UNL A   1     -25.014  -3.313  29.165  0.00  0.00    +0.080 A 
BRANCH  12  13
ATOM     13  C   UNL A   1     -24.658  -4.803  29.024  0.00  0.00    +0.388 C 
ATOM     14  O   UNL A   1     -25.319  -5.679  29.615  0.00  0.00    -0.241 OA
ATOM     15  O   UNL A   1     -23.759  -5.143  28.087  0.00  0.00    -0.241 OA
ENDBRANCH  12  13
BRANCH   8  16
ATOM     16  C   UNL A   1     -27.384  -1.180  31.073  0.00  0.00    +0.388 C 
ATOM     17  O   UNL A   1     -27.381  -0.124  31.664  0.00  0.00    -0.241 OA
ATOM     18  O   UNL A   1     -28.146  -2.165  31.430  0.00  0.00    -0.241 OA
ENDBRANCH   8  16
ENDBRANCH   1   9
BRANCH   2  19
ATOM     19  C   UNL A   1     -25.402   0.574  26.426  0.00  0.00    +0.003 A 
ATOM     20  C   UNL A   1     -26.355   1.220  26.660  0.00  0.00    +0.038 A 
ATOM     21  C   UNL A   1     -27.619   1.218  25.981  0.00  0.00    +0.149 A 
ATOM     22  C   UNL A   1     -25.451  -0.239  25.254  0.00  0.00    +0.000 A 
ATOM     23  C   UNL A   1     -26.619  -0.335  24.464  0.00  0.00    +0.003 A 
ATOM     24  C   UNL A   1     -27.668   0.431  24.834  0.00  0.00    +0.038 A 
BRANCH  21  25
ATOM     25  O   UNL A   1     -28.674   2.010  26.292  0.00  0.00    -0.416 OA
BRANCH  25  26
ATOM     26  C   UNL A   1     -28.897   3.107  25.627  0.00  0.00    +0.427 C 
ATOM     27  O   UNL A   1     -28.085   4.002  25.628  0.00  0.00    -0.237 OA
BRANCH  26  28
ATOM     28  C   UNL A   1     -30.156   3.202  24.984  0.00  0.00    +0.463 C 
ATOM     29  O   UNL A   1     -30.973   2.185  25.098  0.00  0.00    -0.233 OA
ATOM     30  O   UNL A   1     -30.539   4.269  24.491  0.00  0.00    -0.233 OA
ENDBRANCH  26  28
ENDBRANCH  25  26
ENDBRANCH  21  25
ENDBRANCH   2  19
TORSDOF 7
ENDMDL
ENDMDL
