REMARK  Name = No_1620-gen_results/8p0m/2024-11-26-14-13-15/
REMARK  1 active torsions:
REMARK  status: ('A' for Active; 'I' for Inactive)
REMARK    1  A    between atoms: C_3  and  C_7
REMARK                            x       y       z     vdW  Elec       q    Type
REMARK                         _______ _______ _______ _____ _____    ______ ____
ROOT
ATOM      1  C   UNL A   1     -28.016  -0.814  28.878  0.00  0.00    +0.030 A 
ATOM      2  C   UNL A   1     -27.064  -0.119  28.608  0.00  0.00    +0.002 A 
ATOM      3  C   UNL A   1     -25.765  -0.390  29.036  0.00  0.00    +0.000 A 
ATOM      4  C   UNL A   1     -25.530  -1.530  29.901  0.00  0.00    +0.002 A 
ATOM      5  C   UNL A   1     -26.658  -2.292  30.203  0.00  0.00    +0.030 A 
ATOM      6  C   UNL A   1     -27.855  -1.956  29.763  0.00  0.00    +0.140 A 
ATOM      7  F   UNL A   1     -28.904  -2.717  30.093  0.00  0.00    -0.204 F 
ENDROOT
BRANCH   3   8
ATOM      8  C   UNL A   1     -24.544   0.413  28.738  0.00  0.00    +0.000 A 
ATOM      9  C   UNL A   1     -24.473   1.206  27.711  0.00  0.00    +0.000 A 
ATOM     10  C   UNL A   1     -23.278   1.842  27.366  0.00  0.00    +0.000 A 
ATOM     11  C   UNL A   1     -22.093   1.664  28.034  0.00  0.00    +0.000 A 
ATOM     12  C   UNL A   1     -23.303   0.139  29.470  0.00  0.00    +0.000 A 
ATOM     13  C   UNL A   1     -22.094   0.798  29.103  0.00  0.00    +0.000 A 
ENDBRANCH   3   8
TORSDOF 1
