MODEL 1620
MODEL 1
REMARK VINA RESULT:    -6.898      0.000      0.000
REMARK INTER + INTRA:          -7.633
REMARK INTER:                  -7.302
REMARK INTRA:                  -0.332
REMARK UNBOUND:                -0.332
REMARK  Name = No_1620-gen_results/8p0m/2024-11-26-14-13-15/
REMARK  1 active torsions:
REMARK  status: ('A' for Active; 'I' for Inactive)
REMARK    1  A    between atoms: C_3  and  C_7
REMARK                            x       y       z     vdW  Elec       q    Type
REMARK                         _______ _______ _______ _____ _____    ______ ____
ROOT
ATOM      1  C   UNL A   1     -21.835  -0.018  28.876  0.00  0.00    +0.030 A 
ATOM      2  C   UNL A   1     -22.377  -1.051  29.196  0.00  0.00    +0.002 A 
ATOM      3  C   UNL A   1     -23.650  -1.420  28.762  0.00  0.00    +0.000 A 
ATOM      4  C   UNL A   1     -24.405  -0.505  27.929  0.00  0.00    +0.002 A 
ATOM      5  C   UNL A   1     -23.751   0.682  27.601  0.00  0.00    +0.030 A 
ATOM      6  C   UNL A   1     -22.547   0.956  28.066  0.00  0.00    +0.140 A 
ATOM      7  F   UNL A   1     -21.971   2.115  27.728  0.00  0.00    -0.204 F 
ENDROOT
BRANCH   3   8
ATOM      8  C   UNL A   1     -24.377  -2.676  29.106  0.00  0.00    +0.000 A 
ATOM      9  C   UNL A   1     -23.940  -3.847  28.750  0.00  0.00    +0.000 A 
ATOM     10  C   UNL A   1     -24.701  -5.000  28.956  0.00  0.00    +0.000 A 
ATOM     11  C   UNL A   1     -25.961  -5.001  29.500  0.00  0.00    +0.000 A 
ATOM     12  C   UNL A   1     -25.737  -2.597  29.650  0.00  0.00    +0.000 A 
ATOM     13  C   UNL A   1     -26.498  -3.785  29.853  0.00  0.00    +0.000 A 
ENDBRANCH   3   8
TORSDOF 1
ENDMDL
ENDMDL
