REMARK  Name = No_1621-gen_results/8p0m/2024-11-26-14-13-15/
REMARK  1 active torsions:
REMARK  status: ('A' for Active; 'I' for Inactive)
REMARK    1  A    between atoms: C_3  and  C_8
REMARK                            x       y       z     vdW  Elec       q    Type
REMARK                         _______ _______ _______ _____ _____    ______ ____
ROOT
ATOM      1  C   UNL A   1     -28.016  -0.814  28.878  0.00  0.00    +0.001 A 
ATOM      2  C   UNL A   1     -27.064  -0.119  28.608  0.00  0.00    +0.000 A 
ATOM      3  C   UNL A   1     -26.972   0.714  27.506  0.00  0.00    +0.001 A 
ATOM      4  C   UNL A   1     -28.105   0.774  26.642  0.00  0.00    +0.011 A 
ATOM      5  C   UNL A   1     -29.204   0.118  27.048  0.00  0.00    +0.058 A 
ATOM      6  C   UNL A   1     -29.213  -0.609  28.128  0.00  0.00    +0.011 A 
ATOM      7 CL   UNL A   1     -30.564   0.247  26.022  0.00  0.00    -0.082 Cl
ENDROOT
BRANCH   3   8
ATOM      8  C   UNL A   1     -25.700   1.446  27.123  0.00  0.00    +0.000 A 
ATOM      9  C   UNL A   1     -25.381   1.986  26.142  0.00  0.00    +0.000 A 
ATOM     10  C   UNL A   1     -24.067   2.655  25.946  0.00  0.00    +0.000 A 
ATOM     11  C   UNL A   1     -23.053   2.405  26.911  0.00  0.00    +0.000 A 
ATOM     12  C   UNL A   1     -23.354   1.625  28.017  0.00  0.00    +0.000 A 
ATOM     13  C   UNL A   1     -24.633   1.106  28.178  0.00  0.00    +0.000 A 
ENDBRANCH   3   8
TORSDOF 1
