MODEL 1621
MODEL 1
REMARK VINA RESULT:    -6.425      0.000      0.000
REMARK INTER + INTRA:          -7.115
REMARK INTER:                  -6.801
REMARK INTRA:                  -0.314
REMARK UNBOUND:                -0.314
REMARK  Name = No_1621-gen_results/8p0m/2024-11-26-14-13-15/
REMARK  1 active torsions:
REMARK  status: ('A' for Active; 'I' for Inactive)
REMARK    1  A    between atoms: C_3  and  C_8
REMARK                            x       y       z     vdW  Elec       q    Type
REMARK                         _______ _______ _______ _____ _____    ______ ____
ROOT
ATOM      1  C   UNL A   1     -26.106  -2.184  30.315  0.00  0.00    +0.001 A 
ATOM      2  C   UNL A   1     -25.266  -1.436  29.871  0.00  0.00    +0.000 A 
ATOM      3  C   UNL A   1     -24.174  -1.823  29.114  0.00  0.00    +0.001 A 
ATOM      4  C   UNL A   1     -24.051  -3.212  28.815  0.00  0.00    +0.011 A 
ATOM      5  C   UNL A   1     -25.076  -3.997  29.184  0.00  0.00    +0.058 A 
ATOM      6  C   UNL A   1     -26.090  -3.536  29.857  0.00  0.00    +0.011 A 
ATOM      7 CL   UNL A   1     -24.929  -5.648  28.769  0.00  0.00    -0.082 Cl
ENDROOT
BRANCH   3   8
ATOM      8  C   UNL A   1     -23.064  -0.870  28.711  0.00  0.00    +0.000 A 
ATOM      9  C   UNL A   1     -21.959  -0.773  29.064  0.00  0.00    +0.000 A 
ATOM     10  C   UNL A   1     -21.004   0.245  28.550  0.00  0.00    +0.000 A 
ATOM     11  C   UNL A   1     -21.536   1.312  27.776  0.00  0.00    +0.000 A 
ATOM     12  C   UNL A   1     -22.889   1.314  27.473  0.00  0.00    +0.000 A 
ATOM     13  C   UNL A   1     -23.705   0.279  27.914  0.00  0.00    +0.000 A 
ENDBRANCH   3   8
TORSDOF 1
ENDMDL
ENDMDL
