MODEL 1622
MODEL 1
REMARK VINA RESULT:    -6.711      0.000      0.000
REMARK INTER + INTRA:          -7.731
REMARK INTER:                  -7.496
REMARK INTRA:                  -0.235
REMARK UNBOUND:                -0.235
REMARK  Name = No_1622-gen_results/8p0m/2024-11-26-14-13-15/
REMARK  2 active torsions:
REMARK  status: ('A' for Active; 'I' for Inactive)
REMARK    1  A    between atoms: C_2  and  C_11
REMARK    2  A    between atoms: C_6  and  C_8
REMARK                            x       y       z     vdW  Elec       q    Type
REMARK                         _______ _______ _______ _____ _____    ______ ____
ROOT
ATOM      1  C   UNL A   1     -24.246  -0.463  27.756  0.00  0.00    +0.007 A 
ATOM      2  C   UNL A   1     -24.162  -0.980  28.846  0.00  0.00    +0.006 A 
ATOM      3  C   UNL A   1     -23.655  -0.332  29.971  0.00  0.00    +0.035 A 
ATOM      4  C   UNL A   1     -23.198   0.625  29.976  0.00  0.00    +0.007 A 
ATOM      5  C   UNL A   1     -23.157   1.447  28.749  0.00  0.00    +0.007 A 
ATOM      6  C   UNL A   1     -23.632   0.877  27.662  0.00  0.00    +0.080 A 
ATOM      7 BR   UNL A   1     -23.684  -1.395  31.652  0.00  0.00    -0.049 Br
ENDROOT
BRANCH   2   8
ATOM      8  C   UNL A   1     -24.821  -2.390  29.261  0.00  0.00    +0.001 A 
ATOM      9  C   UNL A   1     -24.026  -3.362  28.843  0.00  0.00    +0.000 A 
ATOM     10  C   UNL A   1     -24.191  -4.380  28.826  0.00  0.00    +0.000 A 
ATOM     11  C   UNL A   1     -25.546  -4.927  29.365  0.00  0.00    +0.000 A 
ATOM     12  C   UNL A   1     -26.417  -3.972  29.820  0.00  0.00    +0.000 A 
ATOM     13  C   UNL A   1     -26.025  -2.672  29.726  0.00  0.00    +0.000 A 
ENDBRANCH   2   8
BRANCH   6  14
ATOM     14  C   UNL A   1     -23.595   1.669  26.398  0.00  0.00    +0.388 C 
ATOM     15  O   UNL A   1     -22.572   2.240  25.973  0.00  0.00    -0.241 OA
ATOM     16  O   UNL A   1     -24.528   1.514  25.545  0.00  0.00    -0.241 OA
ENDBRANCH   6  14
TORSDOF 2
ENDMDL
ENDMDL
