REMARK  Name = No_1622-gen_results/8p0m/2024-11-26-14-13-15/
REMARK  2 active torsions:
REMARK  status: ('A' for Active; 'I' for Inactive)
REMARK    1  A    between atoms: C_2  and  C_11
REMARK    2  A    between atoms: C_6  and  C_8
REMARK                            x       y       z     vdW  Elec       q    Type
REMARK                         _______ _______ _______ _____ _____    ______ ____
ROOT
ATOM      1  C   UNL A   1     -28.016  -0.814  28.878  0.00  0.00    +0.007 A 
ATOM      2  C   UNL A   1     -27.064  -0.119  28.608  0.00  0.00    +0.006 A 
ATOM      3  C   UNL A   1     -25.765  -0.390  29.036  0.00  0.00    +0.035 A 
ATOM      4  C   UNL A   1     -25.489  -1.154  29.717  0.00  0.00    +0.007 A 
ATOM      5  C   UNL A   1     -26.490  -2.122  30.211  0.00  0.00    +0.007 A 
ATOM      6  C   UNL A   1     -27.730  -1.909  29.827  0.00  0.00    +0.080 A 
ATOM      7 BR   UNL A   1     -24.376   0.885  28.402  0.00  0.00    -0.049 Br
ENDROOT
BRANCH   2   8
ATOM      8  C   UNL A   1     -27.061   1.083  27.536  0.00  0.00    +0.001 A 
ATOM      9  C   UNL A   1     -28.155   0.987  26.798  0.00  0.00    +0.000 A 
ATOM     10  C   UNL A   1     -28.416   1.507  25.946  0.00  0.00    +0.000 A 
ATOM     11  C   UNL A   1     -27.435   2.585  25.397  0.00  0.00    +0.000 A 
ATOM     12  C   UNL A   1     -26.281   2.740  26.119  0.00  0.00    +0.000 A 
ATOM     13  C   UNL A   1     -26.105   1.931  27.199  0.00  0.00    +0.000 A 
ENDBRANCH   2   8
BRANCH   6  14
ATOM     14  C   UNL A   1     -28.774  -2.856  30.316  0.00  0.00    +0.388 C 
ATOM     15  O   UNL A   1     -28.603  -4.088  30.394  0.00  0.00    -0.241 OA
ATOM     16  O   UNL A   1     -29.761  -2.399  30.978  0.00  0.00    -0.241 OA
ENDBRANCH   6  14
TORSDOF 2
