REMARK  Name = No_1623-gen_results/8p0m/2024-11-26-14-13-15/
REMARK  2 active torsions:
REMARK  status: ('A' for Active; 'I' for Inactive)
REMARK    1  A    between atoms: C_4  and  C_11
REMARK    2  A    between atoms: C_11  and  C_14
REMARK                            x       y       z     vdW  Elec       q    Type
REMARK                         _______ _______ _______ _____ _____    ______ ____
ROOT
ATOM      1  C   UNL A   1     -28.016  -0.814  28.878  0.00  0.00    -0.000 A 
ATOM      2  C   UNL A   1     -27.064  -0.119  28.608  0.00  0.00    -0.000 A 
ATOM      3  C   UNL A   1     -25.792  -0.430  29.076  0.00  0.00    -0.004 A 
ATOM      4  C   UNL A   1     -24.546   0.349  28.823  0.00  0.00    -0.019 A 
ATOM      5  C   UNL A   1     -23.241   0.022  29.332  0.00  0.00    -0.004 A 
ATOM      6  C   UNL A   1     -27.882  -1.899  29.863  0.00  0.00    -0.000 A 
ATOM      7  C   UNL A   1     -26.653  -2.314  30.314  0.00  0.00    -0.000 A 
ATOM      8  C   UNL A   1     -25.515  -1.561  29.979  0.00  0.00    -0.000 A 
ATOM      9  C   UNL A   1     -23.216  -1.228  30.050  0.00  0.00    -0.000 A 
ATOM     10  C   UNL A   1     -24.244  -1.937  30.399  0.00  0.00    -0.000 A 
ENDROOT
BRANCH   4  11
ATOM     11  C   UNL A   1     -24.582   1.562  27.959  0.00  0.00    +0.044 C 
ATOM     12  C   UNL A   1     -24.932   1.431  26.687  0.00  0.00    +0.009 C 
ATOM     13  C   UNL A   1     -23.218   2.282  27.997  0.00  0.00    +0.009 C 
BRANCH  11  14
ATOM     14  C   UNL A   1     -25.544   2.577  28.694  0.00  0.00    +0.034 C 
ATOM     15  C   UNL A   1     -25.350   3.097  29.866  0.00  0.00    +0.125 C 
ATOM     16  C   UNL A   1     -26.687   2.974  27.937  0.00  0.00    +0.038 C 
ATOM     17  O   UNL A   1     -25.885   3.935  30.437  0.00  0.00    -0.232 OA
ENDBRANCH  11  14
ENDBRANCH   4  11
TORSDOF 2
