MODEL 1624
MODEL 1
REMARK VINA RESULT:    -7.773      0.000      0.000
REMARK INTER + INTRA:          -8.411
REMARK INTER:                  -8.227
REMARK INTRA:                  -0.184
REMARK UNBOUND:                -0.184
REMARK  Name = No_1624-gen_results/8p0m/2024-11-26-14-13-15/
REMARK  1 active torsions:
REMARK  status: ('A' for Active; 'I' for Inactive)
REMARK    1  A    between atoms: C_6  and  C_12
REMARK                            x       y       z     vdW  Elec       q    Type
REMARK                         _______ _______ _______ _____ _____    ______ ____
ROOT
ATOM      1  F   UNL A   1     -27.463  -0.800  30.945  0.00  0.00    -0.204 F 
ATOM      2  C   UNL A   1     -26.566  -1.256  30.398  0.00  0.00    +0.140 A 
ATOM      3  C   UNL A   1     -25.593  -0.608  29.936  0.00  0.00    +0.033 A 
ATOM      4  C   UNL A   1     -26.624  -2.782  30.249  0.00  0.00    +0.033 A 
ATOM      5  C   UNL A   1     -25.730  -3.309  29.771  0.00  0.00    +0.045 A 
ATOM      6  C   UNL A   1     -24.496  -1.315  29.235  0.00  0.00    +0.037 A 
ATOM      7  C   UNL A   1     -24.576  -2.732  29.125  0.00  0.00    +0.147 A 
ATOM      8  O   UNL A   1     -23.622  -3.468  28.545  0.00  0.00    -0.442 OA
ATOM      9  C   UNL A   1     -23.991  -4.802  28.436  0.00  0.00    +0.222 C 
ATOM     10  C   UNL A   1     -25.715  -4.817  29.490  0.00  0.00    +0.048 C 
ATOM     11  C   UNL A   1     -24.738  -5.527  28.834  0.00  0.00    -0.061 C 
ENDROOT
BRANCH   6  12
ATOM     12  C   UNL A   1     -23.273  -0.646  28.732  0.00  0.00    +0.003 A 
ATOM     13  C   UNL A   1     -22.194  -0.701  29.084  0.00  0.00    +0.000 A 
ATOM     14  C   UNL A   1     -21.023  -0.017  28.635  0.00  0.00    +0.000 A 
ATOM     15  C   UNL A   1     -23.574   0.660  27.962  0.00  0.00    +0.000 A 
ATOM     16  C   UNL A   1     -22.577   1.410  27.440  0.00  0.00    +0.000 A 
ATOM     17  C   UNL A   1     -21.255   1.132  27.825  0.00  0.00    +0.000 A 
ENDBRANCH   6  12
TORSDOF 1
ENDMDL
ENDMDL
