REMARK  Name = No_1624-gen_results/8p0m/2024-11-26-14-13-15/
REMARK  1 active torsions:
REMARK  status: ('A' for Active; 'I' for Inactive)
REMARK    1  A    between atoms: C_6  and  C_12
REMARK                            x       y       z     vdW  Elec       q    Type
REMARK                         _______ _______ _______ _____ _____    ______ ____
ROOT
ATOM      1  F   UNL A   1     -28.073  -1.254  28.532  0.00  0.00    -0.204 F 
ATOM      2  C   UNL A   1     -27.359  -0.379  28.722  0.00  0.00    +0.140 A 
ATOM      3  C   UNL A   1     -27.701   0.761  29.125  0.00  0.00    +0.033 A 
ATOM      4  C   UNL A   1     -25.884  -0.692  28.437  0.00  0.00    +0.033 A 
ATOM      5  C   UNL A   1     -25.110   0.116  28.668  0.00  0.00    +0.045 A 
ATOM      6  C   UNL A   1     -26.681   1.817  29.320  0.00  0.00    +0.037 A 
ATOM      7  C   UNL A   1     -25.320   1.489  29.058  0.00  0.00    +0.147 A 
ATOM      8  O   UNL A   1     -24.319   2.357  29.238  0.00  0.00    -0.442 OA
ATOM      9  C   UNL A   1     -23.108   1.852  28.784  0.00  0.00    +0.222 C 
ATOM     10  C   UNL A   1     -23.620  -0.052  28.341  0.00  0.00    +0.048 C 
ATOM     11  C   UNL A   1     -22.630   0.890  28.485  0.00  0.00    -0.061 C 
ENDROOT
BRANCH   6  12
ATOM     12  C   UNL A   1     -26.979   3.161  29.869  0.00  0.00    +0.003 A 
ATOM     13  C   UNL A   1     -26.764   4.199  29.460  0.00  0.00    +0.000 A 
ATOM     14  C   UNL A   1     -27.002   5.494  30.012  0.00  0.00    +0.000 A 
ATOM     15  C   UNL A   1     -27.151   3.159  31.405  0.00  0.00    +0.000 A 
ATOM     16  C   UNL A   1     -27.417   4.300  32.081  0.00  0.00    +0.000 A 
ATOM     17  C   UNL A   1     -27.278   5.526  31.409  0.00  0.00    +0.000 A 
ENDBRANCH   6  12
TORSDOF 1
