MODEL 1625
MODEL 1
REMARK VINA RESULT:    -8.246      0.000      0.000
REMARK INTER + INTRA:         -11.230
REMARK INTER:                  -9.693
REMARK INTRA:                  -1.538
REMARK UNBOUND:                -1.538
REMARK  Name = No_1625-gen_results/8p0m/2024-11-26-14-13-15/
REMARK  3 active torsions:
REMARK  status: ('A' for Active; 'I' for Inactive)
REMARK    1  A    between atoms: C_4  and  C_6
REMARK    2  A    between atoms: C_9  and  C_10
REMARK    3  A    between atoms: C_15  and  C_29
REMARK                            x       y       z     vdW  Elec       q    Type
REMARK                         _______ _______ _______ _____ _____    ______ ____
ROOT
ATOM      1  C   UNL A   1      -9.210   1.109  34.902  0.00  0.00    +0.017 A 
ATOM      2  C   UNL A   1      -8.466   0.536  35.663  0.00  0.00    +0.058 A 
ATOM      3  C   UNL A   1      -8.779  -0.134  36.734  0.00  0.00    +0.013 A 
ATOM      4  C   UNL A   1     -10.158  -0.215  37.097  0.00  0.00    +0.016 A 
ATOM      5  C   UNL A   1     -10.635   0.975  35.140  0.00  0.00    +0.069 A 
ATOM      6  C   UNL A   1     -11.041   0.339  36.221  0.00  0.00    +0.071 A 
ATOM      7 CL   UNL A   1      -6.692   0.572  35.339  0.00  0.00    -0.082 Cl
ATOM      8  C   UNL A   1     -11.571   1.582  34.165  0.00  0.00    +0.251 C 
ATOM      9  O   UNL A   1     -11.378   1.484  33.078  0.00  0.00    -0.270 OA
ATOM     10  N   UNL A   1     -12.661   2.177  34.657  0.00  0.00    -0.260 N 
ATOM     11  C   UNL A   1     -13.448   2.834  34.264  0.00  0.00    +0.095 C 
ATOM     12  C   UNL A   1     -14.440   3.324  34.936  0.00  0.00    +0.022 C 
ATOM     13  C   UNL A   1     -14.378   2.943  36.266  0.00  0.00    +0.005 C 
ATOM     14  C   UNL A   1     -13.514   2.265  36.939  0.00  0.00    +0.042 C 
ATOM     15  C   UNL A   1     -12.584   1.846  36.169  0.00  0.00    +0.169 C 
ATOM     16  N   UNL A   1     -11.698   1.029  36.685  0.00  0.00    -0.219 NA
ENDROOT
BRANCH   4  17
ATOM     17  C   UNL A   1     -10.573  -0.948  38.276  0.00  0.00    +0.001 A 
ATOM     18  C   UNL A   1     -10.100  -0.751  39.412  0.00  0.00    +0.000 A 
ATOM     19  C   UNL A   1     -10.535  -1.477  40.627  0.00  0.00    -0.000 A 
ATOM     20  C   UNL A   1     -11.650  -1.936  38.117  0.00  0.00    +0.000 A 
ATOM     21  C   UNL A   1     -12.135  -2.663  39.256  0.00  0.00    +0.000 A 
ATOM     22  C   UNL A   1     -11.622  -2.389  40.505  0.00  0.00    -0.000 A 
BRANCH  19  23
ATOM     23  C   UNL A   1     -10.097  -1.198  41.934  0.00  0.00    +0.004 A 
ATOM     24  C   UNL A   1      -9.452  -1.491  42.701  0.00  0.00    +0.071 A 
ATOM     25  C   UNL A   1      -9.213  -1.065  44.025  0.00  0.00    +0.004 A 
ATOM     26  C   UNL A   1     -10.145  -0.128  44.485  0.00  0.00    -0.000 A 
ATOM     27  C   UNL A   1     -11.111   0.291  43.675  0.00  0.00    -0.000 A 
ATOM     28  C   UNL A   1     -11.236  -0.179  42.438  0.00  0.00    -0.000 A 
BRANCH  24  29
ATOM     29  C   UNL A   1      -8.342  -2.620  42.353  0.00  0.00    +0.419 C 
ATOM     30  F   UNL A   1      -7.709  -2.223  41.592  0.00  0.00    -0.166 F 
ATOM     31  F   UNL A   1      -8.973  -3.770  41.972  0.00  0.00    -0.166 F 
ATOM     32  F   UNL A   1      -7.645  -2.870  43.481  0.00  0.00    -0.166 F 
ENDBRANCH  24  29
ENDBRANCH  19  23
ENDBRANCH   4  17
TORSDOF 3
ENDMDL
ENDMDL
