REMARK  Name = No_1625-gen_results/8p0m/2024-11-26-14-13-15/
REMARK  3 active torsions:
REMARK  status: ('A' for Active; 'I' for Inactive)
REMARK    1  A    between atoms: C_4  and  C_6
REMARK    2  A    between atoms: C_9  and  C_10
REMARK    3  A    between atoms: C_15  and  C_29
REMARK                            x       y       z     vdW  Elec       q    Type
REMARK                         _______ _______ _______ _____ _____    ______ ____
ROOT
ATOM      1  C   UNL A   1     -28.016  -0.814  28.878  0.00  0.00    +0.017 A 
ATOM      2  C   UNL A   1     -27.064  -0.119  28.608  0.00  0.00    +0.058 A 
ATOM      3  C   UNL A   1     -26.876   1.133  28.913  0.00  0.00    +0.013 A 
ATOM      4  C   UNL A   1     -27.901   1.807  29.644  0.00  0.00    +0.016 A 
ATOM      5  C   UNL A   1     -29.046  -0.232  29.718  0.00  0.00    +0.069 A 
ATOM      6  C   UNL A   1     -28.951   1.041  30.048  0.00  0.00    +0.071 A 
ATOM      7 CL   UNL A   1     -25.702  -0.835  27.668  0.00  0.00    -0.082 Cl
ATOM      8  C   UNL A   1     -30.172  -1.092  30.148  0.00  0.00    +0.251 C 
ATOM      9  O   UNL A   1     -29.978  -2.130  30.485  0.00  0.00    -0.270 OA
ATOM     10  N   UNL A   1     -31.388  -0.539  30.168  0.00  0.00    -0.260 N 
ATOM     11  C   UNL A   1     -32.419  -0.901  30.274  0.00  0.00    +0.095 C 
ATOM     12  C   UNL A   1     -33.490  -0.174  30.252  0.00  0.00    +0.022 C 
ATOM     13  C   UNL A   1     -33.183   1.160  30.037  0.00  0.00    +0.005 C 
ATOM     14  C   UNL A   1     -32.073   1.772  29.806  0.00  0.00    +0.042 C 
ATOM     15  C   UNL A   1     -31.097   0.949  29.845  0.00  0.00    +0.169 C 
ATOM     16  N   UNL A   1     -29.887   1.445  29.758  0.00  0.00    -0.219 NA
ENDROOT
BRANCH   4  17
ATOM     17  C   UNL A   1     -27.752   3.200  30.017  0.00  0.00    +0.001 A 
ATOM     18  C   UNL A   1     -27.777   3.604  31.195  0.00  0.00    +0.000 A 
ATOM     19  C   UNL A   1     -27.601   5.021  31.588  0.00  0.00    -0.000 A 
ATOM     20  C   UNL A   1     -27.505   4.168  28.939  0.00  0.00    +0.000 A 
ATOM     21  C   UNL A   1     -27.306   5.556  29.248  0.00  0.00    +0.000 A 
ATOM     22  C   UNL A   1     -27.295   5.963  30.564  0.00  0.00    -0.000 A 
BRANCH  19  23
ATOM     23  C   UNL A   1     -27.516   5.487  32.912  0.00  0.00    +0.004 A 
ATOM     24  C   UNL A   1     -26.904   5.954  33.617  0.00  0.00    +0.071 A 
ATOM     25  C   UNL A   1     -27.026   6.288  34.983  0.00  0.00    +0.004 A 
ATOM     26  C   UNL A   1     -28.166   5.748  35.589  0.00  0.00    -0.000 A 
ATOM     27  C   UNL A   1     -29.017   5.030  34.865  0.00  0.00    -0.000 A 
ATOM     28  C   UNL A   1     -28.802   4.783  33.577  0.00  0.00    -0.000 A 
BRANCH  24  29
ATOM     29  C   UNL A   1     -25.507   6.586  33.092  0.00  0.00    +0.419 C 
ATOM     30  F   UNL A   1     -24.716   6.059  33.574  0.00  0.00    -0.166 F 
ATOM     31  F   UNL A   1     -25.491   7.926  33.357  0.00  0.00    -0.166 F 
ATOM     32  F   UNL A   1     -25.458   6.416  31.754  0.00  0.00    -0.166 F 
ENDBRANCH  24  29
ENDBRANCH  19  23
ENDBRANCH   4  17
TORSDOF 3
