MODEL 1626
MODEL 1
REMARK VINA RESULT:    -7.944      0.000      0.000
REMARK INTER + INTRA:         -10.987
REMARK INTER:                  -9.802
REMARK INTRA:                  -1.185
REMARK UNBOUND:                -1.185
REMARK  Name = No_1626-gen_results/8p0m/2024-11-26-14-13-15/
REMARK  4 active torsions:
REMARK  status: ('A' for Active; 'I' for Inactive)
REMARK    1  A    between atoms: C_2  and  C_11
REMARK    2  A    between atoms: C_3  and  C_7
REMARK    3  A    between atoms: C_18  and  C_24
REMARK    4  A    between atoms: C_19  and  C_34
REMARK                            x       y       z     vdW  Elec       q    Type
REMARK                         _______ _______ _______ _____ _____    ______ ____
ROOT
ATOM      1  C   UNL A   1     -25.408 -16.552   6.881  0.00  0.00    +0.013 A 
ATOM      2  C   UNL A   1     -25.183 -15.618   6.448  0.00  0.00    +0.080 A 
ATOM      3  C   UNL A   1     -26.639 -16.685   7.559  0.00  0.00    +0.106 A 
ATOM      4  C   UNL A   1     -27.528 -15.634   7.673  0.00  0.00    +0.155 A 
ATOM      5  C   UNL A   1     -25.946 -14.355   6.420  0.00  0.00    +0.016 A 
ATOM      6  C   UNL A   1     -27.133 -14.438   7.061  0.00  0.00    +0.111 A 
ATOM      7  C   UNL A   1     -28.059 -13.263   7.157  0.00  0.00    +0.349 C 
ATOM      8  O   UNL A   1     -28.075 -12.338   6.566  0.00  0.00    -0.244 OA
ATOM      9  O   UNL A   1     -29.070 -13.525   8.074  0.00  0.00    -0.418 OA
ATOM     10  C   UNL A   1     -29.326 -13.785   9.019  0.00  0.00    +0.183 A 
ATOM     11  C   UNL A   1     -30.012 -12.968   9.943  0.00  0.00    +0.038 A 
ATOM     12  C   UNL A   1     -30.404 -13.475  11.233  0.00  0.00    +0.003 A 
ATOM     13  C   UNL A   1     -30.137 -14.829  11.536  0.00  0.00    +0.003 A 
ATOM     14  C   UNL A   1     -29.582 -15.668  10.623  0.00  0.00    +0.041 A 
ATOM     15  C   UNL A   1     -29.231 -15.181   9.471  0.00  0.00    +0.180 A 
ATOM     16  O   UNL A   1     -27.957 -15.599   8.913  0.00  0.00    -0.450 OA
ENDROOT
BRANCH  11  17
ATOM     17  C   UNL A   1     -30.305 -11.590   9.664  0.00  0.00    +0.003 A 
ATOM     18  C   UNL A   1     -29.550 -10.761   9.729  0.00  0.00    +0.000 A 
ATOM     19  C   UNL A   1     -29.784  -9.290   9.520  0.00  0.00    +0.000 A 
ATOM     20  C   UNL A   1     -31.661 -11.324   9.440  0.00  0.00    +0.000 A 
ATOM     21  C   UNL A   1     -32.106  -9.961   9.275  0.00  0.00    +0.000 A 
ATOM     22  C   UNL A   1     -31.128  -8.970   9.301  0.00  0.00    +0.000 A 
ATOM     23  C   UNL A   1     -27.974 -10.889   9.950  0.00  0.00    +0.000 A 
ATOM     24  C   UNL A   1     -27.103 -10.114   9.262  0.00  0.00    +0.000 A 
ATOM     25  C   UNL A   1     -27.247  -8.734   9.474  0.00  0.00    +0.000 A 
ATOM     26  C   UNL A   1     -28.724  -8.250   9.266  0.00  0.00    +0.000 A 
ENDBRANCH  11  17
BRANCH   3  27
ATOM     27  C   UNL A   1     -27.103 -17.973   8.179  0.00  0.00    +0.421 C 
ATOM     28  F   UNL A   1     -26.423 -18.884   7.696  0.00  0.00    -0.166 F 
ATOM     29  F   UNL A   1     -26.973 -17.930   9.500  0.00  0.00    -0.166 F 
ATOM     30  F   UNL A   1     -28.359 -18.353   7.852  0.00  0.00    -0.166 F 
ENDBRANCH   3  27
BRANCH   2  31
ATOM     31  C   UNL A   1     -23.837 -15.434   5.558  0.00  0.00    +0.388 C 
ATOM     32  O   UNL A   1     -23.888 -14.753   4.683  0.00  0.00    -0.241 OA
ATOM     33  O   UNL A   1     -22.730 -16.041   5.949  0.00  0.00    -0.241 OA
ENDBRANCH   2  31
BRANCH  12  34
ATOM     34  C   UNL A   1     -31.097 -12.590  12.197  0.00  0.00    +0.000 C 
ATOM     35  C   UNL A   1     -30.689 -12.045  13.137  0.00  0.00    +0.000 C 
ENDBRANCH  12  34
TORSDOF 4
ENDMDL
ENDMDL
