REMARK  Name = No_1626-gen_results/8p0m/2024-11-26-14-13-15/
REMARK  4 active torsions:
REMARK  status: ('A' for Active; 'I' for Inactive)
REMARK    1  A    between atoms: C_2  and  C_11
REMARK    2  A    between atoms: C_3  and  C_7
REMARK    3  A    between atoms: C_18  and  C_24
REMARK    4  A    between atoms: C_19  and  C_34
REMARK                            x       y       z     vdW  Elec       q    Type
REMARK                         _______ _______ _______ _____ _____    ______ ____
ROOT
ATOM      1  C   UNL A   1     -28.016  -0.814  28.878  0.00  0.00    +0.013 A 
ATOM      2  C   UNL A   1     -28.469  -0.785  29.829  0.00  0.00    +0.080 A 
ATOM      3  C   UNL A   1     -27.136   0.236  28.535  0.00  0.00    +0.106 A 
ATOM      4  C   UNL A   1     -26.875   1.282  29.398  0.00  0.00    +0.155 A 
ATOM      5  C   UNL A   1     -28.361   0.199  30.924  0.00  0.00    +0.016 A 
ATOM      6  C   UNL A   1     -27.528   1.223  30.636  0.00  0.00    +0.111 A 
ATOM      7  C   UNL A   1     -27.283   2.336  31.610  0.00  0.00    +0.349 C 
ATOM      8  O   UNL A   1     -27.479   2.373  32.690  0.00  0.00    -0.244 OA
ATOM      9  O   UNL A   1     -26.610   3.379  30.986  0.00  0.00    -0.418 OA
ATOM     10  C   UNL A   1     -26.584   4.054  30.231  0.00  0.00    +0.183 A 
ATOM     11  C   UNL A   1     -26.652   5.457  30.376  0.00  0.00    +0.038 A 
ATOM     12  C   UNL A   1     -26.515   6.327  29.236  0.00  0.00    +0.003 A 
ATOM     13  C   UNL A   1     -26.254   5.750  27.973  0.00  0.00    +0.003 A 
ATOM     14  C   UNL A   1     -26.070   4.412  27.825  0.00  0.00    +0.041 A 
ATOM     15  C   UNL A   1     -26.207   3.651  28.868  0.00  0.00    +0.180 A 
ATOM     16  O   UNL A   1     -26.924   2.398  28.709  0.00  0.00    -0.450 OA
ENDROOT
BRANCH  11  17
ATOM     17  C   UNL A   1     -26.909   6.076  31.646  0.00  0.00    +0.003 A 
ATOM     18  C   UNL A   1     -26.116   6.292  32.412  0.00  0.00    +0.000 A 
ATOM     19  C   UNL A   1     -26.304   6.873  33.786  0.00  0.00    +0.000 A 
ATOM     20  C   UNL A   1     -28.266   6.264  31.930  0.00  0.00    +0.000 A 
ATOM     21  C   UNL A   1     -28.665   6.759  33.226  0.00  0.00    +0.000 A 
ATOM     22  C   UNL A   1     -27.647   7.072  34.123  0.00  0.00    +0.000 A 
ATOM     23  C   UNL A   1     -24.534   6.160  32.245  0.00  0.00    +0.000 A 
ATOM     24  C   UNL A   1     -23.694   7.093  32.751  0.00  0.00    +0.000 A 
ATOM     25  C   UNL A   1     -23.759   7.252  34.144  0.00  0.00    +0.000 A 
ATOM     26  C   UNL A   1     -25.227   7.475  34.650  0.00  0.00    +0.000 A 
ENDBRANCH  11  17
BRANCH   3  27
ATOM     27  C   UNL A   1     -26.388   0.291  27.233  0.00  0.00    +0.421 C 
ATOM     28  F   UNL A   1     -25.921   1.428  27.120  0.00  0.00    -0.166 F 
ATOM     29  F   UNL A   1     -25.426  -0.625  27.207  0.00  0.00    -0.166 F 
ATOM     30  F   UNL A   1     -27.153   0.187  26.122  0.00  0.00    -0.166 F 
ENDBRANCH   3  27
BRANCH   2  31
ATOM     31  C   UNL A   1     -29.400  -2.019  30.327  0.00  0.00    +0.388 C 
ATOM     32  O   UNL A   1     -30.472  -2.002  30.042  0.00  0.00    -0.241 OA
ATOM     33  O   UNL A   1     -28.833  -3.017  30.983  0.00  0.00    -0.241 OA
ENDBRANCH   2  31
BRANCH  12  34
ATOM     34  C   UNL A   1     -26.620   7.794  29.408  0.00  0.00    +0.000 C 
ATOM     35  C   UNL A   1     -26.241   8.655  28.728  0.00  0.00    +0.000 C 
ENDBRANCH  12  34
TORSDOF 4
