MODEL 1627
MODEL 1
REMARK VINA RESULT:    -4.898      0.000      0.000
REMARK INTER + INTRA:          -5.286
REMARK INTER:                  -5.184
REMARK INTRA:                  -0.103
REMARK UNBOUND:                -0.103
REMARK  Name = No_1627-gen_results/8p0m/2024-11-26-14-13-15/
REMARK  1 active torsions:
REMARK  status: ('A' for Active; 'I' for Inactive)
REMARK    1  A    between atoms: C_3  and  C_4
REMARK                            x       y       z     vdW  Elec       q    Type
REMARK                         _______ _______ _______ _____ _____    ______ ____
ROOT
ATOM      1  C   UNL A   1     -26.560  -3.541  30.025  0.00  0.00    -0.000 A 
ATOM      2  C   UNL A   1     -25.792  -2.608  29.978  0.00  0.00    -0.000 A 
ATOM      3  C   UNL A   1     -24.530  -2.675  29.390  0.00  0.00    -0.000 A 
ATOM      4  C   UNL A   1     -26.065  -4.877  29.600  0.00  0.00    -0.000 A 
ATOM      5  C   UNL A   1     -24.879  -5.025  28.915  0.00  0.00    -0.000 A 
ATOM      6  C   UNL A   1     -23.973  -3.917  28.822  0.00  0.00    -0.000 A 
ENDROOT
BRANCH   3   7
ATOM      7  C   UNL A   1     -23.529  -1.594  29.299  0.00  0.00    -0.005 C 
ATOM      8  C   UNL A   1     -23.577  -0.479  28.389  0.00  0.00    -0.026 C 
ATOM      9  C   UNL A   1     -24.772  -0.431  27.625  0.00  0.00    +0.031 C 
ENDBRANCH   3   7
TORSDOF 1
ENDMDL
ENDMDL
