MODEL 1628
MODEL 1
REMARK VINA RESULT:    -7.816      0.000      0.000
REMARK INTER + INTRA:         -14.924
REMARK INTER:                 -10.557
REMARK INTRA:                  -4.367
REMARK UNBOUND:                -4.367
REMARK  Name = No_1628-gen_results/8p0m/2024-11-26-14-13-15/
REMARK  6 active torsions:
REMARK  status: ('A' for Active; 'I' for Inactive)
REMARK    1  A    between atoms: C_3  and  C_7
REMARK    2  A    between atoms: C_6  and  C_13
REMARK    3  A    between atoms: C_8  and  C_24
REMARK    4  A    between atoms: C_13  and  N_14
REMARK    5  A    between atoms: C_16  and  C_17
REMARK    6  A    between atoms: C_28  and  C_30
REMARK                            x       y       z     vdW  Elec       q    Type
REMARK                         _______ _______ _______ _____ _____    ______ ____
ROOT
ATOM      1  C   UNL A   1     -24.716  -2.857  28.749  0.00  0.00    -0.000 A 
ATOM      2  C   UNL A   1     -25.717  -3.193  29.591  0.00  0.00    -0.000 A 
ATOM      3  C   UNL A   1     -25.943  -4.538  29.926  0.00  0.00    +0.000 A 
ATOM      4  C   UNL A   1     -25.113  -5.549  29.352  0.00  0.00    +0.000 A 
ATOM      5  C   UNL A   1     -24.005  -4.022  28.259  0.00  0.00    -0.000 A 
ATOM      6  C   UNL A   1     -24.203  -5.251  28.480  0.00  0.00    +0.000 A 
ENDROOT
BRANCH   1   9
ATOM      7  C   UNL A   1     -24.837   0.261  26.977  0.00  0.00    +0.000 A 
ATOM      8  C   UNL A   1     -25.080  -0.854  27.377  0.00  0.00    -0.000 A 
ATOM      9  C   UNL A   1     -24.371  -1.477  28.403  0.00  0.00    -0.000 A 
ATOM     10  C   UNL A   1     -23.241  -0.790  28.999  0.00  0.00    -0.000 A 
ATOM     11  C   UNL A   1     -23.012   0.503  28.476  0.00  0.00    +0.000 A 
ATOM     12  C   UNL A   1     -23.730   1.003  27.502  0.00  0.00    +0.031 A 
BRANCH  12  13
ATOM     13  C   UNL A   1     -23.357   2.350  26.988  0.00  0.00    +0.279 C 
ATOM     14  F   UNL A   1     -22.769   2.485  25.949  0.00  0.00    -0.208 F 
BRANCH  13  15
ATOM     15  N   UNL A   1     -23.840   3.458  27.565  0.00  0.00    -0.165 NA
ATOM     16  C   UNL A   1     -24.967   4.146  27.078  0.00  0.00    +0.267 C 
ATOM     17  O   UNL A   1     -24.641   5.226  26.419  0.00  0.00    -0.268 OA
BRANCH  16  18
ATOM     18  C   UNL A   1     -26.149   3.558  27.155  0.00  0.00    +0.055 A 
ATOM     19  C   UNL A   1     -26.579   3.165  28.418  0.00  0.00    +0.005 A 
ATOM     20  C   UNL A   1     -27.802   2.382  28.561  0.00  0.00    +0.000 A 
ATOM     21  C   UNL A   1     -28.513   2.051  27.377  0.00  0.00    +0.000 A 
ATOM     22  C   UNL A   1     -28.020   2.469  26.126  0.00  0.00    +0.000 A 
ATOM     23  C   UNL A   1     -26.792   3.145  26.066  0.00  0.00    +0.005 A 
ENDBRANCH  16  18
ENDBRANCH  13  15
ENDBRANCH  12  13
ENDBRANCH   1   9
BRANCH   2  24
ATOM     24  C   UNL A   1     -26.622  -2.236  30.231  0.00  0.00    +0.000 A 
ATOM     25  C   UNL A   1     -27.937  -2.490  30.284  0.00  0.00    +0.000 A 
ATOM     26  C   UNL A   1     -28.739  -1.571  30.963  0.00  0.00    +0.000 A 
ATOM     27  C   UNL A   1     -26.161  -0.991  30.680  0.00  0.00    +0.000 A 
ATOM     28  C   UNL A   1     -26.954  -0.016  31.228  0.00  0.00    +0.000 A 
ATOM     29  C   UNL A   1     -28.319  -0.331  31.365  0.00  0.00    +0.000 A 
BRANCH  28  30
ATOM     30  C   UNL A   1     -26.379   1.244  31.716  0.00  0.00    +0.000 A 
ATOM     31  C   UNL A   1     -25.229   1.585  31.455  0.00  0.00    +0.000 A 
ATOM     32  C   UNL A   1     -24.645   2.807  31.996  0.00  0.00    +0.000 A 
ATOM     33  C   UNL A   1     -25.371   3.586  32.808  0.00  0.00    +0.000 A 
ATOM     34  C   UNL A   1     -26.691   3.239  33.076  0.00  0.00    +0.000 A 
ATOM     35  C   UNL A   1     -27.239   2.072  32.584  0.00  0.00    +0.000 A 
ENDBRANCH  28  30
ENDBRANCH   2  24
TORSDOF 6
ENDMDL
ENDMDL
