REMARK  Name = No_1628-gen_results/8p0m/2024-11-26-14-13-15/
REMARK  6 active torsions:
REMARK  status: ('A' for Active; 'I' for Inactive)
REMARK    1  A    between atoms: C_3  and  C_7
REMARK    2  A    between atoms: C_6  and  C_13
REMARK    3  A    between atoms: C_8  and  C_24
REMARK    4  A    between atoms: C_13  and  N_14
REMARK    5  A    between atoms: C_16  and  C_17
REMARK    6  A    between atoms: C_28  and  C_30
REMARK                            x       y       z     vdW  Elec       q    Type
REMARK                         _______ _______ _______ _____ _____    ______ ____
ROOT
ATOM      1  C   UNL A   1     -24.708   0.567  28.701  0.00  0.00    -0.000 A 
ATOM      2  C   UNL A   1     -24.678   1.840  29.149  0.00  0.00    -0.000 A 
ATOM      3  C   UNL A   1     -23.665   2.718  28.729  0.00  0.00    +0.000 A 
ATOM      4  C   UNL A   1     -22.657   2.244  27.835  0.00  0.00    +0.000 A 
ATOM      5  C   UNL A   1     -23.591   0.273  27.824  0.00  0.00    -0.000 A 
ATOM      6  C   UNL A   1     -22.625   1.004  27.461  0.00  0.00    +0.000 A 
ENDROOT
BRANCH   1   9
ATOM      7  C   UNL A   1     -28.016  -0.814  28.878  0.00  0.00    +0.000 A 
ATOM      8  C   UNL A   1     -27.064  -0.119  28.608  0.00  0.00    -0.000 A 
ATOM      9  C   UNL A   1     -25.765  -0.390  29.036  0.00  0.00    -0.000 A 
ATOM     10  C   UNL A   1     -25.530  -1.530  29.901  0.00  0.00    -0.000 A 
ATOM     11  C   UNL A   1     -26.689  -2.289  30.181  0.00  0.00    +0.000 A 
ATOM     12  C   UNL A   1     -27.873  -1.951  29.737  0.00  0.00    +0.031 A 
BRANCH  12  13
ATOM     13  C   UNL A   1     -29.032  -2.790  30.149  0.00  0.00    +0.279 C 
ATOM     14  F   UNL A   1     -30.155  -2.363  30.131  0.00  0.00    -0.208 F 
BRANCH  13  15
ATOM     15  N   UNL A   1     -28.882  -4.104  30.359  0.00  0.00    -0.165 NA
ATOM     16  C   UNL A   1     -29.969  -4.988  30.489  0.00  0.00    +0.267 C 
ATOM     17  O   UNL A   1     -30.194  -5.317  31.733  0.00  0.00    -0.268 OA
BRANCH  16  18
ATOM     18  C   UNL A   1     -30.728  -5.217  29.430  0.00  0.00    +0.055 A 
ATOM     19  C   UNL A   1     -31.513  -6.365  29.450  0.00  0.00    +0.005 A 
ATOM     20  C   UNL A   1     -32.261  -6.757  28.260  0.00  0.00    +0.000 A 
ATOM     21  C   UNL A   1     -32.151  -5.929  27.111  0.00  0.00    +0.000 A 
ATOM     22  C   UNL A   1     -31.330  -4.786  27.150  0.00  0.00    +0.000 A 
ATOM     23  C   UNL A   1     -30.576  -4.524  28.304  0.00  0.00    +0.005 A 
ENDBRANCH  16  18
ENDBRANCH  13  15
ENDBRANCH  12  13
ENDBRANCH   1   9
BRANCH   2  24
ATOM     24  C   UNL A   1     -25.661   2.423  30.065  0.00  0.00    +0.000 A 
ATOM     25  C   UNL A   1     -26.147   3.650  29.833  0.00  0.00    +0.000 A 
ATOM     26  C   UNL A   1     -27.128   4.125  30.706  0.00  0.00    +0.000 A 
ATOM     27  C   UNL A   1     -26.015   1.776  31.256  0.00  0.00    +0.000 A 
ATOM     28  C   UNL A   1     -26.874   2.284  32.196  0.00  0.00    +0.000 A 
ATOM     29  C   UNL A   1     -27.451   3.533  31.897  0.00  0.00    +0.000 A 
BRANCH  28  30
ATOM     30  C   UNL A   1     -27.226   1.516  33.397  0.00  0.00    +0.000 A 
ATOM     31  C   UNL A   1     -27.165   0.290  33.433  0.00  0.00    +0.000 A 
ATOM     32  C   UNL A   1     -27.576  -0.469  34.608  0.00  0.00    +0.000 A 
ATOM     33  C   UNL A   1     -28.043   0.177  35.684  0.00  0.00    +0.000 A 
ATOM     34  C   UNL A   1     -28.075   1.568  35.678  0.00  0.00    +0.000 A 
ATOM     35  C   UNL A   1     -27.708   2.287  34.559  0.00  0.00    +0.000 A 
ENDBRANCH  28  30
ENDBRANCH   2  24
TORSDOF 6
