MODEL 1629
MODEL 1
REMARK VINA RESULT:    -4.572      0.000      0.000
REMARK INTER + INTRA:          -4.572
REMARK INTER:                  -4.572
REMARK INTRA:                   0.000
REMARK UNBOUND:                 0.000
REMARK  Name = No_1629-gen_results/8p0m/2024-11-26-14-13-15/
REMARK  0 active torsions:
REMARK  status: ('A' for Active; 'I' for Inactive)
REMARK                            x       y       z     vdW  Elec       q    Type
REMARK                         _______ _______ _______ _____ _____    ______ ____
ROOT
ATOM      1  C   UNL A   1     -10.197  -9.771  18.306  0.00  0.00    +0.030 A 
ATOM      2  C   UNL A   1      -9.195 -10.375  18.000  0.00  0.00    +0.140 A 
ATOM      3  C   UNL A   1      -8.085 -10.445  18.777  0.00  0.00    +0.030 A 
ATOM      4  C   UNL A   1      -8.092  -9.776  20.015  0.00  0.00    +0.002 A 
ATOM      5  C   UNL A   1     -10.309  -9.144  19.599  0.00  0.00    +0.002 A 
ATOM      6  C   UNL A   1      -9.210  -9.161  20.405  0.00  0.00    +0.000 A 
ATOM      7  F   UNL A   1      -9.114 -11.044  16.820  0.00  0.00    -0.204 F 
ENDROOT
TORSDOF 0
ENDMDL
ENDMDL
