MODEL 162
MODEL 1
REMARK VINA RESULT:    -6.315      0.000      0.000
REMARK INTER + INTRA:          -7.485
REMARK INTER:                  -7.053
REMARK INTRA:                  -0.432
REMARK UNBOUND:                -0.432
REMARK  Name = No_162-gen_results/8p0m/2024-11-26-14-13-15/
REMARK  2 active torsions:
REMARK  status: ('A' for Active; 'I' for Inactive)
REMARK    1  A    between atoms: C_2  and  C_7
REMARK    2  A    between atoms: C_7  and  C_8
REMARK                            x       y       z     vdW  Elec       q    Type
REMARK                         _______ _______ _______ _____ _____    ______ ____
ROOT
ATOM      1  C   UNL A   1     -24.413  -1.263  30.038  0.00  0.00    +0.053 C 
ENDROOT
BRANCH   1   3
ATOM      2  C   UNL A   1     -23.832  -3.299  28.915  0.00  0.00    -0.004 A 
ATOM      3  C   UNL A   1     -24.642  -2.692  29.577  0.00  0.00    -0.018 A 
ATOM      4  C   UNL A   1     -25.827  -3.211  29.988  0.00  0.00    -0.004 A 
ATOM      5  C   UNL A   1     -26.138  -4.535  29.624  0.00  0.00    -0.000 A 
ATOM      6  C   UNL A   1     -24.042  -4.686  28.589  0.00  0.00    -0.000 A 
ATOM      7  C   UNL A   1     -25.230  -5.246  28.953  0.00  0.00    -0.000 A 
ENDBRANCH   1   3
BRANCH   1   8
ATOM      8  C   UNL A   1     -23.727  -0.403  29.018  0.00  0.00    -0.018 A 
ATOM      9  C   UNL A   1     -22.404  -0.019  29.109  0.00  0.00    -0.004 A 
ATOM     10  C   UNL A   1     -21.860   0.854  28.134  0.00  0.00    -0.000 A 
ATOM     11  C   UNL A   1     -24.507   0.042  27.917  0.00  0.00    -0.004 A 
ATOM     12  C   UNL A   1     -23.935   0.974  27.026  0.00  0.00    -0.000 A 
ATOM     13  C   UNL A   1     -22.592   1.313  27.119  0.00  0.00    -0.000 A 
ENDBRANCH   1   8
TORSDOF 2
ENDMDL
ENDMDL
