REMARK  Name = No_163-gen_results/8p0m/2024-11-26-14-13-15/
REMARK  5 active torsions:
REMARK  status: ('A' for Active; 'I' for Inactive)
REMARK    1  A    between atoms: C_2  and  C_14
REMARK    2  A    between atoms: C_3  and  O_7
REMARK    3  A    between atoms: O_7  and  C_8
REMARK    4  A    between atoms: C_11  and  C_18
REMARK    5  A    between atoms: C_18  and  C_19
REMARK                            x       y       z     vdW  Elec       q    Type
REMARK                         _______ _______ _______ _____ _____    ______ ____
ROOT
ATOM      1  C   UNL A   1     -26.986   0.767  26.189  0.00  0.00    +0.145 A 
ATOM      2  C   UNL A   1     -26.588   0.374  25.025  0.00  0.00    +0.037 A 
ATOM      3  C   UNL A   1     -27.401   2.038  26.235  0.00  0.00    +0.034 A 
ATOM      4  C   UNL A   1     -27.904   2.696  25.122  0.00  0.00    -0.015 A 
ATOM      5  C   UNL A   1     -27.096   0.867  23.801  0.00  0.00    +0.003 A 
ATOM      6  C   UNL A   1     -27.680   2.158  23.875  0.00  0.00    -0.004 A 
ENDROOT
BRANCH   1   7
ATOM      7  O   UNL A   1     -26.536   0.166  27.241  0.00  0.00    -0.454 OA
BRANCH   7  10
ATOM      8  C   UNL A   1     -28.016  -0.814  28.878  0.00  0.00    +0.042 A 
ATOM      9  C   UNL A   1     -28.469  -0.785  29.829  0.00  0.00    +0.058 A 
ATOM     10  C   UNL A   1     -27.136   0.236  28.535  0.00  0.00    +0.145 A 
ATOM     11  C   UNL A   1     -26.805   1.051  29.276  0.00  0.00    +0.037 A 
ATOM     12  C   UNL A   1     -28.237   0.150  30.930  0.00  0.00    +0.005 A 
ATOM     13  C   UNL A   1     -27.352   1.124  30.607  0.00  0.00    +0.003 A 
BRANCH   9  14
ATOM     14  C   UNL A   1     -29.458  -1.952  30.338  0.00  0.00    +0.265 C 
ATOM     15  N   UNL A   1     -30.084  -1.808  31.378  0.00  0.00    -0.200 NA
ATOM     16  O   UNL A   1     -29.428  -2.993  29.721  0.00  0.00    -0.268 OA
ATOM     17  C   UNL A   1     -30.972  -2.883  31.920  0.00  0.00    +0.139 C 
ENDBRANCH   9  14
ENDBRANCH   7  10
ENDBRANCH   1   7
BRANCH   4  18
ATOM     18  C   UNL A   1     -28.558   4.036  25.250  0.00  0.00    +0.053 C 
BRANCH  18  19
ATOM     19  C   UNL A   1     -29.603   4.038  26.299  0.00  0.00    -0.018 A 
ATOM     20  C   UNL A   1     -30.596   4.962  26.104  0.00  0.00    -0.001 A 
ATOM     21  C   UNL A   1     -30.294   2.752  26.605  0.00  0.00    -0.001 A 
ATOM     22  C   UNL A   1     -31.307   2.518  26.757  0.00  0.00    +0.042 A 
ATOM     23  C   UNL A   1     -31.968   4.864  26.576  0.00  0.00    +0.042 A 
ATOM     24  C   UNL A   1     -32.335   3.571  26.833  0.00  0.00    +0.196 A 
ATOM     25  O   UNL A   1     -33.627   3.320  27.178  0.00  0.00    -0.287 OA
ENDBRANCH  18  19
ENDBRANCH   4  18
TORSDOF 5
