MODEL 1630
MODEL 1
REMARK VINA RESULT:    -4.308      0.000      0.000
REMARK INTER + INTRA:          -4.308
REMARK INTER:                  -4.308
REMARK INTRA:                   0.000
REMARK UNBOUND:                 0.000
REMARK  Name = No_1630-gen_results/8p0m/2024-11-26-14-13-15/
REMARK  0 active torsions:
REMARK  status: ('A' for Active; 'I' for Inactive)
REMARK                            x       y       z     vdW  Elec       q    Type
REMARK                         _______ _______ _______ _____ _____    ______ ____
ROOT
ATOM      1  C   UNL A   1     -24.966  -5.404  28.989  0.00  0.00    +0.000 A 
ATOM      2  C   UNL A   1     -24.207  -4.730  28.708  0.00  0.00    +0.000 A 
ATOM      3  C   UNL A   1     -26.116  -4.760  29.623  0.00  0.00    +0.000 A 
ATOM      4  C   UNL A   1     -26.183  -3.400  29.804  0.00  0.00    +0.000 A 
ATOM      5  C   UNL A   1     -24.010  -3.282  28.769  0.00  0.00    +0.000 A 
ATOM      6  C   UNL A   1     -25.118  -2.649  29.381  0.00  0.00    +0.000 A 
ENDROOT
TORSDOF 0
ENDMDL
ENDMDL
