REMARK  Name = No_1631-gen_results/8p0m/2024-11-26-14-13-15/
REMARK  8 active torsions:
REMARK  status: ('A' for Active; 'I' for Inactive)
REMARK    1  A    between atoms: C_2  and  C_13
REMARK    2  A    between atoms: C_4  and  C_5
REMARK    3  A    between atoms: C_6  and  C_10
REMARK    4  A    between atoms: C_10  and  O_12
REMARK    5  A    between atoms: O_12  and  C_17
REMARK    6  A    between atoms: C_17  and  C_18
REMARK    7  A    between atoms: N_20  and  C_22
REMARK    8  A    between atoms: C_22  and  C_23
REMARK                            x       y       z     vdW  Elec       q    Type
REMARK                         _______ _______ _______ _____ _____    ______ ____
ROOT
ATOM      1  C   UNL A   1     -29.089  -2.721  30.241  0.00  0.00    +0.342 C 
ATOM      2  O   UNL A   1     -29.086  -3.878  30.523  0.00  0.00    -0.245 OA
ENDROOT
BRANCH   1   7
ATOM      3  C   UNL A   1     -28.016  -0.814  28.878  0.00  0.00    +0.010 A 
ATOM      4  C   UNL A   1     -27.064  -0.119  28.608  0.00  0.00    +0.071 A 
ATOM      5  C   UNL A   1     -25.765  -0.390  29.036  0.00  0.00    +0.005 A 
ATOM      6  C   UNL A   1     -25.530  -1.530  29.901  0.00  0.00    +0.044 A 
ATOM      7  C   UNL A   1     -27.927  -1.923  29.790  0.00  0.00    +0.075 A 
ATOM      8  C   UNL A   1     -26.691  -2.281  30.295  0.00  0.00    +0.008 A 
BRANCH   4   9
ATOM      9  C   UNL A   1     -27.114   1.001  27.601  0.00  0.00    +0.419 C 
ATOM     10  F   UNL A   1     -26.541   0.932  26.608  0.00  0.00    -0.166 F 
ATOM     11  F   UNL A   1     -28.471   1.202  27.312  0.00  0.00    -0.166 F 
ATOM     12  F   UNL A   1     -26.809   2.198  28.245  0.00  0.00    -0.166 F 
ENDBRANCH   4   9
BRANCH   6  13
ATOM     13  C   UNL A   1     -24.324  -1.908  30.432  0.00  0.00    +0.341 C 
ATOM     14  F   UNL A   1     -23.775  -2.830  29.852  0.00  0.00    -0.193 F 
ATOM     15  F   UNL A   1     -23.810  -1.345  31.434  0.00  0.00    -0.193 F 
ENDBRANCH   6  13
ENDBRANCH   1   7
BRANCH   1  16
ATOM     16  O   UNL A   1     -30.212  -2.099  30.378  0.00  0.00    -0.435 OA
BRANCH  16  17
ATOM     17  C   UNL A   1     -31.405  -2.716  30.421  0.00  0.00    +0.293 C 
BRANCH  17  18
ATOM     18  C   UNL A   1     -32.499  -2.101  29.732  0.00  0.00    +0.271 C 
ATOM     19  O   UNL A   1     -32.542  -0.888  29.586  0.00  0.00    -0.271 OA
ATOM     20  N   UNL A   1     -33.374  -2.843  29.052  0.00  0.00    -0.271 N 
ATOM     21  C   UNL A   1     -34.431  -2.338  28.178  0.00  0.00    +0.115 C 
BRANCH  20  22
ATOM     22  C   UNL A   1     -33.394  -4.319  29.146  0.00  0.00    +0.120 C 
BRANCH  22  23
ATOM     23  C   UNL A   1     -33.512  -4.956  30.108  0.00  0.00    -0.002 A 
ATOM     24  C   UNL A   1     -33.975  -4.420  31.308  0.00  0.00    -0.003 A 
ATOM     25  C   UNL A   1     -34.119  -5.240  32.534  0.00  0.00    -0.000 A 
ATOM     26  C   UNL A   1     -33.751  -6.578  32.370  0.00  0.00    -0.000 A 
ATOM     27  C   UNL A   1     -33.267  -7.139  31.247  0.00  0.00    -0.000 A 
ATOM     28  C   UNL A   1     -33.101  -6.332  30.105  0.00  0.00    -0.003 A 
ENDBRANCH  22  23
ENDBRANCH  20  22
ENDBRANCH  17  18
ENDBRANCH  16  17
ENDBRANCH   1  16
TORSDOF 8
