MODEL 1632
MODEL 1
REMARK VINA RESULT:    -6.714      0.000      0.000
REMARK INTER + INTRA:          -7.415
REMARK INTER:                  -7.106
REMARK INTRA:                  -0.309
REMARK UNBOUND:                -0.309
REMARK  Name = No_1632-gen_results/8p0m/2024-11-26-14-13-15/
REMARK  1 active torsions:
REMARK  status: ('A' for Active; 'I' for Inactive)
REMARK    1  A    between atoms: C_3  and  C_7
REMARK                            x       y       z     vdW  Elec       q    Type
REMARK                         _______ _______ _______ _____ _____    ______ ____
ROOT
ATOM      1  C   UNL A   1     -21.753   0.014  28.905  0.00  0.00    +0.000 A 
ATOM      2  C   UNL A   1     -22.291  -1.025  29.211  0.00  0.00    +0.000 A 
ATOM      3  C   UNL A   1     -23.568  -1.388  28.784  0.00  0.00    +0.000 A 
ATOM      4  C   UNL A   1     -24.333  -0.458  27.975  0.00  0.00    +0.000 A 
ATOM      5  C   UNL A   1     -23.683   0.735  27.663  0.00  0.00    +0.000 A 
ATOM      6  C   UNL A   1     -22.475   1.003  28.120  0.00  0.00    +0.000 A 
ENDROOT
BRANCH   3   7
ATOM      7  C   UNL A   1     -24.291  -2.650  29.112  0.00  0.00    +0.000 A 
ATOM      8  C   UNL A   1     -25.562  -2.715  29.428  0.00  0.00    +0.000 A 
ATOM      9  C   UNL A   1     -26.200  -3.946  29.705  0.00  0.00    +0.000 A 
ATOM     10  C   UNL A   1     -25.559  -5.140  29.270  0.00  0.00    +0.000 A 
ATOM     11  C   UNL A   1     -23.933  -4.012  28.663  0.00  0.00    +0.000 A 
ATOM     12  C   UNL A   1     -24.430  -5.126  28.822  0.00  0.00    +0.000 A 
ENDBRANCH   3   7
TORSDOF 1
ENDMDL
ENDMDL
