MODEL 1633
MODEL 1
REMARK VINA RESULT:    -7.326      0.000      0.000
REMARK INTER + INTRA:          -8.400
REMARK INTER:                  -7.754
REMARK INTRA:                  -0.646
REMARK UNBOUND:                -0.646
REMARK  Name = No_1633-gen_results/8p0m/2024-11-26-14-13-15/
REMARK  1 active torsions:
REMARK  status: ('A' for Active; 'I' for Inactive)
REMARK    1  A    between atoms: C_4  and  C_11
REMARK                            x       y       z     vdW  Elec       q    Type
REMARK                         _______ _______ _______ _____ _____    ______ ____
ROOT
ATOM      1  C   UNL A   1     -25.920   0.016  26.212  0.00  0.00    +0.000 A 
ATOM      2  C   UNL A   1     -25.455  -0.639  27.117  0.00  0.00    +0.000 A 
ATOM      3  C   UNL A   1     -24.226  -0.365  27.714  0.00  0.00    +0.000 A 
ATOM      4  C   UNL A   1     -23.580  -1.115  28.810  0.00  0.00    +0.000 A 
ATOM      5  C   UNL A   1     -22.287  -0.828  29.377  0.00  0.00    +0.000 A 
ATOM      6  C   UNL A   1     -21.723   0.383  28.963  0.00  0.00    +0.000 A 
ATOM      7  C   UNL A   1     -25.045   1.077  25.608  0.00  0.00    +0.000 A 
ATOM      8  C   UNL A   1     -23.860   1.473  26.186  0.00  0.00    +0.000 A 
ATOM      9  C   UNL A   1     -23.356   0.747  27.250  0.00  0.00    +0.000 A 
ATOM     10  C   UNL A   1     -22.166   1.110  27.878  0.00  0.00    +0.000 A 
ENDROOT
BRANCH   4  11
ATOM     11  C   UNL A   1     -24.258  -2.315  29.398  0.00  0.00    +0.000 A 
ATOM     12  C   UNL A   1     -23.843  -3.473  29.035  0.00  0.00    +0.000 A 
ATOM     13  C   UNL A   1     -24.748  -4.412  28.741  0.00  0.00    +0.000 A 
ATOM     14  C   UNL A   1     -26.014  -4.346  29.408  0.00  0.00    +0.000 A 
ATOM     15  C   UNL A   1     -25.443  -2.172  30.133  0.00  0.00    +0.000 A 
ATOM     16  C   UNL A   1     -26.218  -3.249  30.092  0.00  0.00    +0.000 A 
ENDBRANCH   4  11
TORSDOF 1
ENDMDL
ENDMDL
