MODEL 1634
MODEL 1
REMARK VINA RESULT:    -5.556      0.000      0.000
REMARK INTER + INTRA:          -5.556
REMARK INTER:                  -5.556
REMARK INTRA:                   0.000
REMARK UNBOUND:                 0.000
REMARK  Name = No_1634-gen_results/8p0m/2024-11-26-14-13-15/
REMARK  0 active torsions:
REMARK  status: ('A' for Active; 'I' for Inactive)
REMARK                            x       y       z     vdW  Elec       q    Type
REMARK                         _______ _______ _______ _____ _____    ______ ____
ROOT
ATOM      1  C   UNL A   1     -21.829   1.822  27.252  0.00  0.00    +0.000 A 
ATOM      2  C   UNL A   1     -21.777   0.897  28.029  0.00  0.00    +0.000 A 
ATOM      3  C   UNL A   1     -22.831   0.010  28.245  0.00  0.00    +0.002 A 
ATOM      4  C   UNL A   1     -24.088   0.225  27.554  0.00  0.00    +0.000 A 
ATOM      5  C   UNL A   1     -24.077   1.329  26.671  0.00  0.00    +0.000 A 
ATOM      6  C   UNL A   1     -23.037   2.112  26.539  0.00  0.00    +0.000 A 
ATOM      7  C   UNL A   1     -22.834  -1.152  29.172  0.00  0.00    +0.030 A 
ATOM      8  C   UNL A   1     -23.807  -2.029  29.247  0.00  0.00    +0.140 A 
ATOM      9  C   UNL A   1     -24.965  -1.786  28.370  0.00  0.00    +0.030 A 
ATOM     10  C   UNL A   1     -25.119  -0.721  27.591  0.00  0.00    +0.002 A 
ATOM     11  F   UNL A   1     -23.835  -3.076  30.012  0.00  0.00    -0.204 F 
ENDROOT
TORSDOF 0
ENDMDL
ENDMDL
