REMARK  Name = No_1634-gen_results/8p0m/2024-11-26-14-13-15/
REMARK  0 active torsions:
REMARK  status: ('A' for Active; 'I' for Inactive)
REMARK                            x       y       z     vdW  Elec       q    Type
REMARK                         _______ _______ _______ _____ _____    ______ ____
ROOT
ATOM      1  C   UNL A   1     -28.016  -0.814  28.878  0.00  0.00    +0.000 A 
ATOM      2  C   UNL A   1     -27.064  -0.119  28.608  0.00  0.00    +0.000 A 
ATOM      3  C   UNL A   1     -25.765  -0.390  29.036  0.00  0.00    +0.002 A 
ATOM      4  C   UNL A   1     -25.530  -1.530  29.901  0.00  0.00    +0.000 A 
ATOM      5  C   UNL A   1     -26.689  -2.289  30.181  0.00  0.00    +0.000 A 
ATOM      6  C   UNL A   1     -27.873  -1.951  29.737  0.00  0.00    +0.000 A 
ATOM      7  C   UNL A   1     -24.549   0.410  28.734  0.00  0.00    +0.030 A 
ATOM      8  C   UNL A   1     -23.331   0.044  29.057  0.00  0.00    +0.140 A 
ATOM      9  C   UNL A   1     -23.211  -1.223  29.798  0.00  0.00    +0.030 A 
ATOM     10  C   UNL A   1     -24.236  -1.957  30.220  0.00  0.00    +0.002 A 
ATOM     11  F   UNL A   1     -22.241   0.691  28.782  0.00  0.00    -0.204 F 
ENDROOT
TORSDOF 0
