MODEL 1635
MODEL 1
REMARK VINA RESULT:    -6.387      0.000      0.000
REMARK INTER + INTRA:          -6.387
REMARK INTER:                  -6.387
REMARK INTRA:                   0.000
REMARK UNBOUND:                 0.000
REMARK  Name = No_1635-gen_results/8p0m/2024-11-26-14-13-15/
REMARK  0 active torsions:
REMARK  status: ('A' for Active; 'I' for Inactive)
REMARK                            x       y       z     vdW  Elec       q    Type
REMARK                         _______ _______ _______ _____ _____    ______ ____
ROOT
ATOM      1  O   UNL A   1     -26.891  -1.071  30.145  0.00  0.00    -0.270 OA
ATOM      2  C   UNL A   1     -25.938  -1.496  29.667  0.00  0.00    +0.249 C 
ATOM      3  C   UNL A   1     -25.726  -2.730  29.416  0.00  0.00    +0.050 A 
ATOM      4  N   UNL A   1     -24.801  -0.539  29.609  0.00  0.00    -0.277 N 
ATOM      5  C   UNL A   1     -23.576  -0.902  29.017  0.00  0.00    +0.080 C 
ATOM      6  C   UNL A   1     -26.542  -3.689  29.649  0.00  0.00    +0.004 A 
ATOM      7  C   UNL A   1     -23.496  -2.229  28.702  0.00  0.00    +0.046 C 
ATOM      8  C   UNL A   1     -24.396  -3.138  28.876  0.00  0.00    -0.016 A 
ATOM      9  C   UNL A   1     -26.181  -4.918  29.741  0.00  0.00    +0.000 A 
ATOM     10  C   UNL A   1     -24.991  -5.381  29.172  0.00  0.00    -0.000 A 
ATOM     11  C   UNL A   1     -24.084  -4.488  28.786  0.00  0.00    -0.004 A 
ATOM     12  C   UNL A   1     -25.102   0.964  29.802  0.00  0.00    +0.094 C 
ATOM     13  C   UNL A   1     -24.413   1.747  29.408  0.00  0.00    +0.022 C 
ATOM     14  C   UNL A   1     -22.995   1.436  28.994  0.00  0.00    +0.004 C 
ATOM     15  C   UNL A   1     -22.677   0.110  28.705  0.00  0.00    +0.020 C 
ENDROOT
TORSDOF 0
ENDMDL
ENDMDL
