REMARK  Name = No_1635-gen_results/8p0m/2024-11-26-14-13-15/
REMARK  0 active torsions:
REMARK  status: ('A' for Active; 'I' for Inactive)
REMARK                            x       y       z     vdW  Elec       q    Type
REMARK                         _______ _______ _______ _____ _____    ______ ____
ROOT
ATOM      1  O   UNL A   1     -28.123  -1.335  28.487  0.00  0.00    -0.270 OA
ATOM      2  C   UNL A   1     -28.521  -0.436  29.078  0.00  0.00    +0.249 C 
ATOM      3  C   UNL A   1     -29.698   0.051  28.976  0.00  0.00    +0.050 A 
ATOM      4  N   UNL A   1     -27.474   0.343  29.791  0.00  0.00    -0.277 N 
ATOM      5  C   UNL A   1     -27.812   1.453  30.589  0.00  0.00    +0.080 C 
ATOM      6  C   UNL A   1     -30.622  -0.388  28.206  0.00  0.00    +0.004 A 
ATOM      7  C   UNL A   1     -29.120   1.829  30.473  0.00  0.00    +0.046 C 
ATOM      8  C   UNL A   1     -30.037   1.284  29.746  0.00  0.00    -0.016 A 
ATOM      9  C   UNL A   1     -31.635   0.314  27.846  0.00  0.00    +0.000 A 
ATOM     10  C   UNL A   1     -32.060   1.425  28.580  0.00  0.00    -0.000 A 
ATOM     11  C   UNL A   1     -31.238   1.933  29.494  0.00  0.00    -0.004 A 
ATOM     12  C   UNL A   1     -26.092  -0.315  30.003  0.00  0.00    +0.094 C 
ATOM     13  C   UNL A   1     -25.413   0.018  30.821  0.00  0.00    +0.022 C 
ATOM     14  C   UNL A   1     -25.600   1.334  31.537  0.00  0.00    +0.004 C 
ATOM     15  C   UNL A   1     -26.855   1.937  31.472  0.00  0.00    +0.020 C 
ENDROOT
TORSDOF 0
