MODEL 1636
MODEL 1
REMARK VINA RESULT:    -7.908      0.000      0.000
REMARK INTER + INTRA:         -13.240
REMARK INTER:                 -11.145
REMARK INTRA:                  -2.096
REMARK UNBOUND:                -2.096
REMARK  Name = No_1636-gen_results/8p0m/2024-11-26-14-13-15/
REMARK  7 active torsions:
REMARK  status: ('A' for Active; 'I' for Inactive)
REMARK    1  A    between atoms: C_2  and  C_3
REMARK    2  A    between atoms: C_3  and  C_5
REMARK    3  A    between atoms: C_3  and  C_6
REMARK    4  A    between atoms: N_4  and  C_8
REMARK    5  A    between atoms: C_18  and  C_19
REMARK    6  A    between atoms: C_19  and  C_20
REMARK    7  A    between atoms: C_20  and  C_21
REMARK                            x       y       z     vdW  Elec       q    Type
REMARK                         _______ _______ _______ _____ _____    ______ ____
ROOT
ATOM      1  C   UNL A   1     -23.580  -1.191  28.955  0.00  0.00    +0.122 C 
ENDROOT
BRANCH   1   2
ATOM      2  C   UNL A   1     -24.227  -2.349  29.094  0.00  0.00    -0.010 A 
ATOM      3  C   UNL A   1     -23.919  -3.628  28.610  0.00  0.00    -0.004 A 
ATOM      4  C   UNL A   1     -24.573  -4.790  28.922  0.00  0.00    -0.000 A 
ATOM      5  C   UNL A   1     -25.811  -4.635  29.580  0.00  0.00    -0.000 A 
ATOM      6  C   UNL A   1     -26.410  -3.415  29.834  0.00  0.00    -0.000 A 
ATOM      7  C   UNL A   1     -25.606  -2.294  29.665  0.00  0.00    -0.004 A 
ENDBRANCH   1   2
BRANCH   1   9
ATOM      8  O   UNL A   1     -21.370  -1.256  28.871  0.00  0.00    -0.272 OA
ATOM      9  C   UNL A   1     -22.318  -1.087  29.504  0.00  0.00    +0.253 C 
ATOM     10  N   UNL A   1     -22.290  -0.604  30.897  0.00  0.00    -0.179 NA
BRANCH  10  11
ATOM     11  C   UNL A   1     -23.355  -0.362  31.738  0.00  0.00    +0.073 A 
ATOM     12  C   UNL A   1     -23.449  -1.167  32.644  0.00  0.00    +0.017 A 
ATOM     13  C   UNL A   1     -24.511  -0.986  33.660  0.00  0.00    +0.001 A 
ATOM     14  C   UNL A   1     -25.418   0.106  33.525  0.00  0.00    +0.000 A 
ATOM     15  C   UNL A   1     -25.180   0.997  32.487  0.00  0.00    +0.001 A 
ATOM     16  C   UNL A   1     -24.144   0.783  31.627  0.00  0.00    +0.017 A 
ENDBRANCH  10  11
ENDBRANCH   1   9
BRANCH   1  17
ATOM     17  C   UNL A   1     -24.176  -0.087  28.253  0.00  0.00    -0.018 C 
ATOM     18  C   UNL A   1     -23.535   1.024  28.018  0.00  0.00    -0.030 C 
BRANCH  18  19
ATOM     19  C   UNL A   1     -24.136   2.071  27.271  0.00  0.00    +0.030 C 
BRANCH  19  20
ATOM     20  C   UNL A   1     -24.099   2.050  25.919  0.00  0.00    +0.031 C 
BRANCH  20  21
ATOM     21  C   UNL A   1     -25.296   1.649  25.233  0.00  0.00    -0.022 A 
ATOM     22  C   UNL A   1     -26.507   2.116  25.571  0.00  0.00    -0.004 A 
ATOM     23  C   UNL A   1     -27.503   1.096  25.611  0.00  0.00    -0.000 A 
ATOM     24  C   UNL A   1     -27.573  -0.027  24.757  0.00  0.00    -0.000 A 
ATOM     25  C   UNL A   1     -26.214  -0.518  24.493  0.00  0.00    -0.000 A 
ATOM     26  C   UNL A   1     -25.140   0.171  24.814  0.00  0.00    -0.004 A 
ENDBRANCH  20  21
ENDBRANCH  19  20
ENDBRANCH  18  19
ENDBRANCH   1  17
TORSDOF 7
ENDMDL
ENDMDL
