REMARK  Name = No_1636-gen_results/8p0m/2024-11-26-14-13-15/
REMARK  7 active torsions:
REMARK  status: ('A' for Active; 'I' for Inactive)
REMARK    1  A    between atoms: C_2  and  C_3
REMARK    2  A    between atoms: C_3  and  C_5
REMARK    3  A    between atoms: C_3  and  C_6
REMARK    4  A    between atoms: N_4  and  C_8
REMARK    5  A    between atoms: C_18  and  C_19
REMARK    6  A    between atoms: C_19  and  C_20
REMARK    7  A    between atoms: C_20  and  C_21
REMARK                            x       y       z     vdW  Elec       q    Type
REMARK                         _______ _______ _______ _____ _____    ______ ____
ROOT
ATOM      1  C   UNL A   1     -26.380  -0.087  27.939  0.00  0.00    +0.122 C 
ENDROOT
BRANCH   1   2
ATOM      2  C   UNL A   1     -25.177  -0.439  28.395  0.00  0.00    -0.010 A 
ATOM      3  C   UNL A   1     -24.810  -1.118  29.565  0.00  0.00    -0.004 A 
ATOM      4  C   UNL A   1     -23.553  -1.560  29.883  0.00  0.00    -0.000 A 
ATOM      5  C   UNL A   1     -22.509  -1.060  29.078  0.00  0.00    -0.000 A 
ATOM      6  C   UNL A   1     -22.678  -0.115  28.082  0.00  0.00    -0.000 A 
ATOM      7  C   UNL A   1     -23.989   0.136  27.696  0.00  0.00    -0.004 A 
ENDBRANCH   1   2
BRANCH   1   9
ATOM      8  O   UNL A   1     -28.123  -1.335  28.487  0.00  0.00    -0.272 OA
ATOM      9  C   UNL A   1     -27.481  -0.404  28.709  0.00  0.00    +0.253 C 
ATOM     10  N   UNL A   1     -27.666   0.447  29.899  0.00  0.00    -0.179 NA
BRANCH  10  11
ATOM     11  C   UNL A   1     -26.956   1.570  30.263  0.00  0.00    +0.073 A 
ATOM     12  C   UNL A   1     -26.957   1.777  31.461  0.00  0.00    +0.017 A 
ATOM     13  C   UNL A   1     -26.176   2.915  31.996  0.00  0.00    +0.001 A 
ATOM     14  C   UNL A   1     -25.474   3.760  31.086  0.00  0.00    +0.000 A 
ATOM     15  C   UNL A   1     -25.491   3.395  29.747  0.00  0.00    +0.001 A 
ATOM     16  C   UNL A   1     -26.195   2.298  29.347  0.00  0.00    +0.017 A 
ENDBRANCH  10  11
ENDBRANCH   1   9
BRANCH   1  17
ATOM     17  C   UNL A   1     -26.526   0.604  26.687  0.00  0.00    -0.018 C 
ATOM     18  C   UNL A   1     -27.246   0.135  25.706  0.00  0.00    -0.030 C 
BRANCH  18  19
ATOM     19  C   UNL A   1     -27.414   0.873  24.505  0.00  0.00    +0.030 C 
BRANCH  19  20
ATOM     20  C   UNL A   1     -28.414   0.561  23.649  0.00  0.00    +0.031 C 
BRANCH  20  21
ATOM     21  C   UNL A   1     -29.296  -0.509  24.027  0.00  0.00    -0.022 A 
ATOM     22  C   UNL A   1     -30.301  -0.921  23.240  0.00  0.00    -0.004 A 
ATOM     23  C   UNL A   1     -31.513  -1.139  23.959  0.00  0.00    -0.000 A 
ATOM     24  C   UNL A   1     -31.617  -1.636  25.277  0.00  0.00    -0.000 A 
ATOM     25  C   UNL A   1     -30.523  -1.084  26.088  0.00  0.00    -0.000 A 
ATOM     26  C   UNL A   1     -29.502  -0.448  25.556  0.00  0.00    -0.004 A 
ENDBRANCH  20  21
ENDBRANCH  19  20
ENDBRANCH  18  19
ENDBRANCH   1  17
TORSDOF 7
