MODEL 1637
MODEL 1
REMARK VINA RESULT:    -7.123      0.000      0.000
REMARK INTER + INTRA:          -8.742
REMARK INTER:                  -8.789
REMARK INTRA:                   0.046
REMARK UNBOUND:                 0.046
REMARK  Name = No_1637-gen_results/8p0m/2024-11-26-14-13-15/
REMARK  4 active torsions:
REMARK  status: ('A' for Active; 'I' for Inactive)
REMARK    1  A    between atoms: C_1  and  C_2
REMARK    2  A    between atoms: C_1  and  N_8
REMARK    3  A    between atoms: C_3  and  N_17
REMARK    4  A    between atoms: C_5  and  C_14
REMARK                            x       y       z     vdW  Elec       q    Type
REMARK                         _______ _______ _______ _____ _____    ______ ____
ROOT
ATOM      1  C   UNL A   1     -23.709  -0.281  29.916  0.00  0.00    +0.007 A 
ATOM      2  C   UNL A   1     -24.582  -1.154  30.536  0.00  0.00    +0.045 A 
ATOM      3  C   UNL A   1     -25.318  -0.890  31.758  0.00  0.00    +0.022 A 
ATOM      4  C   UNL A   1     -25.142   0.355  32.401  0.00  0.00    +0.099 A 
ATOM      5  C   UNL A   1     -24.245   1.280  31.757  0.00  0.00    +0.008 A 
ATOM      6  C   UNL A   1     -23.586   1.022  30.579  0.00  0.00    -0.001 A 
ENDROOT
BRANCH   2   7
ATOM      7  N   UNL A   1     -24.860  -2.376  30.001  0.00  0.00    -0.308 N 
ATOM      8  C   UNL A   1     -25.980  -2.918  30.089  0.00  0.00    +0.091 C 
ATOM      9  C   UNL A   1     -26.169  -4.271  29.692  0.00  0.00    +0.021 C 
ATOM     10  C   UNL A   1     -23.930  -3.078  29.226  0.00  0.00    +0.091 C 
ATOM     11  C   UNL A   1     -24.015  -4.329  28.746  0.00  0.00    +0.021 C 
ATOM     12  C   UNL A   1     -25.255  -4.914  28.942  0.00  0.00    +0.004 C 
ENDBRANCH   2   7
BRANCH   4  13
ATOM     13  C   UNL A   1     -25.858   0.736  33.581  0.00  0.00    +0.477 C 
ATOM     14  N   UNL A   1     -26.196   2.019  33.763  0.00  0.00    +0.205 NA
ATOM     15  N   UNL A   1     -25.873  -0.040  34.708  0.00  0.00    +0.205 NA
ENDBRANCH   4  13
BRANCH   1  16
ATOM     16  C   UNL A   1     -23.165  -0.515  28.862  0.00  0.00    +0.100 C 
BRANCH  16  17
ATOM     17  N   UNL A   1     -23.403   0.306  27.770  0.00  0.00    -0.269 NA
ATOM     18  C   UNL A   1     -24.494   0.249  26.954  0.00  0.00    +0.072 C 
ATOM     19  C   UNL A   1     -24.584   1.162  25.905  0.00  0.00    +0.017 C 
ATOM     20  C   UNL A   1     -22.506   1.342  27.374  0.00  0.00    +0.072 C 
ATOM     21  C   UNL A   1     -22.599   2.178  26.387  0.00  0.00    +0.017 C 
ATOM     22  C   UNL A   1     -23.674   2.112  25.608  0.00  0.00    +0.003 C 
ENDBRANCH  16  17
ENDBRANCH   1  16
TORSDOF 4
ENDMDL
ENDMDL
