MODEL 1638
MODEL 1
REMARK VINA RESULT:    -5.393      0.000      0.000
REMARK INTER + INTRA:          -6.526
REMARK INTER:                  -6.339
REMARK INTRA:                  -0.187
REMARK UNBOUND:                -0.187
REMARK  Name = No_1638-gen_results/8p0m/2024-11-26-14-13-15/
REMARK  3 active torsions:
REMARK  status: ('A' for Active; 'I' for Inactive)
REMARK    1  A    between atoms: C_2  and  C_7
REMARK    2  A    between atoms: C_7  and  N_8
REMARK    3  A    between atoms: N_8  and  C_10
REMARK                            x       y       z     vdW  Elec       q    Type
REMARK                         _______ _______ _______ _____ _____    ______ ____
ROOT
ATOM      1  C   UNL A   1     -24.220   0.137  27.392  0.00  0.00    -0.002 A 
ATOM      2  C   UNL A   1     -23.339  -0.050  28.198  0.00  0.00    +0.008 A 
ATOM      3  C   UNL A   1     -22.215   0.768  28.236  0.00  0.00    -0.002 A 
ATOM      4  C   UNL A   1     -22.044   1.837  27.286  0.00  0.00    -0.000 A 
ATOM      5  C   UNL A   1     -23.100   1.968  26.375  0.00  0.00    -0.000 A 
ATOM      6  C   UNL A   1     -24.133   1.157  26.370  0.00  0.00    -0.000 A 
ENDROOT
BRANCH   2   7
ATOM      7  C   UNL A   1     -23.334  -1.119  29.233  0.00  0.00    +0.171 C 
ATOM      8 BR   UNL A   1     -23.269  -0.575  31.026  0.00  0.00    -0.053 Br
BRANCH   7   9
ATOM      9  N   UNL A   1     -23.261  -2.295  29.010  0.00  0.00    -0.221 NA
BRANCH   9  10
ATOM     10  C   UNL A   1     -23.973  -3.232  29.254  0.00  0.00    +0.101 C 
ATOM     11  C   UNL A   1     -24.177  -4.323  28.546  0.00  0.00    +0.123 C 
ATOM     12  N   UNL A   1     -24.950  -5.374  29.160  0.00  0.00    -0.125 NA
ENDBRANCH   9  10
ENDBRANCH   7   9
ENDBRANCH   2   7
TORSDOF 3
ENDMDL
ENDMDL
