REMARK  Name = No_1638-gen_results/8p0m/2024-11-26-14-13-15/
REMARK  3 active torsions:
REMARK  status: ('A' for Active; 'I' for Inactive)
REMARK    1  A    between atoms: C_2  and  C_7
REMARK    2  A    between atoms: C_7  and  N_8
REMARK    3  A    between atoms: N_8  and  C_10
REMARK                            x       y       z     vdW  Elec       q    Type
REMARK                         _______ _______ _______ _____ _____    ______ ____
ROOT
ATOM      1  C   UNL A   1     -28.016  -0.814  28.878  0.00  0.00    -0.002 A 
ATOM      2  C   UNL A   1     -27.064  -0.119  28.608  0.00  0.00    +0.008 A 
ATOM      3  C   UNL A   1     -25.792  -0.430  29.076  0.00  0.00    -0.002 A 
ATOM      4  C   UNL A   1     -25.576  -1.565  29.936  0.00  0.00    -0.000 A 
ATOM      5  C   UNL A   1     -26.735  -2.300  30.217  0.00  0.00    -0.000 A 
ATOM      6  C   UNL A   1     -27.918  -1.954  29.763  0.00  0.00    -0.000 A 
ENDROOT
BRANCH   2   7
ATOM      7  C   UNL A   1     -27.106   1.102  27.759  0.00  0.00    +0.171 C 
ATOM      8 BR   UNL A   1     -28.714   2.067  27.726  0.00  0.00    -0.053 Br
BRANCH   7   9
ATOM      9  N   UNL A   1     -26.235   1.456  27.015  0.00  0.00    -0.221 NA
BRANCH   9  10
ATOM     10  C   UNL A   1     -25.193   2.033  27.172  0.00  0.00    +0.101 C 
ATOM     11  C   UNL A   1     -24.763   2.693  28.227  0.00  0.00    +0.123 C 
ATOM     12  N   UNL A   1     -23.392   3.141  28.212  0.00  0.00    -0.125 NA
ENDBRANCH   9  10
ENDBRANCH   7   9
ENDBRANCH   2   7
TORSDOF 3
