MODEL 1639
MODEL 1
REMARK VINA RESULT:    -6.871      0.000      0.000
REMARK INTER + INTRA:          -8.658
REMARK INTER:                  -8.478
REMARK INTRA:                  -0.180
REMARK UNBOUND:                -0.180
REMARK  Name = No_1639-gen_results/8p0m/2024-11-26-14-13-15/
REMARK  4 active torsions:
REMARK  status: ('A' for Active; 'I' for Inactive)
REMARK    1  A    between atoms: C_6  and  O_7
REMARK    2  A    between atoms: O_7  and  C_8
REMARK    3  A    between atoms: C_8  and  C_9
REMARK    4  A    between atoms: C_8  and  C_21
REMARK                            x       y       z     vdW  Elec       q    Type
REMARK                         _______ _______ _______ _____ _____    ______ ____
ROOT
ATOM      1  C   UNL A   1     -28.904 -11.555  10.938  0.00  0.00    +0.041 A 
ATOM      2  C   UNL A   1     -29.331 -10.614  10.309  0.00  0.00    +0.053 A 
ATOM      3  C   UNL A   1     -30.619 -10.135  10.520  0.00  0.00    -0.016 A 
ATOM      4  C   UNL A   1     -31.345 -10.591  11.181  0.00  0.00    -0.001 A 
ATOM      5  C   UNL A   1     -31.029 -11.785  12.010  0.00  0.00    +0.037 A 
ATOM      6  C   UNL A   1     -29.812 -12.248  11.838  0.00  0.00    +0.139 A 
ATOM      7  C   UNL A   1     -28.382  -9.852   9.373  0.00  0.00    +0.249 C 
ATOM      8  O   UNL A   1     -27.395 -10.226   9.150  0.00  0.00    -0.270 OA
ATOM      9  N   UNL A   1     -28.832  -8.672   8.828  0.00  0.00    -0.277 N 
ATOM     10  C   UNL A   1     -27.965  -7.878   7.976  0.00  0.00    +0.094 C 
ATOM     11  C   UNL A   1     -28.692  -6.790   7.450  0.00  0.00    +0.022 C 
ATOM     12  C   UNL A   1     -29.848  -6.211   8.149  0.00  0.00    +0.004 C 
ATOM     13  C   UNL A   1     -30.530  -7.059   9.018  0.00  0.00    +0.020 C 
ATOM     14  C   UNL A   1     -30.035  -8.144   9.333  0.00  0.00    +0.080 C 
ATOM     15  C   UNL A   1     -30.905  -8.823   9.958  0.00  0.00    +0.046 C 
ENDROOT
BRANCH   6  16
ATOM     16  O   UNL A   1     -29.431 -13.359  12.543  0.00  0.00    -0.467 OA
BRANCH  16  17
ATOM     17  C   UNL A   1     -29.848 -14.601  12.190  0.00  0.00    +0.275 C 
BRANCH  17  18
ATOM     18  C   UNL A   1     -30.132 -14.764  10.896  0.00  0.00    +0.278 C 
ATOM     19 CL   UNL A   1     -31.382 -15.416  10.474  0.00  0.00    -0.075 Cl
ATOM     20  O   UNL A   1     -29.090 -15.553  10.269  0.00  0.00    -0.201 OA
ENDBRANCH  17  18
BRANCH  17  21
ATOM     21  C   UNL A   1     -29.514 -15.647  13.199  0.00  0.00    +0.255 C 
ATOM     22  O   UNL A   1     -28.409 -16.036  13.449  0.00  0.00    -0.284 OA
ENDBRANCH  17  21
ENDBRANCH  16  17
ENDBRANCH   6  16
TORSDOF 4
ENDMDL
ENDMDL
