REMARK  Name = No_1639-gen_results/8p0m/2024-11-26-14-13-15/
REMARK  4 active torsions:
REMARK  status: ('A' for Active; 'I' for Inactive)
REMARK    1  A    between atoms: C_6  and  O_7
REMARK    2  A    between atoms: O_7  and  C_8
REMARK    3  A    between atoms: C_8  and  C_9
REMARK    4  A    between atoms: C_8  and  C_21
REMARK                            x       y       z     vdW  Elec       q    Type
REMARK                         _______ _______ _______ _____ _____    ______ ____
ROOT
ATOM      1  C   UNL A   1     -28.016  -0.814  28.878  0.00  0.00    +0.041 A 
ATOM      2  C   UNL A   1     -27.064  -0.119  28.608  0.00  0.00    +0.053 A 
ATOM      3  C   UNL A   1     -25.792  -0.430  29.076  0.00  0.00    -0.016 A 
ATOM      4  C   UNL A   1     -25.568  -1.241  29.757  0.00  0.00    -0.001 A 
ATOM      5  C   UNL A   1     -26.611  -2.184  30.244  0.00  0.00    +0.037 A 
ATOM      6  C   UNL A   1     -27.819  -1.919  29.803  0.00  0.00    +0.139 A 
ATOM      7  C   UNL A   1     -27.244   1.036  27.613  0.00  0.00    +0.249 C 
ATOM      8  O   UNL A   1     -28.223   1.334  27.271  0.00  0.00    -0.270 OA
ATOM      9  N   UNL A   1     -26.113   1.681  27.169  0.00  0.00    -0.277 N 
ATOM     10  C   UNL A   1     -26.211   2.747  26.189  0.00  0.00    +0.094 C 
ATOM     11  C   UNL A   1     -24.939   3.323  25.991  0.00  0.00    +0.022 C 
ATOM     12  C   UNL A   1     -23.697   2.565  26.204  0.00  0.00    +0.004 C 
ATOM     13  C   UNL A   1     -23.771   1.499  27.097  0.00  0.00    +0.020 C 
ATOM     14  C   UNL A   1     -24.871   1.100  27.487  0.00  0.00    +0.080 C 
ATOM     15  C   UNL A   1     -24.692   0.272  28.431  0.00  0.00    +0.046 C 
ENDROOT
BRANCH   6  16
ATOM     16  O   UNL A   1     -28.853  -2.719  30.211  0.00  0.00    -0.467 OA
BRANCH  16  17
ATOM     17  C   UNL A   1     -29.175  -2.848  31.523  0.00  0.00    +0.275 C 
BRANCH  17  18
ATOM     18  C   UNL A   1     -29.861  -1.830  32.048  0.00  0.00    +0.278 C 
ATOM     19 CL   UNL A   1     -30.591  -0.888  31.184  0.00  0.00    -0.075 Cl
ATOM     20  O   UNL A   1     -28.965  -0.989  32.816  0.00  0.00    -0.201 OA
ENDBRANCH  17  18
BRANCH  17  21
ATOM     21  C   UNL A   1     -29.085  -4.252  32.020  0.00  0.00    +0.255 C 
ATOM     22  O   UNL A   1     -28.884  -5.214  31.335  0.00  0.00    -0.284 OA
ENDBRANCH  17  21
ENDBRANCH  16  17
ENDBRANCH   6  16
TORSDOF 4
