MODEL 163
MODEL 1
REMARK VINA RESULT:    -7.520      0.000      0.000
REMARK INTER + INTRA:         -10.607
REMARK INTER:                  -9.718
REMARK INTRA:                  -0.889
REMARK UNBOUND:                -0.889
REMARK  Name = No_163-gen_results/8p0m/2024-11-26-14-13-15/
REMARK  5 active torsions:
REMARK  status: ('A' for Active; 'I' for Inactive)
REMARK    1  A    between atoms: C_2  and  C_14
REMARK    2  A    between atoms: C_3  and  O_7
REMARK    3  A    between atoms: O_7  and  C_8
REMARK    4  A    between atoms: C_11  and  C_18
REMARK    5  A    between atoms: C_18  and  C_19
REMARK                            x       y       z     vdW  Elec       q    Type
REMARK                         _______ _______ _______ _____ _____    ______ ____
ROOT
ATOM      1  C   UNL A   1     -23.025   1.310  27.504  0.00  0.00    +0.145 A 
ATOM      2  C   UNL A   1     -21.753   1.280  27.285  0.00  0.00    +0.037 A 
ATOM      3  C   UNL A   1     -23.498   0.256  28.181  0.00  0.00    +0.034 A 
ATOM      4  C   UNL A   1     -22.708  -0.485  29.048  0.00  0.00    -0.015 A 
ATOM      5  C   UNL A   1     -20.811   0.666  28.143  0.00  0.00    +0.003 A 
ATOM      6  C   UNL A   1     -21.340  -0.351  28.978  0.00  0.00    -0.004 A 
ENDROOT
BRANCH   1   7
ATOM      7  O   UNL A   1     -23.782   1.998  26.714  0.00  0.00    -0.454 OA
BRANCH   7  10
ATOM      8  C   UNL A   1     -26.068   2.222  25.970  0.00  0.00    +0.042 A 
ATOM      9  C   UNL A   1     -26.889   1.848  25.425  0.00  0.00    +0.058 A 
ATOM     10  C   UNL A   1     -24.876   1.463  25.969  0.00  0.00    +0.145 A 
ATOM     11  C   UNL A   1     -24.723   0.528  25.318  0.00  0.00    +0.037 A 
ATOM     12  C   UNL A   1     -26.955   0.679  24.548  0.00  0.00    +0.005 A 
ATOM     13  C   UNL A   1     -25.790  -0.012  24.514  0.00  0.00    +0.003 A 
BRANCH   9  14
ATOM     14  C   UNL A   1     -28.283   2.652  25.325  0.00  0.00    +0.265 C 
ATOM     15  N   UNL A   1     -28.998   2.511  24.344  0.00  0.00    -0.200 NA
ATOM     16  O   UNL A   1     -28.493   3.478  26.185  0.00  0.00    -0.268 OA
ATOM     17  C   UNL A   1     -30.273   3.276  24.180  0.00  0.00    +0.139 C 
ENDBRANCH   9  14
ENDBRANCH   7  10
ENDBRANCH   1   7
BRANCH   4  18
ATOM     18  C   UNL A   1     -23.312  -1.515  29.950  0.00  0.00    +0.053 C 
BRANCH  18  19
ATOM     19  C   UNL A   1     -24.485  -2.169  29.326  0.00  0.00    -0.018 A 
ATOM     20  C   UNL A   1     -24.419  -3.537  29.297  0.00  0.00    -0.001 A 
ATOM     21  C   UNL A   1     -25.839  -1.835  29.856  0.00  0.00    -0.001 A 
ATOM     22  C   UNL A   1     -26.668  -2.436  30.093  0.00  0.00    +0.042 A 
ATOM     23  C   UNL A   1     -25.548  -4.454  29.289  0.00  0.00    +0.042 A 
ATOM     24  C   UNL A   1     -26.686  -3.876  29.782  0.00  0.00    +0.196 A 
ATOM     25  O   UNL A   1     -27.793  -4.652  29.935  0.00  0.00    -0.287 OA
ENDBRANCH  18  19
ENDBRANCH   4  18
TORSDOF 5
ENDMDL
ENDMDL
