REMARK  Name = No_164-gen_results/8p0m/2024-11-26-14-13-15/
REMARK  3 active torsions:
REMARK  status: ('A' for Active; 'I' for Inactive)
REMARK    1  A    between atoms: C_4  and  C_8
REMARK    2  A    between atoms: C_8  and  C_9
REMARK    3  A    between atoms: C_12  and  C_15
REMARK                            x       y       z     vdW  Elec       q    Type
REMARK                         _______ _______ _______ _____ _____    ______ ____
ROOT
ATOM      1  C   UNL A   1     -23.596  -0.540  29.104  0.00  0.00    -0.018 A 
ATOM      2  C   UNL A   1     -22.133  -0.573  29.266  0.00  0.00    -0.004 A 
ATOM      3  C   UNL A   1     -24.122   0.227  28.070  0.00  0.00    -0.000 A 
ATOM      4  C   UNL A   1     -23.240   1.115  27.344  0.00  0.00    +0.071 A 
ATOM      5  C   UNL A   1     -21.314   0.207  28.466  0.00  0.00    -0.000 A 
ATOM      6  C   UNL A   1     -21.822   1.048  27.562  0.00  0.00    +0.004 A 
ENDROOT
BRANCH   4   7
ATOM      7  C   UNL A   1     -23.764   2.021  26.322  0.00  0.00    +0.419 C 
ATOM      8  F   UNL A   1     -24.644   2.631  26.654  0.00  0.00    -0.166 F 
ATOM      9  F   UNL A   1     -22.713   2.902  25.970  0.00  0.00    -0.166 F 
ATOM     10  F   UNL A   1     -24.035   1.244  25.220  0.00  0.00    -0.166 F 
ENDBRANCH   4   7
BRANCH   1  11
ATOM     11  C   UNL A   1     -24.377  -1.098  30.069  0.00  0.00    +0.045 C 
ATOM     12  C   UNL A   1     -23.885  -0.500  31.425  0.00  0.00    +0.009 C 
BRANCH  11  16
ATOM     13  C   UNL A   1     -28.016  -0.814  28.878  0.00  0.00    +0.029 A 
ATOM     14  C   UNL A   1     -28.469  -0.785  29.829  0.00  0.00    +0.140 A 
ATOM     15  C   UNL A   1     -26.546  -0.876  28.850  0.00  0.00    -0.002 A 
ATOM     16  C   UNL A   1     -25.804  -1.032  30.057  0.00  0.00    -0.018 A 
ATOM     17  C   UNL A   1     -27.944  -0.987  31.207  0.00  0.00    +0.029 A 
ATOM     18  C   UNL A   1     -26.582  -1.039  31.223  0.00  0.00    -0.002 A 
ATOM     19  F   UNL A   1     -29.909  -0.740  29.864  0.00  0.00    -0.204 F 
ENDBRANCH  11  16
ENDBRANCH   1  11
TORSDOF 3
