MODEL 1640
MODEL 1
REMARK VINA RESULT:    -5.098      0.000      0.000
REMARK INTER + INTRA:          -5.098
REMARK INTER:                  -5.098
REMARK INTRA:                   0.000
REMARK UNBOUND:                 0.000
REMARK  Name = No_1640-gen_results/8p0m/2024-11-26-14-13-15/
REMARK  0 active torsions:
REMARK  status: ('A' for Active; 'I' for Inactive)
REMARK                            x       y       z     vdW  Elec       q    Type
REMARK                         _______ _______ _______ _____ _____    ______ ____
ROOT
ATOM      1  C   UNL A   1     -23.894  -1.456  28.918  0.00  0.00    +0.271 C 
ATOM      2  C   UNL A   1     -24.423  -2.541  28.993  0.00  0.00    +0.012 C 
ATOM      3  C   UNL A   1     -25.650  -2.791  29.585  0.00  0.00    +0.027 C 
ATOM      4  C   UNL A   1     -26.266  -4.083  29.761  0.00  0.00    +0.004 C 
ATOM      5  C   UNL A   1     -25.582  -5.229  29.289  0.00  0.00    +0.001 C 
ATOM      6  C   UNL A   1     -24.625  -5.138  28.973  0.00  0.00    +0.004 C 
ATOM      7  C   UNL A   1     -23.886  -3.898  28.685  0.00  0.00    +0.027 C 
ATOM      8  F   UNL A   1     -22.608  -1.543  28.914  0.00  0.00    -0.173 F 
ATOM      9  F   UNL A   1     -24.226  -0.600  29.770  0.00  0.00    -0.173 F 
ENDROOT
TORSDOF 0
ENDMDL
ENDMDL
