MODEL 1641
MODEL 1
REMARK VINA RESULT:    -3.088      0.000      0.000
REMARK INTER + INTRA:          -3.088
REMARK INTER:                  -3.088
REMARK INTRA:                   0.000
REMARK UNBOUND:                 0.000
REMARK  Name = No_1641-gen_results/8p0m/2024-11-26-14-13-15/
REMARK  0 active torsions:
REMARK  status: ('A' for Active; 'I' for Inactive)
REMARK                            x       y       z     vdW  Elec       q    Type
REMARK                         _______ _______ _______ _____ _____    ______ ____
ROOT
ATOM      1  O   UNL A   1     -11.140 -10.467  16.936  0.00  0.00    -0.219 OA
ATOM      2  C   UNL A   1     -10.184 -10.264  17.547  0.00  0.00    +0.483 C 
ATOM      3  F   UNL A   1     -10.288  -9.670  18.448  0.00  0.00    -0.132 F 
ATOM      4  F   UNL A   1      -9.001 -10.715  17.095  0.00  0.00    -0.132 F 
ENDROOT
TORSDOF 0
ENDMDL
ENDMDL
