MODEL 1642
MODEL 1
REMARK VINA RESULT:    -3.736      0.000      0.000
REMARK INTER + INTRA:          -4.268
REMARK INTER:                  -4.173
REMARK INTRA:                  -0.095
REMARK UNBOUND:                -0.095
REMARK  Name = No_1642-gen_results/8p0m/2024-11-26-14-13-15/
REMARK  2 active torsions:
REMARK  status: ('A' for Active; 'I' for Inactive)
REMARK    1  A    between atoms: C_1  and  C_2
REMARK    2  A    between atoms: C_1  and  C_4
REMARK                            x       y       z     vdW  Elec       q    Type
REMARK                         _______ _______ _______ _____ _____    ______ ____
ROOT
ATOM      1  C   UNL A   1     -24.429  -2.828  28.766  0.00  0.00    +0.103 C 
ENDROOT
BRANCH   1   2
ATOM      2  C   UNL A   1     -24.128  -4.270  28.639  0.00  0.00    -0.017 C 
ATOM      3  C   UNL A   1     -25.019  -5.199  29.178  0.00  0.00    -0.029 C 
ATOM      4  C   UNL A   1     -26.250  -4.807  29.648  0.00  0.00    +0.030 C 
ENDBRANCH   1   2
BRANCH   1   5
ATOM      5  C   UNL A   1     -23.733  -2.165  29.500  0.00  0.00    -0.073 C 
ATOM      6  C   UNL A   1     -22.797  -1.255  29.050  0.00  0.00    -0.014 C 
ENDBRANCH   1   5
TORSDOF 2
ENDMDL
ENDMDL
