REMARK  Name = No_1642-gen_results/8p0m/2024-11-26-14-13-15/
REMARK  2 active torsions:
REMARK  status: ('A' for Active; 'I' for Inactive)
REMARK    1  A    between atoms: C_1  and  C_2
REMARK    2  A    between atoms: C_1  and  C_4
REMARK                            x       y       z     vdW  Elec       q    Type
REMARK                         _______ _______ _______ _____ _____    ______ ____
ROOT
ATOM      1  C   UNL A   1     -28.016  -0.814  28.878  0.00  0.00    +0.103 C 
ENDROOT
BRANCH   1   2
ATOM      2  C   UNL A   1     -27.968  -1.605  30.126  0.00  0.00    -0.017 C 
ATOM      3  C   UNL A   1     -26.730  -1.881  30.707  0.00  0.00    -0.029 C 
ATOM      4  C   UNL A   1     -25.584  -1.273  30.251  0.00  0.00    +0.030 C 
ENDBRANCH   1   2
BRANCH   1   5
ATOM      5  C   UNL A   1     -27.064  -0.119  28.608  0.00  0.00    -0.073 C 
ATOM      6  C   UNL A   1     -27.001   0.691  27.491  0.00  0.00    -0.014 C 
ENDBRANCH   1   5
TORSDOF 2
