MODEL 1643
MODEL 1
REMARK VINA RESULT:    -7.680      0.000      0.000
REMARK INTER + INTRA:         -10.199
REMARK INTER:                  -9.475
REMARK INTRA:                  -0.724
REMARK UNBOUND:                -0.724
REMARK  Name = No_1643-gen_results/8p0m/2024-11-26-14-13-15/
REMARK  4 active torsions:
REMARK  status: ('A' for Active; 'I' for Inactive)
REMARK    1  A    between atoms: C_2  and  C_20
REMARK    2  A    between atoms: C_6  and  C_8
REMARK    3  A    between atoms: C_11  and  C_12
REMARK    4  A    between atoms: C_20  and  N_21
REMARK                            x       y       z     vdW  Elec       q    Type
REMARK                         _______ _______ _______ _____ _____    ______ ____
ROOT
ATOM      1  C   UNL A   1     -25.291  -0.652  27.552  0.00  0.00    +0.004 A 
ATOM      2  C   UNL A   1     -24.449  -0.777  28.411  0.00  0.00    +0.018 A 
ATOM      3  C   UNL A   1     -23.278  -0.023  28.458  0.00  0.00    +0.067 A 
ATOM      4  C   UNL A   1     -23.007   0.929  27.398  0.00  0.00    +0.068 A 
ATOM      5  C   UNL A   1     -24.029   1.013  26.425  0.00  0.00    +0.017 A 
ATOM      6  C   UNL A   1     -25.096   0.256  26.461  0.00  0.00    +0.056 A 
ATOM      7 CL   UNL A   1     -22.056  -0.158  29.654  0.00  0.00    -0.082 Cl
ATOM      8 CL   UNL A   1     -21.614   1.886  27.390  0.00  0.00    -0.081 Cl
ENDROOT
BRANCH   6   9
ATOM      9  C   UNL A   1     -26.075   0.411  25.333  0.00  0.00    +0.272 C 
ATOM     10  N   UNL A   1     -26.977   1.357  25.348  0.00  0.00    -0.137 NA
ATOM     11  O   UNL A   1     -26.092  -0.399  24.389  0.00  0.00    -0.268 OA
ATOM     12  C   UNL A   1     -28.030   1.566  24.366  0.00  0.00    +0.272 C 
ATOM     13  O   UNL A   1     -27.894   2.634  23.684  0.00  0.00    -0.268 OA
BRANCH  12  14
ATOM     14  C   UNL A   1     -29.001   0.607  24.364  0.00  0.00    +0.058 A 
ATOM     15  C   UNL A   1     -29.157  -0.290  23.601  0.00  0.00    +0.005 A 
ATOM     16  C   UNL A   1     -30.029  -1.417  23.629  0.00  0.00    +0.009 A 
ATOM     17  C   UNL A   1     -30.915  -1.463  24.695  0.00  0.00    +0.062 A 
ATOM     18  C   UNL A   1     -30.825  -0.448  25.656  0.00  0.00    +0.146 A 
ATOM     19  C   UNL A   1     -29.852   0.581  25.568  0.00  0.00    +0.035 A 
ATOM     20 BR   UNL A   1     -32.267  -2.685  24.874  0.00  0.00    -0.047 Br
ATOM     21  F   UNL A   1     -31.653  -0.487  26.702  0.00  0.00    -0.204 F 
ENDBRANCH  12  14
ENDBRANCH   6   9
BRANCH   2  22
ATOM     22  C   UNL A   1     -24.483  -1.611  29.745  0.00  0.00    +0.154 C 
ATOM     23 BR   UNL A   1     -24.205  -3.445  29.281  0.00  0.00    -0.054 Br
BRANCH  22  24
ATOM     24  N   UNL A   1     -24.917  -1.217  30.859  0.00  0.00    -0.295 N 
ATOM     25  C   UNL A   1     -26.027  -0.999  31.157  0.00  0.00    +0.058 C 
ATOM     26  C   UNL A   1     -26.330  -0.405  32.497  0.00  0.00    -0.009 C 
ATOM     27  C   UNL A   1     -24.100  -1.154  32.025  0.00  0.00    +0.097 C 
ATOM     28  C   UNL A   1     -25.062  -0.601  32.963  0.00  0.00    +0.049 C 
ENDBRANCH  22  24
ENDBRANCH   2  22
TORSDOF 4
ENDMDL
ENDMDL
