REMARK  Name = No_1643-gen_results/8p0m/2024-11-26-14-13-15/
REMARK  4 active torsions:
REMARK  status: ('A' for Active; 'I' for Inactive)
REMARK    1  A    between atoms: C_2  and  C_20
REMARK    2  A    between atoms: C_6  and  C_8
REMARK    3  A    between atoms: C_11  and  C_12
REMARK    4  A    between atoms: C_20  and  N_21
REMARK                            x       y       z     vdW  Elec       q    Type
REMARK                         _______ _______ _______ _____ _____    ______ ____
ROOT
ATOM      1  C   UNL A   1     -28.016  -0.814  28.878  0.00  0.00    +0.004 A 
ATOM      2  C   UNL A   1     -27.064  -0.119  28.608  0.00  0.00    +0.018 A 
ATOM      3  C   UNL A   1     -25.765  -0.390  29.036  0.00  0.00    +0.067 A 
ATOM      4  C   UNL A   1     -25.530  -1.530  29.901  0.00  0.00    +0.068 A 
ATOM      5  C   UNL A   1     -26.689  -2.289  30.181  0.00  0.00    +0.017 A 
ATOM      6  C   UNL A   1     -27.873  -1.951  29.737  0.00  0.00    +0.056 A 
ATOM      7 CL   UNL A   1     -24.382   0.559  28.679  0.00  0.00    -0.082 Cl
ATOM      8 CL   UNL A   1     -23.983  -1.929  30.453  0.00  0.00    -0.081 Cl
ENDROOT
BRANCH   6   9
ATOM      9  C   UNL A   1     -29.026  -2.816  30.158  0.00  0.00    +0.272 C 
ATOM     10  N   UNL A   1     -28.878  -4.104  30.325  0.00  0.00    -0.137 NA
ATOM     11  O   UNL A   1     -30.166  -2.336  30.293  0.00  0.00    -0.268 OA
ATOM     12  C   UNL A   1     -29.924  -5.062  30.649  0.00  0.00    +0.272 C 
ATOM     13  O   UNL A   1     -29.809  -5.579  31.808  0.00  0.00    -0.268 OA
BRANCH  12  14
ATOM     14  C   UNL A   1     -30.828  -5.272  29.649  0.00  0.00    +0.058 A 
ATOM     15  C   UNL A   1     -30.697  -5.099  28.481  0.00  0.00    +0.005 A 
ATOM     16  C   UNL A   1     -31.520  -5.452  27.372  0.00  0.00    +0.009 A 
ATOM     17  C   UNL A   1     -32.732  -6.045  27.690  0.00  0.00    +0.062 A 
ATOM     18  C   UNL A   1     -32.997  -6.292  29.043  0.00  0.00    +0.146 A 
ATOM     19  C   UNL A   1     -32.058  -5.975  30.059  0.00  0.00    +0.035 A 
ATOM     20 BR   UNL A   1     -34.057  -6.421  26.483  0.00  0.00    -0.047 Br
ATOM     21  F   UNL A   1     -34.148  -6.884  29.369  0.00  0.00    -0.204 F 
ENDBRANCH  12  14
ENDBRANCH   6   9
BRANCH   2  22
ATOM     22  C   UNL A   1     -26.949   1.095  27.614  0.00  0.00    +0.154 C 
ATOM     23 BR   UNL A   1     -28.080   2.487  28.277  0.00  0.00    -0.054 Br
BRANCH  22  24
ATOM     24  N   UNL A   1     -26.468   1.063  26.451  0.00  0.00    -0.295 N 
ATOM     25  C   UNL A   1     -25.965   0.156  25.910  0.00  0.00    +0.058 C 
ATOM     26  C   UNL A   1     -25.329   0.354  24.570  0.00  0.00    -0.009 C 
ATOM     27  C   UNL A   1     -26.641   2.126  25.517  0.00  0.00    +0.097 C 
ATOM     28  C   UNL A   1     -25.863   1.600  24.408  0.00  0.00    +0.049 C 
ENDBRANCH  22  24
ENDBRANCH   2  22
TORSDOF 4
