MODEL 1644
MODEL 1
REMARK VINA RESULT:    -4.587      0.000      0.000
REMARK INTER + INTRA:          -4.587
REMARK INTER:                  -4.587
REMARK INTRA:                   0.000
REMARK UNBOUND:                 0.000
REMARK  Name = No_1644-gen_results/8p0m/2024-11-26-14-13-15/
REMARK  0 active torsions:
REMARK  status: ('A' for Active; 'I' for Inactive)
REMARK                            x       y       z     vdW  Elec       q    Type
REMARK                         _______ _______ _______ _____ _____    ______ ____
ROOT
ATOM      1  C   UNL A   1     -10.330  -9.824  18.354  0.00  0.00    -0.000 A 
ATOM      2  C   UNL A   1     -10.341  -9.168  19.370  0.00  0.00    -0.000 A 
ATOM      3  C   UNL A   1      -9.315  -9.117  20.298  0.00  0.00    -0.004 A 
ATOM      4  C   UNL A   1      -8.143  -9.877  20.011  0.00  0.00    -0.022 A 
ATOM      5  C   UNL A   1      -7.141  -9.951  20.893  0.00  0.00    +0.031 C 
ATOM      6  C   UNL A   1      -9.064 -10.328  17.886  0.00  0.00    -0.000 A 
ATOM      7  C   UNL A   1      -8.061 -10.467  18.805  0.00  0.00    -0.004 A 
ENDROOT
TORSDOF 0
ENDMDL
ENDMDL
