MODEL 1645
MODEL 1
REMARK VINA RESULT:    -5.868      0.000      0.000
REMARK INTER + INTRA:          -6.250
REMARK INTER:                  -6.211
REMARK INTRA:                  -0.039
REMARK UNBOUND:                -0.039
REMARK  Name = No_1645-gen_results/8p0m/2024-11-26-14-13-15/
REMARK  1 active torsions:
REMARK  status: ('A' for Active; 'I' for Inactive)
REMARK    1  A    between atoms: C_2  and  C_5
REMARK                            x       y       z     vdW  Elec       q    Type
REMARK                         _______ _______ _______ _____ _____    ______ ____
ROOT
ATOM      1  C   UNL A   1     -28.009 -12.022  31.247  0.00  0.00    -0.002 A 
ATOM      2  C   UNL A   1     -28.040 -11.647  32.231  0.00  0.00    +0.011 A 
ATOM      3  C   UNL A   1     -29.103 -11.541  30.404  0.00  0.00    -0.000 A 
ATOM      4  C   UNL A   1     -29.834 -10.710  30.745  0.00  0.00    -0.000 A 
ATOM      5  C   UNL A   1     -29.841 -10.138  32.040  0.00  0.00    -0.000 A 
ATOM      6  C   UNL A   1     -28.796 -10.591  32.894  0.00  0.00    -0.002 A 
ATOM      7  C   UNL A   1     -29.157 -12.059  28.920  0.00  0.00    -0.000 A 
ATOM      8  C   UNL A   1     -29.709 -11.396  27.963  0.00  0.00    -0.000 A 
ATOM      9  C   UNL A   1     -30.552 -10.247  28.373  0.00  0.00    -0.000 A 
ATOM     10  C   UNL A   1     -30.606  -9.852  29.699  0.00  0.00    -0.000 A 
ENDROOT
BRANCH   2  11
ATOM     11  C   UNL A   1     -26.913 -12.074  33.211  0.00  0.00    +0.209 C 
ATOM     12  O   UNL A   1     -27.363 -12.360  34.449  0.00  0.00    -0.215 OA
ENDBRANCH   2  11
TORSDOF 1
ENDMDL
ENDMDL
