REMARK  Name = No_1645-gen_results/8p0m/2024-11-26-14-13-15/
REMARK  1 active torsions:
REMARK  status: ('A' for Active; 'I' for Inactive)
REMARK    1  A    between atoms: C_2  and  C_5
REMARK                            x       y       z     vdW  Elec       q    Type
REMARK                         _______ _______ _______ _____ _____    ______ ____
ROOT
ATOM      1  C   UNL A   1     -28.016  -0.814  28.878  0.00  0.00    -0.002 A 
ATOM      2  C   UNL A   1     -28.469  -0.785  29.829  0.00  0.00    +0.011 A 
ATOM      3  C   UNL A   1     -27.087   0.290  28.638  0.00  0.00    -0.000 A 
ATOM      4  C   UNL A   1     -26.768   1.027  29.472  0.00  0.00    -0.000 A 
ATOM      5  C   UNL A   1     -27.308   1.033  30.780  0.00  0.00    -0.000 A 
ATOM      6  C   UNL A   1     -28.226  -0.021  31.047  0.00  0.00    -0.002 A 
ATOM      7  C   UNL A   1     -26.374   0.346  27.238  0.00  0.00    -0.000 A 
ATOM      8  C   UNL A   1     -25.230   0.911  27.053  0.00  0.00    -0.000 A 
ATOM      9  C   UNL A   1     -24.741   1.763  28.164  0.00  0.00    -0.000 A 
ATOM     10  C   UNL A   1     -25.427   1.814  29.366  0.00  0.00    -0.000 A 
ENDROOT
BRANCH   2  11
ATOM     11  C   UNL A   1     -29.459  -1.922  30.202  0.00  0.00    +0.209 C 
ATOM     12  O   UNL A   1     -29.901  -1.847  31.473  0.00  0.00    -0.215 OA
ENDBRANCH   2  11
TORSDOF 1
