MODEL 1646
MODEL 1
REMARK VINA RESULT:    -4.873      0.000      0.000
REMARK INTER + INTRA:          -5.598
REMARK INTER:                  -5.443
REMARK INTRA:                  -0.154
REMARK UNBOUND:                -0.154
REMARK  Name = No_1646-gen_results/8p0m/2024-11-26-14-13-15/
REMARK  2 active torsions:
REMARK  status: ('A' for Active; 'I' for Inactive)
REMARK    1  A    between atoms: C_2  and  O_7
REMARK    2  A    between atoms: C_4  and  C_9
REMARK                            x       y       z     vdW  Elec       q    Type
REMARK                         _______ _______ _______ _____ _____    ______ ____
ROOT
ATOM      1  C   UNL A   1     -24.168   0.373  27.566  0.00  0.00    +0.037 A 
ATOM      2  C   UNL A   1     -23.491   0.959  28.120  0.00  0.00    +0.139 A 
ATOM      3  C   UNL A   1     -24.617  -0.908  28.233  0.00  0.00    +0.003 A 
ATOM      4  C   UNL A   1     -23.808  -1.692  28.574  0.00  0.00    -0.000 A 
ATOM      5  C   UNL A   1     -22.328   0.377  28.903  0.00  0.00    +0.037 A 
ATOM      6  C   UNL A   1     -22.576  -0.993  29.279  0.00  0.00    +0.003 A 
ENDROOT
BRANCH   4   7
ATOM      7  C   UNL A   1     -24.028  -3.016  29.139  0.00  0.00    -0.005 C 
ATOM      8  C   UNL A   1     -24.955  -3.906  28.812  0.00  0.00    -0.026 C 
ATOM      9  C   UNL A   1     -24.961  -5.270  29.255  0.00  0.00    +0.031 C 
ENDBRANCH   4   7
BRANCH   2  10
ATOM     10  O   UNL A   1     -23.116   2.273  27.761  0.00  0.00    -0.471 OA
ATOM     11  C   UNL A   1     -23.659   2.977  26.877  0.00  0.00    +0.253 C 
ENDBRANCH   2  10
TORSDOF 2
ENDMDL
ENDMDL
