MODEL 1647
MODEL 1
REMARK VINA RESULT:    -8.036      0.000      0.000
REMARK INTER + INTRA:         -12.433
REMARK INTER:                 -10.855
REMARK INTRA:                  -1.578
REMARK UNBOUND:                -1.578
REMARK  Name = No_1647-gen_results/8p0m/2024-11-26-14-13-15/
REMARK  6 active torsions:
REMARK  status: ('A' for Active; 'I' for Inactive)
REMARK    1  A    between atoms: C_2  and  C_7
REMARK    2  A    between atoms: C_4  and  C_12
REMARK    3  A    between atoms: C_19  and  C_20
REMARK    4  A    between atoms: C_20  and  C_22
REMARK    5  A    between atoms: C_22  and  C_23
REMARK    6  A    between atoms: C_25  and  C_31
REMARK                            x       y       z     vdW  Elec       q    Type
REMARK                         _______ _______ _______ _____ _____    ______ ____
ROOT
ATOM      1  C   UNL A   1     -24.614   0.306  27.528  0.00  0.00    -0.006 A 
ATOM      2  C   UNL A   1     -24.315  -0.751  28.267  0.00  0.00    +0.005 A 
ATOM      3  C   UNL A   1     -24.991  -1.812  28.597  0.00  0.00    +0.033 C 
ATOM      4  C   UNL A   1     -22.889  -0.853  28.775  0.00  0.00    +0.136 A 
ATOM      5  F   UNL A   1     -22.520  -1.929  29.256  0.00  0.00    -0.204 F 
ATOM      6  C   UNL A   1     -21.897   0.144  28.546  0.00  0.00    +0.029 A 
ATOM      7  C   UNL A   1     -22.190   1.265  27.822  0.00  0.00    -0.002 A 
ATOM      8  C   UNL A   1     -23.326   1.190  27.060  0.00  0.00    -0.022 A 
ENDROOT
BRANCH   1  12
ATOM      9  C   UNL A   1     -26.751   0.189  24.465  0.00  0.00    +0.004 A 
ATOM     10  C   UNL A   1     -27.745   0.151  24.811  0.00  0.00    +0.054 A 
ATOM     11  C   UNL A   1     -25.695  -0.194  25.479  0.00  0.00    +0.000 A 
ATOM     12  C   UNL A   1     -25.641   0.388  26.500  0.00  0.00    -0.001 A 
ATOM     13  C   UNL A   1     -28.174   0.645  26.181  0.00  0.00    +0.004 A 
ATOM     14  C   UNL A   1     -27.079   0.617  27.119  0.00  0.00    +0.000 A 
BRANCH  10  15
ATOM     15  C   UNL A   1     -28.874   0.062  23.910  0.00  0.00    +0.249 C 
ATOM     16  O   UNL A   1     -29.367  -0.983  23.528  0.00  0.00    -0.270 OA
ATOM     17  N   UNL A   1     -29.555   1.307  23.545  0.00  0.00    -0.273 N 
ATOM     18  C   UNL A   1     -30.813   1.280  22.835  0.00  0.00    +0.115 C 
ATOM     19  C   UNL A   1     -29.040   2.613  23.922  0.00  0.00    +0.115 C 
ENDBRANCH  10  15
ENDBRANCH   1  12
BRANCH   8  20
ATOM     20  C   UNL A   1     -23.655   2.410  26.231  0.00  0.00    +0.026 C 
ATOM     21  C   UNL A   1     -22.941   2.509  25.172  0.00  0.00    +0.005 C 
BRANCH  20  22
ATOM     22  C   UNL A   1     -23.789   3.662  27.080  0.00  0.00    +0.051 C 
BRANCH  22  23
ATOM     23  C   UNL A   1     -24.960   4.528  26.816  0.00  0.00    +0.199 C 
ATOM     24  O   UNL A   1     -24.697   5.708  26.758  0.00  0.00    -0.472 OA
ATOM     25  C   UNL A   1     -25.490   6.719  26.879  0.00  0.00    +0.219 C 
ATOM     26  C   UNL A   1     -26.419   6.616  27.633  0.00  0.00    +0.106 C 
ATOM     27  C   UNL A   1     -27.094   5.310  27.631  0.00  0.00    +0.221 C 
ATOM     28  C   UNL A   1     -25.980   4.234  27.849  0.00  0.00    +0.227 C 
ATOM     29  O   UNL A   1     -27.673   5.030  26.386  0.00  0.00    -0.214 OA
ATOM     30 CL   UNL A   1     -27.734   7.849  27.520  0.00  0.00    -0.081 Cl
ATOM     31  O   UNL A   1     -25.507   4.438  29.148  0.00  0.00    -0.216 OA
BRANCH  25  32
ATOM     32  C   UNL A   1     -25.158   7.976  26.111  0.00  0.00    +0.451 C 
ATOM     33  F   UNL A   1     -25.879   8.357  25.495  0.00  0.00    -0.163 F 
ATOM     34  F   UNL A   1     -24.072   7.634  25.315  0.00  0.00    -0.163 F 
ATOM     35  F   UNL A   1     -24.877   8.878  27.037  0.00  0.00    -0.163 F 
ENDBRANCH  25  32
ENDBRANCH  22  23
ENDBRANCH  20  22
ENDBRANCH   8  20
TORSDOF 6
ENDMDL
ENDMDL
