MODEL 1648
MODEL 1
REMARK VINA RESULT:    -5.641      0.000      0.000
REMARK INTER + INTRA:          -5.641
REMARK INTER:                  -5.641
REMARK INTRA:                   0.000
REMARK UNBOUND:                 0.000
REMARK  Name = No_1648-gen_results/8p0m/2024-11-26-14-13-15/
REMARK  0 active torsions:
REMARK  status: ('A' for Active; 'I' for Inactive)
REMARK                            x       y       z     vdW  Elec       q    Type
REMARK                         _______ _______ _______ _____ _____    ______ ____
ROOT
ATOM      1  O   UNL A   1     -22.399  -1.730  28.879  0.00  0.00    -0.268 OA
ATOM      2  C   UNL A   1     -23.517  -1.832  29.141  0.00  0.00    +0.265 C 
ATOM      3  C   UNL A   1     -24.301  -2.578  29.223  0.00  0.00    +0.051 A 
ATOM      4  N   UNL A   1     -23.960  -0.584  29.787  0.00  0.00    -0.201 NA
ATOM      5  C   UNL A   1     -25.220  -0.468  30.271  0.00  0.00    +0.120 C 
ATOM      6  C   UNL A   1     -23.953  -4.018  28.647  0.00  0.00    +0.004 A 
ATOM      7  C   UNL A   1     -26.070  -1.536  30.221  0.00  0.00    +0.050 C 
ATOM      8  C   UNL A   1     -25.692  -2.660  29.725  0.00  0.00    -0.016 A 
ATOM      9  C   UNL A   1     -24.318  -4.974  28.776  0.00  0.00    +0.000 A 
ATOM     10  C   UNL A   1     -25.807  -5.003  29.320  0.00  0.00    -0.000 A 
ATOM     11  C   UNL A   1     -26.390  -3.902  29.844  0.00  0.00    -0.004 A 
ENDROOT
TORSDOF 0
ENDMDL
ENDMDL
