REMARK  Name = No_1648-gen_results/8p0m/2024-11-26-14-13-15/
REMARK  0 active torsions:
REMARK  status: ('A' for Active; 'I' for Inactive)
REMARK                            x       y       z     vdW  Elec       q    Type
REMARK                         _______ _______ _______ _____ _____    ______ ____
ROOT
ATOM      1  O   UNL A   1     -28.123  -1.335  28.487  0.00  0.00    -0.268 OA
ATOM      2  C   UNL A   1     -27.481  -0.404  28.709  0.00  0.00    +0.265 C 
ATOM      3  C   UNL A   1     -27.190   0.246  29.527  0.00  0.00    +0.051 A 
ATOM      4  N   UNL A   1     -26.602  -0.158  27.552  0.00  0.00    -0.201 NA
ATOM      5  C   UNL A   1     -25.682   0.836  27.585  0.00  0.00    +0.120 C 
ATOM      6  C   UNL A   1     -27.988   0.050  30.888  0.00  0.00    +0.004 A 
ATOM      7  C   UNL A   1     -25.519   1.577  28.721  0.00  0.00    +0.050 C 
ATOM      8  C   UNL A   1     -26.224   1.343  29.770  0.00  0.00    -0.016 A 
ATOM      9  C   UNL A   1     -27.826   0.282  31.880  0.00  0.00    +0.000 A 
ATOM     10  C   UNL A   1     -26.780   1.457  32.082  0.00  0.00    -0.000 A 
ATOM     11  C   UNL A   1     -25.977   1.869  31.076  0.00  0.00    -0.004 A 
ENDROOT
TORSDOF 0
