MODEL 1649
MODEL 1
REMARK VINA RESULT:    -5.459      0.000      0.000
REMARK INTER + INTRA:          -5.821
REMARK INTER:                  -5.778
REMARK INTRA:                  -0.043
REMARK UNBOUND:                -0.043
REMARK  Name = No_1649-gen_results/8p0m/2024-11-26-14-13-15/
REMARK  1 active torsions:
REMARK  status: ('A' for Active; 'I' for Inactive)
REMARK    1  A    between atoms: C_4  and  P_8
REMARK                            x       y       z     vdW  Elec       q    Type
REMARK                         _______ _______ _______ _____ _____    ______ ____
ROOT
ATOM      1  C   UNL A   1     -28.789 -11.666  29.964  0.00  0.00    +0.030 A 
ATOM      2  C   UNL A   1     -29.404 -10.821  30.098  0.00  0.00    +0.140 A 
ATOM      3  C   UNL A   1     -28.054 -12.138  31.198  0.00  0.00    +0.005 A 
ATOM      4  C   UNL A   1     -28.333 -11.535  32.442  0.00  0.00    +0.029 A 
ATOM      5  C   UNL A   1     -29.885 -10.044  31.263  0.00  0.00    +0.030 A 
ATOM      6  C   UNL A   1     -29.235 -10.454  32.418  0.00  0.00    +0.005 A 
ATOM      7  F   UNL A   1     -30.117 -10.381  28.913  0.00  0.00    -0.204 F 
ENDROOT
BRANCH   4   8
ATOM      8  P   UNL A   1     -27.511 -12.033  33.876  0.00  0.00    +0.140 P 
ATOM      9  O   UNL A   1     -26.563 -12.922  33.569  0.00  0.00    -0.354 OA
ATOM     10  O   UNL A   1     -28.528 -12.692  34.817  0.00  0.00    -0.354 OA
ATOM     11  O   UNL A   1     -27.015 -10.755  34.517  0.00  0.00    -0.456 OA
ENDBRANCH   4   8
TORSDOF 1
ENDMDL
ENDMDL
