REMARK  Name = No_1649-gen_results/8p0m/2024-11-26-14-13-15/
REMARK  1 active torsions:
REMARK  status: ('A' for Active; 'I' for Inactive)
REMARK    1  A    between atoms: C_4  and  P_8
REMARK                            x       y       z     vdW  Elec       q    Type
REMARK                         _______ _______ _______ _____ _____    ______ ____
ROOT
ATOM      1  C   UNL A   1     -28.016  -0.814  28.878  0.00  0.00    +0.030 A 
ATOM      2  C   UNL A   1     -28.469  -0.785  29.829  0.00  0.00    +0.140 A 
ATOM      3  C   UNL A   1     -26.504  -0.778  28.877  0.00  0.00    +0.005 A 
ATOM      4  C   UNL A   1     -25.810  -0.853  30.103  0.00  0.00    +0.029 A 
ATOM      5  C   UNL A   1     -27.991  -0.892  31.226  0.00  0.00    +0.030 A 
ATOM      6  C   UNL A   1     -26.604  -0.868  31.265  0.00  0.00    +0.005 A 
ATOM      7  F   UNL A   1     -29.920  -0.833  29.824  0.00  0.00    -0.204 F 
ENDROOT
BRANCH   4   8
ATOM      8  P   UNL A   1     -24.085  -0.805  30.152  0.00  0.00    +0.140 P 
ATOM      9  O   UNL A   1     -23.586  -1.927  29.626  0.00  0.00    -0.354 OA
ATOM     10  O   UNL A   1     -23.642  -0.700  31.617  0.00  0.00    -0.354 OA
ATOM     11  O   UNL A   1     -23.700   0.471  29.436  0.00  0.00    -0.456 OA
ENDBRANCH   4   8
TORSDOF 1
