MODEL 164
MODEL 1
REMARK VINA RESULT:    -7.873      0.000      0.000
REMARK INTER + INTRA:         -10.064
REMARK INTER:                  -9.253
REMARK INTRA:                  -0.811
REMARK UNBOUND:                -0.811
REMARK  Name = No_164-gen_results/8p0m/2024-11-26-14-13-15/
REMARK  3 active torsions:
REMARK  status: ('A' for Active; 'I' for Inactive)
REMARK    1  A    between atoms: C_4  and  C_8
REMARK    2  A    between atoms: C_8  and  C_9
REMARK    3  A    between atoms: C_12  and  C_15
REMARK                            x       y       z     vdW  Elec       q    Type
REMARK                         _______ _______ _______ _____ _____    ______ ____
ROOT
ATOM      1  C   UNL A   1     -23.669  -0.219  28.418  0.00  0.00    -0.018 A 
ATOM      2  C   UNL A   1     -22.329  -0.064  29.007  0.00  0.00    -0.004 A 
ATOM      3  C   UNL A   1     -23.954   0.479  27.250  0.00  0.00    -0.000 A 
ATOM      4  C   UNL A   1     -23.014   1.477  26.788  0.00  0.00    +0.071 A 
ATOM      5  C   UNL A   1     -21.413   0.819  28.460  0.00  0.00    -0.000 A 
ATOM      6  C   UNL A   1     -21.729   1.593  27.418  0.00  0.00    +0.004 A 
ENDROOT
BRANCH   4   7
ATOM      7  C   UNL A   1     -23.319   2.314  25.627  0.00  0.00    +0.419 C 
ATOM      8  F   UNL A   1     -22.439   2.517  24.962  0.00  0.00    -0.166 F 
ATOM      9  F   UNL A   1     -24.306   1.634  24.873  0.00  0.00    -0.166 F 
ATOM     10  F   UNL A   1     -23.895   3.461  26.119  0.00  0.00    -0.166 F 
ENDBRANCH   4   7
BRANCH   1  11
ATOM     11  C   UNL A   1     -24.626  -0.879  29.126  0.00  0.00    +0.045 C 
ATOM     12  C   UNL A   1     -25.993  -0.269  28.681  0.00  0.00    +0.009 C 
BRANCH  11  16
ATOM     13  C   UNL A   1     -23.961  -4.616  28.552  0.00  0.00    +0.029 A 
ATOM     14  C   UNL A   1     -24.880  -4.977  28.922  0.00  0.00    +0.140 A 
ATOM     15  C   UNL A   1     -23.786  -3.155  28.534  0.00  0.00    -0.002 A 
ATOM     16  C   UNL A   1     -24.763  -2.301  29.123  0.00  0.00    -0.018 A 
ATOM     17  C   UNL A   1     -26.013  -4.321  29.630  0.00  0.00    +0.029 A 
ATOM     18  C   UNL A   1     -25.891  -2.964  29.625  0.00  0.00    -0.002 A 
ATOM     19  F   UNL A   1     -25.052  -6.407  28.957  0.00  0.00    -0.204 F 
ENDBRANCH  11  16
ENDBRANCH   1  11
TORSDOF 3
ENDMDL
ENDMDL
