REMARK  Name = No_165-gen_results/8p0m/2024-11-26-14-13-15/
REMARK  3 active torsions:
REMARK  status: ('A' for Active; 'I' for Inactive)
REMARK    1  A    between atoms: C_1  and  C_2
REMARK    2  A    between atoms: C_1  and  C_6
REMARK    3  A    between atoms: C_3  and  C_4
REMARK                            x       y       z     vdW  Elec       q    Type
REMARK                         _______ _______ _______ _____ _____    ______ ____
ROOT
ATOM      1  C   UNL A   1     -27.064  -0.119  28.608  0.00  0.00    -0.021 C 
ATOM      2  C   UNL A   1     -25.792  -0.430  29.076  0.00  0.00    -0.004 C 
ENDROOT
BRANCH   2   3
ATOM      3  C   UNL A   1     -25.576  -1.565  29.936  0.00  0.00    -0.000 C 
ATOM      4  C   UNL A   1     -24.372  -1.942  30.447  0.00  0.00    -0.000 C 
ENDBRANCH   2   3
BRANCH   1   5
ATOM      5  C   UNL A   1     -28.016  -0.814  28.878  0.00  0.00    +0.052 C 
BRANCH   5   6
ATOM      6  C   UNL A   1     -27.964  -1.925  29.790  0.00  0.00    -0.021 C 
ATOM      7  C   UNL A   1     -26.762  -2.305  30.303  0.00  0.00    -0.005 C 
ENDBRANCH   5   6
ENDBRANCH   1   5
TORSDOF 3
