MODEL 1650
MODEL 1
REMARK VINA RESULT:    -5.305      0.000      0.000
REMARK INTER + INTRA:          -5.765
REMARK INTER:                  -5.616
REMARK INTRA:                  -0.150
REMARK UNBOUND:                -0.150
REMARK  Name = No_1650-gen_results/8p0m/2024-11-26-14-13-15/
REMARK  1 active torsions:
REMARK  status: ('A' for Active; 'I' for Inactive)
REMARK    1  A    between atoms: C_4  and  C_7
REMARK                            x       y       z     vdW  Elec       q    Type
REMARK                         _______ _______ _______ _____ _____    ______ ____
ROOT
ATOM      1  C   UNL A   1     -26.598  -3.972  29.848  0.00  0.00    -0.000 A 
ATOM      2  C   UNL A   1     -26.081  -4.862  29.619  0.00  0.00    -0.000 A 
ATOM      3  C   UNL A   1     -25.832  -2.693  29.596  0.00  0.00    -0.000 A 
ATOM      4  C   UNL A   1     -24.576  -2.753  28.956  0.00  0.00    -0.000 A 
ATOM      5  C   UNL A   1     -24.814  -5.195  28.930  0.00  0.00    -0.000 A 
ATOM      6  C   UNL A   1     -24.085  -4.042  28.676  0.00  0.00    -0.000 A 
ENDROOT
BRANCH   4   7
ATOM      7  C   UNL A   1     -23.803  -1.584  28.710  0.00  0.00    -0.005 C 
ATOM      8  C   UNL A   1     -22.742  -1.292  29.338  0.00  0.00    -0.026 C 
ATOM      9  C   UNL A   1     -21.880  -0.152  28.979  0.00  0.00    +0.031 C 
ENDBRANCH   4   7
TORSDOF 1
ENDMDL
ENDMDL
