REMARK  Name = No_1651-gen_results/8p0m/2024-11-26-14-13-15/
REMARK  3 active torsions:
REMARK  status: ('A' for Active; 'I' for Inactive)
REMARK    1  A    between atoms: C_2  and  C_7
REMARK    2  A    between atoms: C_11  and  C_12
REMARK    3  A    between atoms: C_12  and  C_16
REMARK                            x       y       z     vdW  Elec       q    Type
REMARK                         _______ _______ _______ _____ _____    ______ ____
ROOT
ATOM      1  C   UNL A   1     -30.062  -0.839  29.896  0.00  0.00    +0.249 C 
ATOM      2  O   UNL A   1     -30.676  -1.692  30.312  0.00  0.00    -0.270 OA
ATOM      3  N   UNL A   1     -30.616   0.019  28.874  0.00  0.00    -0.276 N 
ATOM      4  C   UNL A   1     -31.994  -0.065  28.627  0.00  0.00    +0.094 C 
ATOM      5  C   UNL A   1     -32.295   0.181  27.358  0.00  0.00    +0.024 C 
ATOM      6  C   UNL A   1     -31.188   0.887  26.542  0.00  0.00    +0.004 C 
ATOM      7  C   UNL A   1     -29.938   1.271  27.057  0.00  0.00    +0.022 C 
ATOM      8  C   UNL A   1     -29.647   0.629  28.124  0.00  0.00    +0.094 C 
ENDROOT
BRANCH   1  10
ATOM      9  C   UNL A   1     -28.016  -0.814  28.878  0.00  0.00    +0.004 A 
ATOM     10  C   UNL A   1     -28.469  -0.785  29.829  0.00  0.00    +0.054 A 
ATOM     11  C   UNL A   1     -26.504  -0.778  28.877  0.00  0.00    +0.000 A 
ATOM     12  C   UNL A   1     -25.810  -0.853  30.103  0.00  0.00    +0.000 A 
ATOM     13  C   UNL A   1     -27.991  -0.892  31.226  0.00  0.00    +0.004 A 
ATOM     14  C   UNL A   1     -26.496  -0.806  31.183  0.00  0.00    +0.000 A 
ENDBRANCH   1  10
BRANCH   5  15
ATOM     15  C   UNL A   1     -33.142  -0.263  26.689  0.00  0.00    +0.028 C 
BRANCH  15  16
ATOM     16  C   UNL A   1     -34.156  -1.085  27.324  0.00  0.00    -0.026 C 
ATOM     17  C   UNL A   1     -35.297  -1.656  26.648  0.00  0.00    -0.005 C 
ENDBRANCH  15  16
ENDBRANCH   5  15
TORSDOF 3
