MODEL 1651
MODEL 1
REMARK VINA RESULT:    -6.287      0.000      0.000
REMARK INTER + INTRA:          -6.981
REMARK INTER:                  -7.390
REMARK INTRA:                   0.409
REMARK UNBOUND:                 0.409
REMARK  Name = No_1651-gen_results/8p0m/2024-11-26-14-13-15/
REMARK  3 active torsions:
REMARK  status: ('A' for Active; 'I' for Inactive)
REMARK    1  A    between atoms: C_2  and  C_7
REMARK    2  A    between atoms: C_11  and  C_12
REMARK    3  A    between atoms: C_12  and  C_16
REMARK                            x       y       z     vdW  Elec       q    Type
REMARK                         _______ _______ _______ _____ _____    ______ ____
ROOT
ATOM      1  C   UNL A   1     -23.558  -1.282  29.291  0.00  0.00    +0.249 C 
ATOM      2  O   UNL A   1     -22.950  -0.832  30.131  0.00  0.00    -0.270 OA
ATOM      3  N   UNL A   1     -23.799  -0.521  28.086  0.00  0.00    -0.276 N 
ATOM      4  C   UNL A   1     -23.044   0.643  27.887  0.00  0.00    +0.094 C 
ATOM      5  C   UNL A   1     -23.716   1.572  27.218  0.00  0.00    +0.024 C 
ATOM      6  C   UNL A   1     -24.967   1.067  26.463  0.00  0.00    +0.004 C 
ATOM      7  C   UNL A   1     -25.403  -0.269  26.446  0.00  0.00    +0.022 C 
ATOM      8  C   UNL A   1     -24.921  -0.939  27.422  0.00  0.00    +0.094 C 
ENDROOT
BRANCH   1  10
ATOM      9  C   UNL A   1     -25.573  -2.127  29.959  0.00  0.00    +0.004 A 
ATOM     10  C   UNL A   1     -24.689  -2.395  29.452  0.00  0.00    +0.054 A 
ATOM     11  C   UNL A   1     -26.602  -3.226  30.098  0.00  0.00    +0.000 A 
ATOM     12  C   UNL A   1     -26.274  -4.536  29.688  0.00  0.00    +0.000 A 
ATOM     13  C   UNL A   1     -24.097  -3.663  28.969  0.00  0.00    +0.004 A 
ATOM     14  C   UNL A   1     -25.161  -4.711  29.080  0.00  0.00    +0.000 A 
ENDBRANCH   1  10
BRANCH   5  15
ATOM     15  C   UNL A   1     -23.674   2.735  27.303  0.00  0.00    +0.028 C 
BRANCH  15  16
ATOM     16  C   UNL A   1     -24.595   3.515  26.496  0.00  0.00    -0.026 C 
ATOM     17  C   UNL A   1     -24.984   4.877  26.773  0.00  0.00    -0.005 C 
ENDBRANCH  15  16
ENDBRANCH   5  15
TORSDOF 3
ENDMDL
ENDMDL
