REMARK  Name = No_1652-gen_results/8p0m/2024-11-26-14-13-15/
REMARK  1 active torsions:
REMARK  status: ('A' for Active; 'I' for Inactive)
REMARK    1  A    between atoms: C_5  and  C_11
REMARK                            x       y       z     vdW  Elec       q    Type
REMARK                         _______ _______ _______ _____ _____    ______ ____
ROOT
ATOM      1  C   UNL A   1     -28.016  -0.814  28.878  0.00  0.00    +0.000 A 
ATOM      2  C   UNL A   1     -27.064  -0.119  28.608  0.00  0.00    +0.000 A 
ATOM      3  C   UNL A   1     -27.001   0.691  27.491  0.00  0.00    +0.000 A 
ATOM      4  C   UNL A   1     -25.855   1.482  27.083  0.00  0.00    +0.007 A 
ATOM      5  C   UNL A   1     -24.690   1.453  27.881  0.00  0.00    +0.080 A 
ATOM      6  C   UNL A   1     -24.738   0.601  29.042  0.00  0.00    +0.007 A 
ATOM      7  C   UNL A   1     -25.823  -0.169  29.389  0.00  0.00    +0.000 A 
ATOM      8  C   UNL A   1     -28.035  -1.496  30.234  0.00  0.00    +0.000 A 
ATOM      9  C   UNL A   1     -26.843  -1.645  30.962  0.00  0.00    +0.000 A 
ATOM     10  C   UNL A   1     -25.747  -0.916  30.593  0.00  0.00    +0.000 A 
ENDROOT
BRANCH   5  11
ATOM     11  C   UNL A   1     -23.501   2.236  27.542  0.00  0.00    +0.388 C 
ATOM     12  O   UNL A   1     -23.387   2.773  26.417  0.00  0.00    -0.241 OA
ATOM     13  O   UNL A   1     -22.416   2.148  28.263  0.00  0.00    -0.241 OA
ENDBRANCH   5  11
TORSDOF 1
