MODEL 1652
MODEL 1
REMARK VINA RESULT:    -6.462      0.000      0.000
REMARK INTER + INTRA:          -6.901
REMARK INTER:                  -6.840
REMARK INTRA:                  -0.061
REMARK UNBOUND:                -0.061
REMARK  Name = No_1652-gen_results/8p0m/2024-11-26-14-13-15/
REMARK  1 active torsions:
REMARK  status: ('A' for Active; 'I' for Inactive)
REMARK    1  A    between atoms: C_5  and  C_11
REMARK                            x       y       z     vdW  Elec       q    Type
REMARK                         _______ _______ _______ _____ _____    ______ ____
ROOT
ATOM      1  C   UNL A   1     -30.744  -9.662  29.602  0.00  0.00    +0.000 A 
ATOM      2  C   UNL A   1     -30.040 -10.234  30.401  0.00  0.00    +0.000 A 
ATOM      3  C   UNL A   1     -29.948  -9.876  31.732  0.00  0.00    +0.000 A 
ATOM      4  C   UNL A   1     -29.062 -10.479  32.711  0.00  0.00    +0.007 A 
ATOM      5  C   UNL A   1     -28.215 -11.533  32.303  0.00  0.00    +0.080 A 
ATOM      6  C   UNL A   1     -28.291 -11.906  30.913  0.00  0.00    +0.007 A 
ATOM      7  C   UNL A   1     -29.112 -11.295  29.995  0.00  0.00    +0.000 A 
ATOM      8  C   UNL A   1     -30.903 -10.282  28.225  0.00  0.00    +0.000 A 
ATOM      9  C   UNL A   1     -29.973 -11.231  27.770  0.00  0.00    +0.000 A 
ATOM     10  C   UNL A   1     -29.122 -11.808  28.672  0.00  0.00    +0.000 A 
ENDROOT
BRANCH   5  11
ATOM     11  C   UNL A   1     -27.306 -12.200  33.237  0.00  0.00    +0.388 C 
ATOM     12  O   UNL A   1     -26.429 -12.991  32.822  0.00  0.00    -0.241 OA
ATOM     13  O   UNL A   1     -27.569 -12.233  34.515  0.00  0.00    -0.241 OA
ENDBRANCH   5  11
TORSDOF 1
ENDMDL
ENDMDL
