MODEL 1653
MODEL 1
REMARK VINA RESULT:    -5.356      0.000      0.000
REMARK INTER + INTRA:          -6.286
REMARK INTER:                  -5.982
REMARK INTRA:                  -0.304
REMARK UNBOUND:                -0.304
REMARK  Name = No_1653-gen_results/8p0m/2024-11-26-14-13-15/
REMARK  2 active torsions:
REMARK  status: ('A' for Active; 'I' for Inactive)
REMARK    1  A    between atoms: C_2  and  C_7
REMARK    2  A    between atoms: C_7  and  C_8
REMARK                            x       y       z     vdW  Elec       q    Type
REMARK                         _______ _______ _______ _____ _____    ______ ____
ROOT
ATOM      1  C   UNL A   1     -24.020  -4.051  28.874  0.00  0.00    -0.004 A 
ATOM      2  C   UNL A   1     -24.290  -2.897  29.115  0.00  0.00    -0.018 A 
ATOM      3  C   UNL A   1     -25.518  -2.547  29.667  0.00  0.00    -0.004 A 
ATOM      4  C   UNL A   1     -26.525  -3.544  29.925  0.00  0.00    -0.000 A 
ATOM      5  C   UNL A   1     -26.137  -4.849  29.594  0.00  0.00    -0.000 A 
ATOM      6  C   UNL A   1     -24.970  -5.125  29.059  0.00  0.00    -0.000 A 
ENDROOT
BRANCH   2   7
ATOM      7  C   UNL A   1     -23.385  -1.738  28.888  0.00  0.00    +0.052 C 
BRANCH   7   8
ATOM      8  C   UNL A   1     -23.363  -0.799  29.291  0.00  0.00    -0.026 C 
ATOM      9  C   UNL A   1     -22.083  -0.070  29.262  0.00  0.00    -0.030 C 
ATOM     10  C   UNL A   1     -20.961  -0.444  28.758  0.00  0.00    +0.030 C 
ENDBRANCH   7   8
ENDBRANCH   2   7
TORSDOF 2
ENDMDL
ENDMDL
