REMARK  Name = No_1654-gen_results/8p0m/2024-11-26-14-13-15/
REMARK  1 active torsions:
REMARK  status: ('A' for Active; 'I' for Inactive)
REMARK    1  A    between atoms: C_4  and  C_7
REMARK                            x       y       z     vdW  Elec       q    Type
REMARK                         _______ _______ _______ _____ _____    ______ ____
ROOT
ATOM      1  C   UNL A   1     -28.016  -0.814  28.878  0.00  0.00    +0.030 A 
ATOM      2  C   UNL A   1     -28.469  -0.785  29.829  0.00  0.00    +0.002 A 
ATOM      3  C   UNL A   1     -27.087   0.290  28.638  0.00  0.00    +0.140 A 
ATOM      4  C   UNL A   1     -26.768   1.027  29.472  0.00  0.00    +0.028 A 
ATOM      5  C   UNL A   1     -28.276   0.027  31.015  0.00  0.00    +0.000 A 
ATOM      6  C   UNL A   1     -27.329   1.054  30.753  0.00  0.00    +0.002 A 
ATOM      7  F   UNL A   1     -26.485   0.204  27.349  0.00  0.00    -0.204 F 
ENDROOT
BRANCH   4   8
ATOM      8  C   UNL A   1     -25.752   2.174  29.250  0.00  0.00    +0.002 A 
ATOM      9  C   UNL A   1     -25.342   2.886  29.913  0.00  0.00    +0.000 A 
ATOM     10  C   UNL A   1     -25.244   2.159  27.808  0.00  0.00    +0.000 A 
ATOM     11  C   UNL A   1     -24.181   2.954  27.428  0.00  0.00    +0.000 A 
ATOM     12  C   UNL A   1     -24.274   3.978  29.673  0.00  0.00    +0.000 A 
ATOM     13  C   UNL A   1     -23.729   3.909  28.413  0.00  0.00    +0.000 A 
ENDBRANCH   4   8
TORSDOF 1
