MODEL 1654
MODEL 1
REMARK VINA RESULT:    -6.699      0.000      0.000
REMARK INTER + INTRA:          -7.473
REMARK INTER:                  -7.091
REMARK INTRA:                  -0.382
REMARK UNBOUND:                -0.382
REMARK  Name = No_1654-gen_results/8p0m/2024-11-26-14-13-15/
REMARK  1 active torsions:
REMARK  status: ('A' for Active; 'I' for Inactive)
REMARK    1  A    between atoms: C_4  and  C_7
REMARK                            x       y       z     vdW  Elec       q    Type
REMARK                         _______ _______ _______ _____ _____    ______ ____
ROOT
ATOM      1  C   UNL A   1     -26.508  -3.971  29.892  0.00  0.00    +0.030 A 
ATOM      2  C   UNL A   1     -26.034  -4.862  29.587  0.00  0.00    +0.002 A 
ATOM      3  C   UNL A   1     -25.680  -2.778  29.715  0.00  0.00    +0.140 A 
ATOM      4  C   UNL A   1     -24.670  -2.800  29.150  0.00  0.00    +0.028 A 
ATOM      5  C   UNL A   1     -24.794  -5.162  28.899  0.00  0.00    +0.000 A 
ATOM      6  C   UNL A   1     -24.046  -3.969  28.702  0.00  0.00    +0.002 A 
ATOM      7  F   UNL A   1     -26.363  -1.596  30.122  0.00  0.00    -0.204 F 
ENDROOT
BRANCH   4   8
ATOM      8  C   UNL A   1     -23.801  -1.541  28.912  0.00  0.00    +0.002 A 
ATOM      9  C   UNL A   1     -22.851  -1.265  29.281  0.00  0.00    +0.000 A 
ATOM     10  C   UNL A   1     -24.473  -0.618  27.896  0.00  0.00    +0.000 A 
ATOM     11  C   UNL A   1     -23.795   0.463  27.370  0.00  0.00    +0.000 A 
ATOM     12  C   UNL A   1     -21.978  -0.027  28.969  0.00  0.00    +0.000 A 
ATOM     13  C   UNL A   1     -22.518   0.757  27.978  0.00  0.00    +0.000 A 
ENDBRANCH   4   8
TORSDOF 1
ENDMDL
ENDMDL
