REMARK  Name = No_1655-gen_results/8p0m/2024-11-26-14-13-15/
REMARK  6 active torsions:
REMARK  status: ('A' for Active; 'I' for Inactive)
REMARK    1  A    between atoms: C_4  and  C_7
REMARK    2  A    between atoms: C_7  and  C_8
REMARK    3  A    between atoms: C_8  and  C_11
REMARK    4  A    between atoms: C_9  and  C_10
REMARK    5  A    between atoms: C_11  and  C_12
REMARK    6  A    between atoms: C_14  and  C_15
REMARK                            x       y       z     vdW  Elec       q    Type
REMARK                         _______ _______ _______ _____ _____    ______ ____
ROOT
ATOM      1  C   UNL A   1     -23.706   0.096  29.844  0.00  0.00    -0.040 C 
ATOM      2  C   UNL A   1     -22.428   0.116  29.217  0.00  0.00    -0.034 C 
ENDROOT
BRANCH   2   3
ATOM      3  C   UNL A   1     -21.815   1.294  28.877  0.00  0.00    +0.025 C 
ATOM      4  C   UNL A   1     -20.767   1.214  27.864  0.00  0.00    +0.005 C 
ENDBRANCH   2   3
BRANCH   1   5
ATOM      5  C   UNL A   1     -24.381  -1.108  30.085  0.00  0.00    +0.048 C 
BRANCH   5   9
ATOM      6  C   UNL A   1     -28.016  -0.814  28.878  0.00  0.00    -0.000 A 
ATOM      7  C   UNL A   1     -28.469  -0.785  29.829  0.00  0.00    -0.000 A 
ATOM      8  C   UNL A   1     -26.546  -0.876  28.850  0.00  0.00    -0.004 A 
ATOM      9  C   UNL A   1     -25.804  -1.032  30.057  0.00  0.00    -0.018 A 
ATOM     10  C   UNL A   1     -27.944  -0.987  31.207  0.00  0.00    -0.000 A 
ATOM     11  C   UNL A   1     -26.582  -1.039  31.223  0.00  0.00    -0.004 A 
ENDBRANCH   5   9
ENDBRANCH   1   5
BRANCH   1  12
ATOM     12  C   UNL A   1     -24.197   1.377  30.271  0.00  0.00    +0.048 C 
BRANCH  12  13
ATOM     13  C   UNL A   1     -25.418   1.420  31.057  0.00  0.00    -0.022 C 
ATOM     14  C   UNL A   1     -25.788   2.898  31.395  0.00  0.00    -0.005 C 
BRANCH  14  15
ATOM     15  C   UNL A   1     -26.816   3.266  30.995  0.00  0.00    -0.005 C 
ATOM     16  C   UNL A   1     -27.220   4.692  31.222  0.00  0.00    -0.026 C 
ATOM     17  C   UNL A   1     -28.414   5.275  30.737  0.00  0.00    +0.031 C 
ENDBRANCH  14  15
ENDBRANCH  12  13
ENDBRANCH   1  12
TORSDOF 6
