MODEL 1655
MODEL 1
REMARK VINA RESULT:    -5.976      0.000      0.000
REMARK INTER + INTRA:         -10.228
REMARK INTER:                  -8.072
REMARK INTRA:                  -2.156
REMARK UNBOUND:                -2.156
REMARK  Name = No_1655-gen_results/8p0m/2024-11-26-14-13-15/
REMARK  6 active torsions:
REMARK  status: ('A' for Active; 'I' for Inactive)
REMARK    1  A    between atoms: C_4  and  C_7
REMARK    2  A    between atoms: C_7  and  C_8
REMARK    3  A    between atoms: C_8  and  C_11
REMARK    4  A    between atoms: C_9  and  C_10
REMARK    5  A    between atoms: C_11  and  C_12
REMARK    6  A    between atoms: C_14  and  C_15
REMARK                            x       y       z     vdW  Elec       q    Type
REMARK                         _______ _______ _______ _____ _____    ______ ____
ROOT
ATOM      1  C   UNL A   1     -24.588  -1.492  28.786  0.00  0.00    -0.040 C 
ATOM      2  C   UNL A   1     -25.005  -2.852  28.837  0.00  0.00    -0.034 C 
ENDROOT
BRANCH   2   3
ATOM      3  C   UNL A   1     -24.098  -3.881  28.815  0.00  0.00    +0.025 C 
ATOM      4  C   UNL A   1     -24.641  -5.230  28.942  0.00  0.00    +0.005 C 
ENDBRANCH   2   3
BRANCH   1   5
ATOM      5  C   UNL A   1     -25.517  -0.448  28.691  0.00  0.00    +0.048 C 
BRANCH   5   9
ATOM      6  C   UNL A   1     -25.705  -0.214  24.862  0.00  0.00    -0.000 A 
ATOM      7  C   UNL A   1     -26.305   0.651  24.812  0.00  0.00    -0.000 A 
ATOM      8  C   UNL A   1     -25.316  -0.668  26.206  0.00  0.00    -0.004 A 
ATOM      9  C   UNL A   1     -25.853  -0.040  27.367  0.00  0.00    -0.018 A 
ATOM     10  C   UNL A   1     -27.030   1.441  25.843  0.00  0.00    -0.000 A 
ATOM     11  C   UNL A   1     -26.687   1.055  27.105  0.00  0.00    -0.004 A 
ENDBRANCH   5   9
ENDBRANCH   1   5
BRANCH   1  12
ATOM     12  C   UNL A   1     -23.173  -1.281  28.918  0.00  0.00    +0.048 C 
BRANCH  12  13
ATOM     13  C   UNL A   1     -22.705   0.041  29.295  0.00  0.00    -0.022 C 
ATOM     14  C   UNL A   1     -22.074   0.761  28.062  0.00  0.00    -0.005 C 
BRANCH  14  15
ATOM     15  C   UNL A   1     -22.584   1.756  27.742  0.00  0.00    -0.005 C 
ATOM     16  C   UNL A   1     -22.952   1.957  26.302  0.00  0.00    -0.026 C 
ATOM     17  C   UNL A   1     -23.625   3.094  25.798  0.00  0.00    +0.031 C 
ENDBRANCH  14  15
ENDBRANCH  12  13
ENDBRANCH   1  12
TORSDOF 6
ENDMDL
ENDMDL
