REMARK  Name = No_1656-gen_results/8p0m/2024-11-26-14-13-15/
REMARK  2 active torsions:
REMARK  status: ('A' for Active; 'I' for Inactive)
REMARK    1  A    between atoms: C_3  and  N_5
REMARK    2  A    between atoms: C_9  and  C_15
REMARK                            x       y       z     vdW  Elec       q    Type
REMARK                         _______ _______ _______ _____ _____    ______ ____
ROOT
ATOM      1  N   UNL A   1     -27.704   1.240  28.141  0.00  0.00    -0.271 N 
ATOM      2  C   UNL A   1     -27.899   1.311  26.815  0.00  0.00    +0.098 C 
ATOM      3  C   UNL A   1     -26.787   1.613  25.948  0.00  0.00    +0.025 C 
ATOM      4  C   UNL A   1     -25.639   1.546  26.355  0.00  0.00    +0.012 C 
ATOM      5  C   UNL A   1     -25.121   1.540  27.244  0.00  0.00    +0.085 C 
ATOM      6  C   UNL A   1     -26.209   1.269  28.538  0.00  0.00    +0.226 C 
ATOM      7  O   UNL A   1     -25.784   1.103  29.676  0.00  0.00    -0.275 OA
ENDROOT
BRANCH   1  10
ATOM      8  O   UNL A   1     -28.123  -1.335  28.487  0.00  0.00    -0.272 OA
ATOM      9  C   UNL A   1     -28.521  -0.436  29.078  0.00  0.00    +0.260 C 
ATOM     10  C   UNL A   1     -28.589   0.592  28.946  0.00  0.00    +0.154 C 
ATOM     11  N   UNL A   1     -29.375  -0.943  30.266  0.00  0.00    -0.204 NA
ATOM     12  C   UNL A   1     -29.296   1.728  29.777  0.00  0.00    +0.031 C 
ATOM     13  C   UNL A   1     -30.112  -0.128  31.073  0.00  0.00    +0.115 C 
ATOM     14  C   UNL A   1     -30.004   1.213  30.878  0.00  0.00    +0.026 C 
ENDBRANCH   1  10
BRANCH   2  15
ATOM     15  C   UNL A   1     -29.223   1.220  26.353  0.00  0.00    -0.011 C 
ATOM     16  C   UNL A   1     -30.066   2.301  26.605  0.00  0.00    -0.029 C 
ATOM     17  C   UNL A   1     -31.419   2.274  26.201  0.00  0.00    +0.030 C 
ENDBRANCH   2  15
TORSDOF 2
