MODEL 1656
MODEL 1
REMARK VINA RESULT:    -6.337      0.000      0.000
REMARK INTER + INTRA:          -7.067
REMARK INTER:                  -7.078
REMARK INTRA:                   0.011
REMARK UNBOUND:                 0.011
REMARK  Name = No_1656-gen_results/8p0m/2024-11-26-14-13-15/
REMARK  2 active torsions:
REMARK  status: ('A' for Active; 'I' for Inactive)
REMARK    1  A    between atoms: C_3  and  N_5
REMARK    2  A    between atoms: C_9  and  C_15
REMARK                            x       y       z     vdW  Elec       q    Type
REMARK                         _______ _______ _______ _____ _____    ______ ____
ROOT
ATOM      1  N   UNL A   1     -24.925  -1.102  29.744  0.00  0.00    -0.271 N 
ATOM      2  C   UNL A   1     -24.941  -0.106  28.845  0.00  0.00    +0.098 C 
ATOM      3  C   UNL A   1     -24.597   1.232  29.260  0.00  0.00    +0.025 C 
ATOM      4  C   UNL A   1     -24.044   1.434  30.328  0.00  0.00    +0.012 C 
ATOM      5  C   UNL A   1     -23.889   0.967  31.232  0.00  0.00    +0.085 C 
ATOM      6  C   UNL A   1     -24.294  -0.691  31.096  0.00  0.00    +0.226 C 
ATOM      7  O   UNL A   1     -24.067  -1.459  32.024  0.00  0.00    -0.275 OA
ENDROOT
BRANCH   1  10
ATOM      8  O   UNL A   1     -22.909  -2.471  28.751  0.00  0.00    -0.272 OA
ATOM      9  C   UNL A   1     -23.934  -2.829  29.121  0.00  0.00    +0.260 C 
ATOM     10  C   UNL A   1     -24.853  -2.402  29.349  0.00  0.00    +0.154 C 
ATOM     11  N   UNL A   1     -24.002  -4.373  29.023  0.00  0.00    -0.204 NA
ATOM     12  C   UNL A   1     -26.254  -3.021  29.717  0.00  0.00    +0.031 C 
ATOM     13  C   UNL A   1     -25.135  -5.098  29.243  0.00  0.00    +0.115 C 
ATOM     14  C   UNL A   1     -26.237  -4.427  29.671  0.00  0.00    +0.026 C 
ENDBRANCH   1  10
BRANCH   2  15
ATOM     15  C   UNL A   1     -25.432  -0.404  27.563  0.00  0.00    -0.011 C 
ATOM     16  C   UNL A   1     -24.866   0.276  26.485  0.00  0.00    -0.029 C 
ATOM     17  C   UNL A   1     -25.325   0.056  25.168  0.00  0.00    +0.030 C 
ENDBRANCH   2  15
TORSDOF 2
ENDMDL
ENDMDL
