REMARK  Name = No_1657-gen_results/8p0m/2024-11-26-14-13-15/
REMARK  1 active torsions:
REMARK  status: ('A' for Active; 'I' for Inactive)
REMARK    1  A    between atoms: C_2  and  C_5
REMARK                            x       y       z     vdW  Elec       q    Type
REMARK                         _______ _______ _______ _____ _____    ______ ____
ROOT
ATOM      1  C   UNL A   1     -28.016  -0.814  28.878  0.00  0.00    +0.018 A 
ATOM      2  C   UNL A   1     -28.469  -0.785  29.829  0.00  0.00    +0.069 A 
ATOM      3  C   UNL A   1     -26.504  -0.778  28.877  0.00  0.00    +0.068 A 
ATOM      4  C   UNL A   1     -25.810  -0.853  30.103  0.00  0.00    +0.068 A 
ATOM      5  C   UNL A   1     -26.567  -0.885  31.252  0.00  0.00    +0.012 A 
ATOM      6  C   UNL A   1     -27.941  -0.907  31.185  0.00  0.00    +0.006 A 
ATOM      7 CL   UNL A   1     -25.523  -0.703  27.471  0.00  0.00    -0.081 Cl
ATOM      8 CL   UNL A   1     -24.100  -0.802  30.169  0.00  0.00    -0.081 Cl
ENDROOT
BRANCH   2   9
ATOM      9  C   UNL A   1     -30.014  -0.841  29.851  0.00  0.00    +0.334 C 
ATOM     10  O   UNL A   1     -30.539  -0.429  28.996  0.00  0.00    -0.254 OA
ATOM     11  F   UNL A   1     -30.694  -1.423  30.867  0.00  0.00    -0.159 F 
ENDBRANCH   2   9
TORSDOF 1
