MODEL 1657
MODEL 1
REMARK VINA RESULT:    -5.030      0.000      0.000
REMARK INTER + INTRA:          -5.381
REMARK INTER:                  -5.324
REMARK INTRA:                  -0.057
REMARK UNBOUND:                -0.057
REMARK  Name = No_1657-gen_results/8p0m/2024-11-26-14-13-15/
REMARK  1 active torsions:
REMARK  status: ('A' for Active; 'I' for Inactive)
REMARK    1  A    between atoms: C_2  and  C_5
REMARK                            x       y       z     vdW  Elec       q    Type
REMARK                         _______ _______ _______ _____ _____    ______ ____
ROOT
ATOM      1  C   UNL A   1     -23.830  -2.982  28.896  0.00  0.00    +0.018 A 
ATOM      2  C   UNL A   1     -24.019  -1.997  29.219  0.00  0.00    +0.069 A 
ATOM      3  C   UNL A   1     -24.925  -3.983  29.191  0.00  0.00    +0.068 A 
ATOM      4  C   UNL A   1     -26.148  -3.531  29.729  0.00  0.00    +0.068 A 
ATOM      5  C   UNL A   1     -26.248  -2.190  30.022  0.00  0.00    +0.012 A 
ATOM      6  C   UNL A   1     -25.211  -1.332  29.736  0.00  0.00    +0.006 A 
ATOM      7 CL   UNL A   1     -24.829  -5.667  28.874  0.00  0.00    -0.081 Cl
ATOM      8 CL   UNL A   1     -27.419  -4.617  30.099  0.00  0.00    -0.081 Cl
ENDROOT
BRANCH   2   9
ATOM      9  C   UNL A   1     -22.920  -0.954  28.907  0.00  0.00    +0.334 C 
ATOM     10  O   UNL A   1     -23.235  -0.018  28.460  0.00  0.00    -0.254 OA
ATOM     11  F   UNL A   1     -21.621  -1.170  29.221  0.00  0.00    -0.159 F 
ENDBRANCH   2   9
TORSDOF 1
ENDMDL
ENDMDL
