MODEL 1658
MODEL 1
REMARK VINA RESULT:    -7.746      0.000      0.000
REMARK INTER + INTRA:          -9.850
REMARK INTER:                  -9.104
REMARK INTRA:                  -0.746
REMARK UNBOUND:                -0.746
REMARK  Name = No_1658-gen_results/8p0m/2024-11-26-14-13-15/
REMARK  3 active torsions:
REMARK  status: ('A' for Active; 'I' for Inactive)
REMARK    1  A    between atoms: C_2  and  C_3
REMARK    2  A    between atoms: C_3  and  C_4
REMARK    3  A    between atoms: C_3  and  C_10
REMARK                            x       y       z     vdW  Elec       q    Type
REMARK                         _______ _______ _______ _____ _____    ______ ____
ROOT
ATOM      1  N   UNL A   1     -23.616   0.000  28.873  0.00  0.00    -0.221 NA
ATOM      2  C   UNL A   1     -24.578  -0.447  28.940  0.00  0.00    +0.173 C 
ATOM      3  C   UNL A   1     -23.371   0.808  27.715  0.00  0.00    +0.064 A 
ATOM      4  C   UNL A   1     -22.153   1.430  27.514  0.00  0.00    +0.016 A 
ATOM      5  C   UNL A   1     -21.980   2.165  26.232  0.00  0.00    +0.001 A 
ATOM      6  C   UNL A   1     -23.045   2.469  25.435  0.00  0.00    -0.000 A 
ATOM      7  C   UNL A   1     -24.268   1.920  25.697  0.00  0.00    -0.002 A 
ATOM      8  C   UNL A   1     -24.466   1.111  26.824  0.00  0.00    +0.010 A 
ATOM      9  N   UNL A   1     -25.572  -0.463  27.944  0.00  0.00    -0.193 NA
ATOM     10  C   UNL A   1     -25.606   0.342  27.088  0.00  0.00    +0.118 C 
ENDROOT
BRANCH   2  11
ATOM     11  C   UNL A   1     -24.836  -1.379  29.886  0.00  0.00    +0.080 C 
BRANCH  11  12
ATOM     12  C   UNL A   1     -24.885  -2.804  29.628  0.00  0.00    -0.015 A 
ATOM     13  C   UNL A   1     -26.112  -3.474  29.968  0.00  0.00    -0.004 A 
ATOM     14  C   UNL A   1     -26.262  -4.787  29.653  0.00  0.00    -0.000 A 
ATOM     15  C   UNL A   1     -25.238  -5.458  28.983  0.00  0.00    -0.000 A 
ATOM     16  C   UNL A   1     -24.065  -4.872  28.631  0.00  0.00    -0.000 A 
ATOM     17  C   UNL A   1     -23.933  -3.496  28.929  0.00  0.00    -0.004 A 
ENDBRANCH  11  12
BRANCH  11  18
ATOM     18  C   UNL A   1     -25.015  -0.993  31.222  0.00  0.00    -0.024 C 
ATOM     19  C   UNL A   1     -23.884  -1.306  32.066  0.00  0.00    -0.030 C 
ATOM     20  C   UNL A   1     -24.067  -0.912  33.464  0.00  0.00    +0.030 C 
ENDBRANCH  11  18
ENDBRANCH   2  11
TORSDOF 3
ENDMDL
ENDMDL
