REMARK  Name = No_1658-gen_results/8p0m/2024-11-26-14-13-15/
REMARK  3 active torsions:
REMARK  status: ('A' for Active; 'I' for Inactive)
REMARK    1  A    between atoms: C_2  and  C_3
REMARK    2  A    between atoms: C_3  and  C_4
REMARK    3  A    between atoms: C_3  and  C_10
REMARK                            x       y       z     vdW  Elec       q    Type
REMARK                         _______ _______ _______ _____ _____    ______ ____
ROOT
ATOM      1  N   UNL A   1     -28.054  -1.050  28.725  0.00  0.00    -0.221 NA
ATOM      2  C   UNL A   1     -27.746  -0.073  29.010  0.00  0.00    +0.173 C 
ATOM      3  C   UNL A   1     -28.447  -1.926  29.789  0.00  0.00    +0.064 A 
ATOM      4  C   UNL A   1     -28.854  -3.224  29.541  0.00  0.00    +0.016 A 
ATOM      5  C   UNL A   1     -29.147  -4.072  30.727  0.00  0.00    +0.001 A 
ATOM      6  C   UNL A   1     -29.302  -3.530  31.970  0.00  0.00    -0.000 A 
ATOM      7  C   UNL A   1     -28.983  -2.220  32.184  0.00  0.00    -0.002 A 
ATOM      8  C   UNL A   1     -28.575  -1.397  31.126  0.00  0.00    +0.010 A 
ATOM      9  N   UNL A   1     -27.531   0.396  30.319  0.00  0.00    -0.193 NA
ATOM     10  C   UNL A   1     -28.039  -0.109  31.251  0.00  0.00    +0.118 C 
ENDROOT
BRANCH   2  11
ATOM     11  C   UNL A   1     -27.174   0.756  28.107  0.00  0.00    +0.080 C 
BRANCH  11  12
ATOM     12  C   UNL A   1     -25.820   1.261  28.215  0.00  0.00    -0.015 A 
ATOM     13  C   UNL A   1     -25.254   1.294  29.538  0.00  0.00    -0.004 A 
ATOM     14  C   UNL A   1     -23.953   1.655  29.695  0.00  0.00    -0.000 A 
ATOM     15  C   UNL A   1     -23.181   1.961  28.574  0.00  0.00    -0.000 A 
ATOM     16  C   UNL A   1     -23.662   1.937  27.305  0.00  0.00    -0.000 A 
ATOM     17  C   UNL A   1     -25.005   1.524  27.147  0.00  0.00    -0.004 A 
ENDBRANCH  11  12
BRANCH  11  18
ATOM     18  C   UNL A   1     -27.874   1.127  26.950  0.00  0.00    -0.024 C 
ATOM     19  C   UNL A   1     -28.972   0.242  26.634  0.00  0.00    -0.030 C 
ATOM     20  C   UNL A   1     -29.702   0.620  25.423  0.00  0.00    +0.030 C 
ENDBRANCH  11  18
ENDBRANCH   2  11
TORSDOF 3
