MODEL 1659
MODEL 1
REMARK VINA RESULT:    -6.577      0.000      0.000
REMARK INTER + INTRA:         -11.136
REMARK INTER:                  -8.884
REMARK INTRA:                  -2.252
REMARK UNBOUND:                -2.252
REMARK  Name = No_1659-gen_results/8p0m/2024-11-26-14-13-15/
REMARK  6 active torsions:
REMARK  status: ('A' for Active; 'I' for Inactive)
REMARK    1  A    between atoms: C_9  and  C_10
REMARK    2  A    between atoms: N_12  and  C_14
REMARK    3  A    between atoms: C_14  and  C_16
REMARK    4  A    between atoms: C_17  and  C_18
REMARK    5  A    between atoms: C_19  and  C_20
REMARK    6  A    between atoms: C_21  and  C_22
REMARK                            x       y       z     vdW  Elec       q    Type
REMARK                         _______ _______ _______ _____ _____    ______ ____
ROOT
ATOM      1  C   UNL A   1     -30.796 -10.750  10.997  0.00  0.00    +0.074 C 
ATOM      2  C   UNL A   1     -31.491  -9.616  10.839  0.00  0.00    +0.018 C 
ENDROOT
BRANCH   1   4
ATOM      3  C   UNL A   1     -30.902 -12.628  12.293  0.00  0.00    +0.269 C 
ATOM      4  N   UNL A   1     -30.937 -11.505  12.185  0.00  0.00    -0.175 NA
ATOM      5  O   UNL A   1     -30.893 -13.178  13.594  0.00  0.00    -0.268 OA
BRANCH   3  14
ATOM      6  C   UNL A   1     -31.105 -16.126   7.973  0.00  0.00    +0.000 A 
ATOM      7  C   UNL A   1     -30.216 -16.515   7.562  0.00  0.00    +0.000 A 
ATOM      8  C   UNL A   1     -31.071 -15.683   9.314  0.00  0.00    +0.000 A 
ATOM      9  C   UNL A   1     -30.106 -15.621   9.935  0.00  0.00    +0.000 A 
ATOM     10  C   UNL A   1     -28.839 -16.070   9.453  0.00  0.00    +0.000 A 
ATOM     11  C   UNL A   1     -28.873 -16.520   8.139  0.00  0.00    +0.000 A 
ATOM     12  C   UNL A   1     -32.387 -15.134   9.934  0.00  0.00    +0.000 A 
ATOM     13  C   UNL A   1     -32.284 -13.961  10.673  0.00  0.00    +0.005 A 
ATOM     14  C   UNL A   1     -31.082 -13.727  11.399  0.00  0.00    +0.055 A 
ATOM     15  C   UNL A   1     -29.876 -14.521  10.979  0.00  0.00    +0.005 A 
ENDBRANCH   3  14
ENDBRANCH   1   4
BRANCH   1  16
ATOM     16  C   UNL A   1     -29.783 -10.991  10.097  0.00  0.00    +0.017 C 
ATOM     17  C   UNL A   1     -29.957 -11.620   8.825  0.00  0.00    +0.001 C 
BRANCH  17  18
ATOM     18  C   UNL A   1     -28.737 -11.817   8.079  0.00  0.00    +0.000 C 
ATOM     19  C   UNL A   1     -28.551 -12.948   7.205  0.00  0.00    +0.000 C 
BRANCH  19  20
ATOM     20  C   UNL A   1     -27.379 -12.976   6.455  0.00  0.00    +0.000 C 
ATOM     21  C   UNL A   1     -26.341 -13.948   6.918  0.00  0.00    +0.000 C 
BRANCH  21  22
ATOM     22  C   UNL A   1     -25.143 -13.919   6.209  0.00  0.00    +0.000 A 
ATOM     23  C   UNL A   1     -24.826 -12.917   5.462  0.00  0.00    +0.000 A 
ATOM     24  C   UNL A   1     -23.521 -12.807   4.927  0.00  0.00    +0.000 A 
ATOM     25  C   UNL A   1     -22.582 -13.821   5.168  0.00  0.00    +0.000 A 
ATOM     26  C   UNL A   1     -22.904 -14.898   5.939  0.00  0.00    +0.000 A 
ATOM     27  C   UNL A   1     -24.181 -14.970   6.495  0.00  0.00    +0.000 A 
ENDBRANCH  21  22
ENDBRANCH  19  20
ENDBRANCH  17  18
ENDBRANCH   1  16
TORSDOF 6
ENDMDL
ENDMDL
