REMARK  Name = No_1659-gen_results/8p0m/2024-11-26-14-13-15/
REMARK  6 active torsions:
REMARK  status: ('A' for Active; 'I' for Inactive)
REMARK    1  A    between atoms: C_9  and  C_10
REMARK    2  A    between atoms: N_12  and  C_14
REMARK    3  A    between atoms: C_14  and  C_16
REMARK    4  A    between atoms: C_17  and  C_18
REMARK    5  A    between atoms: C_19  and  C_20
REMARK    6  A    between atoms: C_21  and  C_22
REMARK                            x       y       z     vdW  Elec       q    Type
REMARK                         _______ _______ _______ _____ _____    ______ ____
ROOT
ATOM      1  C   UNL A   1     -21.945   0.204  28.830  0.00  0.00    +0.074 C 
ATOM      2  C   UNL A   1     -20.788  -0.438  28.620  0.00  0.00    +0.018 C 
ENDROOT
BRANCH   1   4
ATOM      3  C   UNL A   1     -23.235   1.878  27.963  0.00  0.00    +0.269 C 
ATOM      4  N   UNL A   1     -22.226   1.400  28.128  0.00  0.00    -0.175 NA
ATOM      5  O   UNL A   1     -23.282   3.164  27.381  0.00  0.00    -0.268 OA
BRANCH   3  14
ATOM      6  C   UNL A   1     -28.016  -0.814  28.878  0.00  0.00    +0.000 A 
ATOM      7  C   UNL A   1     -28.469  -0.785  29.829  0.00  0.00    +0.000 A 
ATOM      8  C   UNL A   1     -27.136   0.236  28.535  0.00  0.00    +0.000 A 
ATOM      9  C   UNL A   1     -26.805   1.051  29.276  0.00  0.00    +0.000 A 
ATOM     10  C   UNL A   1     -27.316   1.149  30.605  0.00  0.00    +0.000 A 
ATOM     11  C   UNL A   1     -28.194   0.125  30.939  0.00  0.00    +0.000 A 
ATOM     12  C   UNL A   1     -26.486   0.212  27.123  0.00  0.00    +0.000 A 
ATOM     13  C   UNL A   1     -25.126   0.493  27.059  0.00  0.00    +0.005 A 
ATOM     14  C   UNL A   1     -24.584   1.411  28.003  0.00  0.00    +0.055 A 
ATOM     15  C   UNL A   1     -25.400   1.666  29.239  0.00  0.00    +0.005 A 
ENDBRANCH   3  14
ENDBRANCH   1   4
BRANCH   1  16
ATOM     16  C   UNL A   1     -22.694  -0.199  29.912  0.00  0.00    +0.017 C 
ATOM     17  C   UNL A   1     -22.514  -1.432  30.612  0.00  0.00    +0.001 C 
BRANCH  17  18
ATOM     18  C   UNL A   1     -23.458  -1.661  31.680  0.00  0.00    +0.000 C 
ATOM     19  C   UNL A   1     -24.569  -0.774  31.920  0.00  0.00    +0.000 C 
BRANCH  19  20
ATOM     20  C   UNL A   1     -25.473  -1.153  32.907  0.00  0.00    +0.000 C 
ATOM     21  C   UNL A   1     -26.609  -0.208  33.138  0.00  0.00    +0.000 C 
BRANCH  21  22
ATOM     22  C   UNL A   1     -27.468  -0.556  34.177  0.00  0.00    +0.000 A 
ATOM     23  C   UNL A   1     -28.740  -0.363  34.094  0.00  0.00    +0.000 A 
ATOM     24  C   UNL A   1     -29.613  -0.917  35.060  0.00  0.00    +0.000 A 
ATOM     25  C   UNL A   1     -29.087  -1.636  36.143  0.00  0.00    +0.000 A 
ATOM     26  C   UNL A   1     -27.744  -1.834  36.259  0.00  0.00    +0.000 A 
ATOM     27  C   UNL A   1     -26.900  -1.319  35.276  0.00  0.00    +0.000 A 
ENDBRANCH  21  22
ENDBRANCH  19  20
ENDBRANCH  17  18
ENDBRANCH   1  16
TORSDOF 6
