MODEL 165
MODEL 1
REMARK VINA RESULT:    -3.822      0.000      0.000
REMARK INTER + INTRA:          -4.685
REMARK INTER:                  -4.492
REMARK INTRA:                  -0.193
REMARK UNBOUND:                -0.193
REMARK  Name = No_165-gen_results/8p0m/2024-11-26-14-13-15/
REMARK  3 active torsions:
REMARK  status: ('A' for Active; 'I' for Inactive)
REMARK    1  A    between atoms: C_1  and  C_2
REMARK    2  A    between atoms: C_1  and  C_6
REMARK    3  A    between atoms: C_3  and  C_4
REMARK                            x       y       z     vdW  Elec       q    Type
REMARK                         _______ _______ _______ _____ _____    ______ ____
ROOT
ATOM      1  C   UNL A   1     -24.676  -2.200  28.562  0.00  0.00    -0.021 C 
ATOM      2  C   UNL A   1     -23.905  -1.045  28.485  0.00  0.00    -0.004 C 
ENDROOT
BRANCH   2   3
ATOM      3  C   UNL A   1     -22.623  -0.965  29.136  0.00  0.00    -0.000 C 
ATOM      4  C   UNL A   1     -22.349  -0.210  30.235  0.00  0.00    -0.000 C 
ENDBRANCH   2   3
BRANCH   1   5
ATOM      5  C   UNL A   1     -24.275  -3.180  29.145  0.00  0.00    +0.052 C 
BRANCH   5   6
ATOM      6  C   UNL A   1     -24.117  -4.470  28.528  0.00  0.00    -0.021 C 
ATOM      7  C   UNL A   1     -24.841  -5.522  28.998  0.00  0.00    -0.005 C 
ENDBRANCH   5   6
ENDBRANCH   1   5
TORSDOF 3
ENDMDL
ENDMDL
