MODEL 1660
MODEL 1
REMARK VINA RESULT:    -5.835      0.000      0.000
REMARK INTER + INTRA:          -5.835
REMARK INTER:                  -5.835
REMARK INTRA:                   0.000
REMARK UNBOUND:                 0.000
REMARK  Name = No_1660-gen_results/8p0m/2024-11-26-14-13-15/
REMARK  0 active torsions:
REMARK  status: ('A' for Active; 'I' for Inactive)
REMARK                            x       y       z     vdW  Elec       q    Type
REMARK                         _______ _______ _______ _____ _____    ______ ____
ROOT
ATOM      1  C   UNL A   1     -26.431  -3.588  29.923  0.00  0.00    -0.004 A 
ATOM      2  C   UNL A   1     -26.272  -4.595  29.658  0.00  0.00    -0.000 A 
ATOM      3  C   UNL A   1     -25.360  -2.684  29.752  0.00  0.00    -0.018 A 
ATOM      4  C   UNL A   1     -24.370  -2.966  29.237  0.00  0.00    -0.004 A 
ATOM      5  C   UNL A   1     -25.106  -5.204  29.017  0.00  0.00    -0.000 A 
ATOM      6  C   UNL A   1     -23.177  -2.027  28.971  0.00  0.00    -0.000 C 
ATOM      7  C   UNL A   1     -24.091  -4.298  28.810  0.00  0.00    -0.000 A 
ATOM      8  C   UNL A   1     -23.204  -0.801  29.043  0.00  0.00    -0.000 C 
ATOM      9  C   UNL A   1     -24.343  -0.074  28.876  0.00  0.00    -0.004 C 
ATOM     10  C   UNL A   1     -25.330  -0.524  28.131  0.00  0.00    -0.021 C 
ATOM     11  C   UNL A   1     -26.038  -1.635  28.923  0.00  0.00    +0.052 C 
ENDROOT
TORSDOF 0
ENDMDL
ENDMDL
