REMARK  Name = No_1661-gen_results/8p0m/2024-11-26-14-13-15/
REMARK  1 active torsions:
REMARK  status: ('A' for Active; 'I' for Inactive)
REMARK    1  A    between atoms: C_2  and  C_8
REMARK                            x       y       z     vdW  Elec       q    Type
REMARK                         _______ _______ _______ _____ _____    ______ ____
ROOT
ATOM      1  C   UNL A   1     -28.016  -0.814  28.878  0.00  0.00    +0.014 A 
ATOM      2  C   UNL A   1     -28.469  -0.785  29.829  0.00  0.00    +0.080 A 
ATOM      3  C   UNL A   1     -27.136   0.236  28.535  0.00  0.00    +0.045 A 
ATOM      4  C   UNL A   1     -26.875   1.282  29.398  0.00  0.00    +0.064 A 
ATOM      5  C   UNL A   1     -28.361   0.199  30.924  0.00  0.00    +0.007 A 
ATOM      6  C   UNL A   1     -27.528   1.223  30.636  0.00  0.00    +0.012 A 
ATOM      7 BR   UNL A   1     -26.218   0.282  26.875  0.00  0.00    -0.048 Br
ATOM      8 CL   UNL A   1     -25.913   2.690  29.056  0.00  0.00    -0.082 Cl
ENDROOT
BRANCH   2   9
ATOM      9  C   UNL A   1     -29.426  -1.976  30.326  0.00  0.00    +0.388 C 
ATOM     10  O   UNL A   1     -29.137  -3.190  30.391  0.00  0.00    -0.241 OA
ATOM     11  O   UNL A   1     -30.653  -1.714  30.736  0.00  0.00    -0.241 OA
ENDBRANCH   2   9
TORSDOF 1
