MODEL 1661
MODEL 1
REMARK VINA RESULT:    -5.221      0.000      0.000
REMARK INTER + INTRA:          -5.575
REMARK INTER:                  -5.526
REMARK INTRA:                  -0.049
REMARK UNBOUND:                -0.049
REMARK  Name = No_1661-gen_results/8p0m/2024-11-26-14-13-15/
REMARK  1 active torsions:
REMARK  status: ('A' for Active; 'I' for Inactive)
REMARK    1  A    between atoms: C_2  and  C_8
REMARK                            x       y       z     vdW  Elec       q    Type
REMARK                         _______ _______ _______ _____ _____    ______ ____
ROOT
ATOM      1  C   UNL A   1     -28.960 -10.380  32.617  0.00  0.00    +0.014 A 
ATOM      2  C   UNL A   1     -28.246 -11.150  32.529  0.00  0.00    +0.080 A 
ATOM      3  C   UNL A   1     -29.765 -10.095  31.492  0.00  0.00    +0.045 A 
ATOM      4  C   UNL A   1     -29.627 -10.782  30.302  0.00  0.00    +0.064 A 
ATOM      5  C   UNL A   1     -27.903 -12.027  31.392  0.00  0.00    +0.007 A 
ATOM      6  C   UNL A   1     -28.650 -11.786  30.292  0.00  0.00    +0.012 A 
ATOM      7 BR   UNL A   1     -31.119  -8.767  31.530  0.00  0.00    -0.048 Br
ATOM      8 CL   UNL A   1     -30.465 -10.453  28.814  0.00  0.00    -0.082 Cl
ENDROOT
BRANCH   2   9
ATOM      9  C   UNL A   1     -27.341 -11.586  33.782  0.00  0.00    +0.388 C 
ATOM     10  O   UNL A   1     -27.084 -10.899  34.794  0.00  0.00    -0.241 OA
ATOM     11  O   UNL A   1     -26.791 -12.785  33.818  0.00  0.00    -0.241 OA
ENDBRANCH   2   9
TORSDOF 1
ENDMDL
ENDMDL
