REMARK  Name = No_1662-gen_results/8p0m/2024-11-26-14-13-15/
REMARK  7 active torsions:
REMARK  status: ('A' for Active; 'I' for Inactive)
REMARK    1  A    between atoms: C_2  and  C_16
REMARK    2  A    between atoms: C_3  and  C_4
REMARK    3  A    between atoms: N_8  and  C_10
REMARK    4  A    between atoms: C_14  and  C_19
REMARK    5  A    between atoms: C_20  and  C_23
REMARK    6  A    between atoms: C_23  and  O_27
REMARK    7  A    between atoms: O_27  and  C_28
REMARK                            x       y       z     vdW  Elec       q    Type
REMARK                         _______ _______ _______ _____ _____    ______ ____
ROOT
ATOM      1  C   UNL A   1     -26.963   1.034  26.657  0.00  0.00    +0.054 A 
ATOM      2  C   UNL A   1     -27.975   1.001  26.302  0.00  0.00    +0.015 A 
ATOM      3  C   UNL A   1     -28.881   2.150  26.264  0.00  0.00    +0.001 A 
ATOM      4  C   UNL A   1     -28.359   3.377  26.752  0.00  0.00    +0.000 A 
ATOM      5  C   UNL A   1     -26.330   2.359  27.152  0.00  0.00    +0.014 A 
ATOM      6  C   UNL A   1     -27.057   3.487  27.119  0.00  0.00    +0.001 A 
ENDROOT
BRANCH   5   7
ATOM      7  C   UNL A   1     -24.881   2.467  27.577  0.00  0.00    +0.007 A 
ATOM      8  C   UNL A   1     -24.548   2.621  29.000  0.00  0.00    +0.076 A 
ATOM      9  C   UNL A   1     -23.826   2.437  26.638  0.00  0.00    +0.000 A 
ATOM     10  C   UNL A   1     -22.505   2.324  27.097  0.00  0.00    +0.000 A 
ATOM     11  C   UNL A   1     -22.264   2.248  28.530  0.00  0.00    +0.000 A 
ATOM     12  C   UNL A   1     -23.265   2.383  29.446  0.00  0.00    +0.006 A 
BRANCH   8  13
ATOM     13  C   UNL A   1     -25.670   2.641  29.988  0.00  0.00    +0.341 C 
ATOM     14  O   UNL A   1     -25.310   2.639  31.133  0.00  0.00    -0.245 OA
BRANCH  13  15
ATOM     15  O   UNL A   1     -26.799   3.189  29.686  0.00  0.00    -0.445 OA
BRANCH  15  16
ATOM     16  C   UNL A   1     -27.845   2.949  30.650  0.00  0.00    +0.192 C 
ATOM     17  C   UNL A   1     -29.188   3.232  30.187  0.00  0.00    +0.053 C 
ATOM     18  C   UNL A   1     -29.814   4.356  30.751  0.00  0.00    +0.030 C 
ATOM     19  C   UNL A   1     -30.439   4.020  31.943  0.00  0.00    -0.026 C 
ATOM     20  C   UNL A   1     -29.779   3.689  32.914  0.00  0.00    -0.005 C 
ATOM     21  C   UNL A   1     -28.835   3.281  32.994  0.00  0.00    -0.001 C 
ATOM     22  C   UNL A   1     -27.642   2.950  32.034  0.00  0.00    +0.017 C 
ENDBRANCH  15  16
ENDBRANCH  13  15
ENDBRANCH   8  13
ENDBRANCH   5   7
BRANCH   1  24
ATOM     23  C   UNL A   1     -25.654  -0.660  27.719  0.00  0.00    +0.253 C 
ATOM     24  N   UNL A   1     -25.965   0.012  26.710  0.00  0.00    -0.253 N 
ATOM     25  O   UNL A   1     -24.623  -1.458  27.620  0.00  0.00    -0.270 OA
ATOM     26  C   UNL A   1     -25.483  -0.245  25.338  0.00  0.00    +0.120 C 
BRANCH  23  29
ATOM     27  C   UNL A   1     -28.016  -0.814  28.878  0.00  0.00    +0.011 A 
ATOM     28  C   UNL A   1     -28.469  -0.785  29.829  0.00  0.00    +0.080 A 
ATOM     29  C   UNL A   1     -26.504  -0.778  28.877  0.00  0.00    +0.054 A 
ATOM     30  C   UNL A   1     -27.918  -0.937  31.182  0.00  0.00    +0.007 A 
ATOM     31  C   UNL A   1     -26.542  -0.940  31.261  0.00  0.00    +0.000 A 
ATOM     32  C   UNL A   1     -25.783  -0.893  30.120  0.00  0.00    +0.004 A 
BRANCH  28  33
ATOM     33  C   UNL A   1     -30.073  -0.660  29.900  0.00  0.00    +0.388 C 
ATOM     34  O   UNL A   1     -30.581  -0.342  30.907  0.00  0.00    -0.241 OA
ATOM     35  O   UNL A   1     -30.687  -1.080  28.840  0.00  0.00    -0.241 OA
ENDBRANCH  28  33
ENDBRANCH  23  29
ENDBRANCH   1  24
TORSDOF 7
