MODEL 1662
MODEL 1
REMARK VINA RESULT:    -7.456      0.000      0.000
REMARK INTER + INTRA:         -11.905
REMARK INTER:                 -10.507
REMARK INTRA:                  -1.397
REMARK UNBOUND:                -1.397
REMARK  Name = No_1662-gen_results/8p0m/2024-11-26-14-13-15/
REMARK  7 active torsions:
REMARK  status: ('A' for Active; 'I' for Inactive)
REMARK    1  A    between atoms: C_2  and  C_16
REMARK    2  A    between atoms: C_3  and  C_4
REMARK    3  A    between atoms: N_8  and  C_10
REMARK    4  A    between atoms: C_14  and  C_19
REMARK    5  A    between atoms: C_20  and  C_23
REMARK    6  A    between atoms: C_23  and  O_27
REMARK    7  A    between atoms: O_27  and  C_28
REMARK                            x       y       z     vdW  Elec       q    Type
REMARK                         _______ _______ _______ _____ _____    ______ ____
ROOT
ATOM      1  C   UNL A   1     -26.463   0.260  28.377  0.00  0.00    +0.054 A 
ATOM      2  C   UNL A   1     -27.137  -0.396  28.892  0.00  0.00    +0.015 A 
ATOM      3  C   UNL A   1     -26.836  -1.782  29.254  0.00  0.00    +0.001 A 
ATOM      4  C   UNL A   1     -25.558  -2.267  28.869  0.00  0.00    +0.000 A 
ATOM      5  C   UNL A   1     -25.038  -0.205  27.981  0.00  0.00    +0.014 A 
ATOM      6  C   UNL A   1     -24.638  -1.445  28.304  0.00  0.00    +0.001 A 
ENDROOT
BRANCH   5   7
ATOM      7  C   UNL A   1     -24.026   0.716  27.333  0.00  0.00    +0.007 A 
ATOM      8  C   UNL A   1     -22.802   1.081  28.060  0.00  0.00    +0.076 A 
ATOM      9  C   UNL A   1     -24.227   1.253  26.042  0.00  0.00    +0.000 A 
ATOM     10  C   UNL A   1     -23.170   1.920  25.406  0.00  0.00    +0.000 A 
ATOM     11  C   UNL A   1     -21.898   2.043  26.102  0.00  0.00    +0.000 A 
ATOM     12  C   UNL A   1     -21.727   1.623  27.388  0.00  0.00    +0.006 A 
BRANCH   8  13
ATOM     13  C   UNL A   1     -22.592   0.500  29.421  0.00  0.00    +0.341 C 
ATOM     14  O   UNL A   1     -21.575  -0.128  29.531  0.00  0.00    -0.245 OA
BRANCH  13  15
ATOM     15  O   UNL A   1     -23.088   1.077  30.464  0.00  0.00    -0.445 OA
BRANCH  15  16
ATOM     16  C   UNL A   1     -23.772   0.181  31.363  0.00  0.00    +0.192 C 
ATOM     17  C   UNL A   1     -25.090   0.612  31.780  0.00  0.00    +0.053 C 
ATOM     18  C   UNL A   1     -25.215   1.015  33.120  0.00  0.00    +0.030 C 
ATOM     19  C   UNL A   1     -25.460  -0.079  33.938  0.00  0.00    -0.026 C 
ATOM     20  C   UNL A   1     -24.605  -0.934  34.097  0.00  0.00    -0.005 C 
ATOM     21  C   UNL A   1     -23.809  -1.225  33.509  0.00  0.00    -0.001 C 
ATOM     22  C   UNL A   1     -23.119  -0.741  32.189  0.00  0.00    +0.017 C 
ENDBRANCH  15  16
ENDBRANCH  13  15
ENDBRANCH   8  13
ENDBRANCH   5   7
BRANCH   1  24
ATOM     23  C   UNL A   1     -27.127   2.055  26.946  0.00  0.00    +0.253 C 
ATOM     24  N   UNL A   1     -26.608   1.632  28.003  0.00  0.00    -0.253 N 
ATOM     25  O   UNL A   1     -27.052   3.338  26.706  0.00  0.00    -0.270 OA
ATOM     26  C   UNL A   1     -26.204   2.475  29.147  0.00  0.00    +0.120 C 
BRANCH  23  29
ATOM     27  C   UNL A   1     -29.434   0.892  26.426  0.00  0.00    +0.011 A 
ATOM     28  C   UNL A   1     -29.876   0.200  25.766  0.00  0.00    +0.080 A 
ATOM     29  C   UNL A   1     -27.997   1.253  26.123  0.00  0.00    +0.054 A 
ATOM     30  C   UNL A   1     -29.442  -0.330  24.466  0.00  0.00    +0.007 A 
ATOM     31  C   UNL A   1     -28.148  -0.020  24.106  0.00  0.00    +0.000 A 
ATOM     32  C   UNL A   1     -27.388   0.804  24.897  0.00  0.00    +0.004 A 
BRANCH  28  33
ATOM     33  C   UNL A   1     -31.348  -0.350  26.119  0.00  0.00    +0.388 C 
ATOM     34  O   UNL A   1     -32.280   0.115  25.582  0.00  0.00    -0.241 OA
ATOM     35  O   UNL A   1     -31.381  -1.186  27.107  0.00  0.00    -0.241 OA
ENDBRANCH  28  33
ENDBRANCH  23  29
ENDBRANCH   1  24
TORSDOF 7
ENDMDL
ENDMDL
