MODEL 1663
MODEL 1
REMARK VINA RESULT:    -6.330      0.000      0.000
REMARK INTER + INTRA:          -6.885
REMARK INTER:                  -8.551
REMARK INTRA:                   1.666
REMARK UNBOUND:                 1.666
REMARK  Name = No_1663-gen_results/8p0m/2024-11-26-14-13-15/
REMARK  6 active torsions:
REMARK  status: ('A' for Active; 'I' for Inactive)
REMARK    1  A    between atoms: C_2  and  O_7
REMARK    2  A    between atoms: O_7  and  C_8
REMARK    3  A    between atoms: C_15  and  O_20
REMARK    4  A    between atoms: C_16  and  C_17
REMARK    5  A    between atoms: O_20  and  C_24
REMARK    6  A    between atoms: C_24  and  N_26
REMARK                            x       y       z     vdW  Elec       q    Type
REMARK                         _______ _______ _______ _____ _____    ______ ____
ROOT
ATOM      1  C   UNL A   1     -24.632   0.388  26.572  0.00  0.00    +0.148 A 
ATOM      2  C   UNL A   1     -24.059   0.831  27.486  0.00  0.00    +0.071 A 
ATOM      3  C   UNL A   1     -24.141   1.045  25.256  0.00  0.00    +0.038 A 
ATOM      4  C   UNL A   1     -22.962   1.615  27.622  0.00  0.00    +0.027 A 
ATOM      5  C   UNL A   1     -23.127   1.892  25.248  0.00  0.00    +0.003 A 
ATOM      6  C   UNL A   1     -22.478   2.174  26.435  0.00  0.00    -0.000 A 
ATOM      7  C   UNL A   1     -24.562   0.275  28.909  0.00  0.00    +0.177 C 
ATOM      8  C   UNL A   1     -23.780   0.314  30.022  0.00  0.00    +0.172 C 
ATOM      9  O   UNL A   1     -22.583   0.245  29.761  0.00  0.00    -0.468 OA
ATOM     10  C   UNL A   1     -22.033   1.060  28.863  0.00  0.00    +0.232 C 
ENDROOT
BRANCH   8  11
ATOM     11  C   UNL A   1     -24.423  -0.140  31.268  0.00  0.00    +0.036 C 
ATOM     12  C   UNL A   1     -25.135   0.932  31.806  0.00  0.00    +0.015 C 
ATOM     13  C   UNL A   1     -24.960   2.200  30.554  0.00  0.00    +0.137 C 
ATOM     14  C   UNL A   1     -25.558   3.323  30.773  0.00  0.00    +0.037 C 
ATOM     15  O   UNL A   1     -24.074   2.474  31.084  0.00  0.00    -0.348 OA
ATOM     16  C   UNL A   1     -24.437   2.112  32.137  0.00  0.00    +0.167 C 
ENDBRANCH   8  11
BRANCH   1  17
ATOM     17  O   UNL A   1     -25.762  -0.417  26.321  0.00  0.00    -0.453 OA
BRANCH  17  19
ATOM     18  C   UNL A   1     -27.546   0.983  26.525  0.00  0.00    +0.049 A 
ATOM     19  C   UNL A   1     -26.902   0.231  25.831  0.00  0.00    +0.146 A 
ATOM     20  C   UNL A   1     -27.195  -0.043  24.535  0.00  0.00    +0.037 A 
ATOM     21  C   UNL A   1     -28.316   0.581  23.957  0.00  0.00    +0.004 A 
ATOM     22  C   UNL A   1     -28.648   1.729  25.972  0.00  0.00    +0.061 A 
ATOM     23  C   UNL A   1     -29.001   1.468  24.683  0.00  0.00    +0.012 A 
ATOM     24 CL   UNL A   1     -29.483   2.840  26.951  0.00  0.00    -0.082 Cl
ENDBRANCH  17  19
ENDBRANCH   1  17
BRANCH   7  25
ATOM     25  O   UNL A   1     -24.281  -0.680  28.694  0.00  0.00    -0.455 OA
BRANCH  25  26
ATOM     26  C   UNL A   1     -25.098  -1.808  28.621  0.00  0.00    +0.242 C 
ATOM     27  C   UNL A   1     -24.427  -3.121  28.618  0.00  0.00    +0.075 C 
ATOM     28 BR   UNL A   1     -24.853  -2.800  28.854  0.00  0.00    -0.019 Br
BRANCH  26  29
ATOM     29  N   UNL A   1     -26.174  -1.907  29.391  0.00  0.00    -0.173 NA
ATOM     30  C   UNL A   1     -27.374  -1.474  29.722  0.00  0.00    +0.112 C 
ENDBRANCH  26  29
ENDBRANCH  25  26
ENDBRANCH   7  25
TORSDOF 6
ENDMDL
ENDMDL
