REMARK  Name = No_1663-gen_results/8p0m/2024-11-26-14-13-15/
REMARK  6 active torsions:
REMARK  status: ('A' for Active; 'I' for Inactive)
REMARK    1  A    between atoms: C_2  and  O_7
REMARK    2  A    between atoms: O_7  and  C_8
REMARK    3  A    between atoms: C_15  and  O_20
REMARK    4  A    between atoms: C_16  and  C_17
REMARK    5  A    between atoms: O_20  and  C_24
REMARK    6  A    between atoms: C_24  and  N_26
REMARK                            x       y       z     vdW  Elec       q    Type
REMARK                         _______ _______ _______ _____ _____    ______ ____
ROOT
ATOM      1  C   UNL A   1     -24.904  -1.148  28.578  0.00  0.00    +0.148 A 
ATOM      2  C   UNL A   1     -23.773  -0.924  28.749  0.00  0.00    +0.071 A 
ATOM      3  C   UNL A   1     -25.267  -2.553  29.125  0.00  0.00    +0.038 A 
ATOM      4  C   UNL A   1     -22.793  -1.518  29.473  0.00  0.00    +0.027 A 
ATOM      5  C   UNL A   1     -24.384  -3.281  29.786  0.00  0.00    +0.003 A 
ATOM      6  C   UNL A   1     -23.124  -2.764  30.015  0.00  0.00    -0.000 A 
ATOM      7  C   UNL A   1     -23.280   0.478  28.134  0.00  0.00    +0.177 C 
ATOM      8  C   UNL A   1     -22.163   1.114  28.581  0.00  0.00    +0.172 C 
ATOM      9  O   UNL A   1     -21.928   0.883  29.762  0.00  0.00    -0.468 OA
ATOM     10  C   UNL A   1     -21.877  -0.368  30.215  0.00  0.00    +0.232 C 
ENDROOT
BRANCH   8  11
ATOM     11  C   UNL A   1     -21.790   2.336  27.846  0.00  0.00    +0.036 C 
ATOM     12  C   UNL A   1     -22.591   2.421  26.707  0.00  0.00    +0.015 C 
ATOM     13  C   UNL A   1     -23.719   1.044  26.905  0.00  0.00    +0.137 C 
ATOM     14  C   UNL A   1     -24.618   0.890  25.992  0.00  0.00    +0.037 C 
ATOM     15  O   UNL A   1     -22.976   0.478  26.387  0.00  0.00    -0.348 OA
ATOM     16  C   UNL A   1     -22.544   1.372  25.765  0.00  0.00    +0.167 C 
ENDBRANCH   8  11
BRANCH   1  17
ATOM     17  O   UNL A   1     -25.991  -0.612  27.857  0.00  0.00    -0.453 OA
BRANCH  17  19
ATOM     18  C   UNL A   1     -28.016  -0.814  28.878  0.00  0.00    +0.049 A 
ATOM     19  C   UNL A   1     -27.064  -0.119  28.608  0.00  0.00    +0.146 A 
ATOM     20  C   UNL A   1     -26.929   1.171  29.008  0.00  0.00    +0.037 A 
ATOM     21  C   UNL A   1     -27.956   1.741  29.784  0.00  0.00    +0.004 A 
ATOM     22  C   UNL A   1     -29.057  -0.327  29.747  0.00  0.00    +0.061 A 
ATOM     23  C   UNL A   1     -28.983   0.972  30.152  0.00  0.00    +0.012 A 
ATOM     24 CL   UNL A   1     -30.341  -1.355  30.175  0.00  0.00    -0.082 Cl
ENDBRANCH  17  19
ENDBRANCH   1  17
BRANCH   7  25
ATOM     25  O   UNL A   1     -23.885   1.020  28.749  0.00  0.00    -0.455 OA
BRANCH  25  26
ATOM     26  C   UNL A   1     -23.590   1.489  30.029  0.00  0.00    +0.242 C 
ATOM     27  C   UNL A   1     -23.692   2.943  30.248  0.00  0.00    +0.075 C 
ATOM     28 BR   UNL A   1     -23.837   2.416  30.451  0.00  0.00    -0.019 Br
BRANCH  26  29
ATOM     29  N   UNL A   1     -24.093   0.884  31.097  0.00  0.00    -0.173 NA
ATOM     30  C   UNL A   1     -23.945   0.031  32.091  0.00  0.00    +0.112 C 
ENDBRANCH  26  29
ENDBRANCH  25  26
ENDBRANCH   7  25
TORSDOF 6
