MODEL 1664
MODEL 1
REMARK VINA RESULT:    -5.409      0.000      0.000
REMARK INTER + INTRA:          -5.782
REMARK INTER:                  -5.725
REMARK INTRA:                  -0.057
REMARK UNBOUND:                -0.057
REMARK  Name = No_1664-gen_results/8p0m/2024-11-26-14-13-15/
REMARK  1 active torsions:
REMARK  status: ('A' for Active; 'I' for Inactive)
REMARK    1  A    between atoms: C_2  and  C_7
REMARK                            x       y       z     vdW  Elec       q    Type
REMARK                         _______ _______ _______ _____ _____    ______ ____
ROOT
ATOM      1  C   UNL A   1      -9.275  -9.218  19.934  0.00  0.00    +0.006 A 
ATOM      2  C   UNL A   1      -8.393  -9.729  19.667  0.00  0.00    +0.068 A 
ATOM      3  C   UNL A   1     -10.405  -9.321  18.998  0.00  0.00    +0.000 A 
ATOM      4  C   UNL A   1     -10.333 -10.186  17.867  0.00  0.00    +0.000 A 
ATOM      5  C   UNL A   1      -8.080 -10.721  18.603  0.00  0.00    +0.006 A 
ATOM      6  C   UNL A   1      -9.102 -10.836  17.708  0.00  0.00    +0.000 A 
ENDROOT
BRANCH   2   7
ATOM      7  C   UNL A   1      -7.152  -9.658  20.666  0.00  0.00    +0.333 C 
ATOM      8  O   UNL A   1      -6.822 -10.467  21.359  0.00  0.00    -0.254 OA
ATOM      9  F   UNL A   1      -6.311  -8.705  20.349  0.00  0.00    -0.159 F 
ENDBRANCH   2   7
TORSDOF 1
ENDMDL
ENDMDL
