MODEL 1665
MODEL 1
REMARK VINA RESULT:    -4.334      0.000      0.000
REMARK INTER + INTRA:          -4.334
REMARK INTER:                  -4.334
REMARK INTRA:                   0.000
REMARK UNBOUND:                 0.000
REMARK  Name = No_1665-gen_results/8p0m/2024-11-26-14-13-15/
REMARK  0 active torsions:
REMARK  status: ('A' for Active; 'I' for Inactive)
REMARK                            x       y       z     vdW  Elec       q    Type
REMARK                         _______ _______ _______ _____ _____    ______ ____
ROOT
ATOM      1  C   UNL A   1     -24.959  -5.417  28.950  0.00  0.00    +0.000 A 
ATOM      2  C   UNL A   1     -24.180  -4.751  28.703  0.00  0.00    +0.000 A 
ATOM      3  C   UNL A   1     -26.087  -4.774  29.624  0.00  0.00    +0.000 A 
ATOM      4  C   UNL A   1     -26.176  -3.624  29.729  0.00  0.00    +0.000 A 
ATOM      5  C   UNL A   1     -24.030  -3.310  28.754  0.00  0.00    +0.000 A 
ATOM      6  C   UNL A   1     -25.169  -2.723  29.368  0.00  0.00    +0.000 A 
ENDROOT
TORSDOF 0
ENDMDL
ENDMDL
