REMARK  Name = No_1666-gen_results/8p0m/2024-11-26-14-13-15/
REMARK  1 active torsions:
REMARK  status: ('A' for Active; 'I' for Inactive)
REMARK    1  A    between atoms: C_6  and  C_7
REMARK                            x       y       z     vdW  Elec       q    Type
REMARK                         _______ _______ _______ _____ _____    ______ ____
ROOT
ATOM      1  C   UNL A   1     -28.016  -0.814  28.878  0.00  0.00    +0.007 A 
ATOM      2  C   UNL A   1     -27.064  -0.119  28.608  0.00  0.00    +0.000 A 
ATOM      3  C   UNL A   1     -27.001   0.691  27.491  0.00  0.00    +0.000 A 
ATOM      4  C   UNL A   1     -25.855   1.482  27.083  0.00  0.00    +0.000 A 
ATOM      5  C   UNL A   1     -25.823   2.330  25.994  0.00  0.00    +0.000 A 
ATOM      6  C   UNL A   1     -27.987  -1.633  30.104  0.00  0.00    +0.080 A 
ATOM      7  C   UNL A   1     -26.710  -1.667  30.827  0.00  0.00    +0.007 A 
ATOM      8  C   UNL A   1     -25.623  -1.018  30.415  0.00  0.00    +0.000 A 
ATOM      9  C   UNL A   1     -25.712  -0.189  29.278  0.00  0.00    +0.000 A 
ATOM     10  C   UNL A   1     -24.583   3.082  25.762  0.00  0.00    +0.000 A 
ATOM     11  C   UNL A   1     -23.431   2.783  26.555  0.00  0.00    +0.000 A 
ATOM     12  C   UNL A   1     -23.477   1.852  27.534  0.00  0.00    +0.000 A 
ATOM     13  C   UNL A   1     -24.636   1.202  27.811  0.00  0.00    +0.000 A 
ATOM     14  C   UNL A   1     -24.572   0.470  28.826  0.00  0.00    +0.000 A 
ENDROOT
BRANCH   6  15
ATOM     15  C   UNL A   1     -29.049  -2.501  30.509  0.00  0.00    +0.388 C 
ATOM     16  O   UNL A   1     -28.924  -3.731  30.590  0.00  0.00    -0.241 OA
ATOM     17  O   UNL A   1     -30.197  -2.015  30.696  0.00  0.00    -0.241 OA
ENDBRANCH   6  15
TORSDOF 1
