MODEL 1666
MODEL 1
REMARK VINA RESULT:    -7.517      0.000      0.000
REMARK INTER + INTRA:          -8.029
REMARK INTER:                  -7.956
REMARK INTRA:                  -0.073
REMARK UNBOUND:                -0.073
REMARK  Name = No_1666-gen_results/8p0m/2024-11-26-14-13-15/
REMARK  1 active torsions:
REMARK  status: ('A' for Active; 'I' for Inactive)
REMARK    1  A    between atoms: C_6  and  C_7
REMARK                            x       y       z     vdW  Elec       q    Type
REMARK                         _______ _______ _______ _____ _____    ______ ____
ROOT
ATOM      1  C   UNL A   1     -27.988 -11.812  31.537  0.00  0.00    +0.007 A 
ATOM      2  C   UNL A   1     -28.785 -11.500  30.683  0.00  0.00    +0.000 A 
ATOM      3  C   UNL A   1     -28.740 -11.973  29.386  0.00  0.00    +0.000 A 
ATOM      4  C   UNL A   1     -29.624 -11.570  28.307  0.00  0.00    +0.000 A 
ATOM      5  C   UNL A   1     -29.604 -12.090  27.029  0.00  0.00    +0.000 A 
ATOM      6  C   UNL A   1     -28.134 -11.260  32.896  0.00  0.00    +0.080 A 
ATOM      7  C   UNL A   1     -29.159 -10.223  33.065  0.00  0.00    +0.007 A 
ATOM      8  C   UNL A   1     -29.916  -9.779  32.064  0.00  0.00    +0.000 A 
ATOM      9  C   UNL A   1     -29.796 -10.383  30.796  0.00  0.00    +0.000 A 
ATOM     10  C   UNL A   1     -30.607 -11.587  26.081  0.00  0.00    +0.000 A 
ATOM     11  C   UNL A   1     -31.431 -10.483  26.464  0.00  0.00    +0.000 A 
ATOM     12  C   UNL A   1     -31.329  -9.924  27.691  0.00  0.00    +0.000 A 
ATOM     13  C   UNL A   1     -30.460 -10.427  28.604  0.00  0.00    +0.000 A 
ATOM     14  C   UNL A   1     -30.565  -9.904  29.739  0.00  0.00    +0.000 A 
ENDROOT
BRANCH   6  15
ATOM     15  C   UNL A   1     -27.240 -11.548  33.975  0.00  0.00    +0.388 C 
ATOM     16  O   UNL A   1     -26.784 -10.676  34.728  0.00  0.00    -0.241 OA
ATOM     17  O   UNL A   1     -26.809 -12.725  34.112  0.00  0.00    -0.241 OA
ENDBRANCH   6  15
TORSDOF 1
ENDMDL
ENDMDL
