REMARK  Name = No_1667-gen_results/8p0m/2024-11-26-14-13-15/
REMARK  5 active torsions:
REMARK  status: ('A' for Active; 'I' for Inactive)
REMARK    1  A    between atoms: C_6  and  C_12
REMARK    2  A    between atoms: C_12  and  C_13
REMARK    3  A    between atoms: C_13  and  C_14
REMARK    4  A    between atoms: C_15  and  C_16
REMARK    5  A    between atoms: C_17  and  C_18
REMARK                            x       y       z     vdW  Elec       q    Type
REMARK                         _______ _______ _______ _____ _____    ______ ____
ROOT
ATOM      1  O   UNL A   1     -28.123  -1.335  28.487  0.00  0.00    -0.245 OA
ATOM      2  C   UNL A   1     -27.064  -0.824  28.869  0.00  0.00    +0.341 C 
ATOM      3  C   UNL A   1     -26.959   0.093  29.758  0.00  0.00    +0.078 C 
ATOM      4  O   UNL A   1     -25.879  -1.380  28.392  0.00  0.00    -0.445 OA
ATOM      5  C   UNL A   1     -25.875   0.548  30.139  0.00  0.00    -0.012 C 
ATOM      6  C   UNL A   1     -25.562   1.696  31.008  0.00  0.00    -0.025 C 
ATOM      7  C   UNL A   1     -24.263   2.148  31.269  0.00  0.00    -0.005 C 
ATOM      8  C   UNL A   1     -23.201   1.406  30.742  0.00  0.00    -0.004 C 
ATOM      9  C   UNL A   1     -23.396   0.330  29.958  0.00  0.00    -0.018 C 
ATOM     10  C   UNL A   1     -24.634  -0.095  29.712  0.00  0.00    +0.088 C 
ATOM     11  C   UNL A   1     -24.799  -1.138  28.768  0.00  0.00    +0.217 C 
ENDROOT
BRANCH   6  12
ATOM     12  C   UNL A   1     -26.695   2.449  31.603  0.00  0.00    +0.031 C 
BRANCH  12  13
ATOM     13  C   UNL A   1     -27.198   3.408  31.097  0.00  0.00    +0.031 C 
BRANCH  13  14
ATOM     14  C   UNL A   1     -26.595   4.225  30.190  0.00  0.00    -0.026 C 
ATOM     15  C   UNL A   1     -26.813   4.628  29.190  0.00  0.00    -0.005 C 
BRANCH  15  16
ATOM     16  C   UNL A   1     -25.944   5.450  28.242  0.00  0.00    -0.000 C 
ATOM     17  C   UNL A   1     -25.491   4.935  27.185  0.00  0.00    -0.000 C 
BRANCH  17  18
ATOM     18  C   UNL A   1     -26.042   3.701  26.685  0.00  0.00    -0.000 C 
ATOM     19  C   UNL A   1     -27.048   3.088  27.374  0.00  0.00    -0.000 C 
ENDBRANCH  17  18
ENDBRANCH  15  16
ENDBRANCH  13  14
ENDBRANCH  12  13
ENDBRANCH   6  12
TORSDOF 5
