MODEL 1667
MODEL 1
REMARK VINA RESULT:    -6.564      0.000      0.000
REMARK INTER + INTRA:          -9.465
REMARK INTER:                  -8.483
REMARK INTRA:                  -0.981
REMARK UNBOUND:                -0.981
REMARK  Name = No_1667-gen_results/8p0m/2024-11-26-14-13-15/
REMARK  5 active torsions:
REMARK  status: ('A' for Active; 'I' for Inactive)
REMARK    1  A    between atoms: C_6  and  C_12
REMARK    2  A    between atoms: C_12  and  C_13
REMARK    3  A    between atoms: C_13  and  C_14
REMARK    4  A    between atoms: C_15  and  C_16
REMARK    5  A    between atoms: C_17  and  C_18
REMARK                            x       y       z     vdW  Elec       q    Type
REMARK                         _______ _______ _______ _____ _____    ______ ____
ROOT
ATOM      1  O   UNL A   1     -28.644  -1.351  31.287  0.00  0.00    -0.245 OA
ATOM      2  C   UNL A   1     -27.866  -2.157  30.765  0.00  0.00    +0.341 C 
ATOM      3  C   UNL A   1     -26.610  -1.971  30.590  0.00  0.00    +0.078 C 
ATOM      4  O   UNL A   1     -28.366  -3.421  30.461  0.00  0.00    -0.445 OA
ATOM      5  C   UNL A   1     -25.860  -2.822  30.099  0.00  0.00    -0.012 C 
ATOM      6  C   UNL A   1     -24.453  -2.736  29.671  0.00  0.00    -0.025 C 
ATOM      7  C   UNL A   1     -23.764  -3.775  29.035  0.00  0.00    -0.005 C 
ATOM      8  C   UNL A   1     -24.431  -4.995  28.880  0.00  0.00    -0.004 C 
ATOM      9  C   UNL A   1     -25.709  -5.168  29.264  0.00  0.00    -0.018 C 
ATOM     10  C   UNL A   1     -26.360  -4.175  29.868  0.00  0.00    +0.088 C 
ATOM     11  C   UNL A   1     -27.742  -4.350  30.123  0.00  0.00    +0.217 C 
ENDROOT
BRANCH   6  12
ATOM     12  C   UNL A   1     -23.736  -1.453  29.884  0.00  0.00    +0.031 C 
BRANCH  12  13
ATOM     13  C   UNL A   1     -22.835  -1.070  29.198  0.00  0.00    +0.031 C 
BRANCH  13  14
ATOM     14  C   UNL A   1     -22.949  -0.173  28.180  0.00  0.00    -0.026 C 
ATOM     15  C   UNL A   1     -23.733   0.462  27.742  0.00  0.00    -0.005 C 
BRANCH  15  16
ATOM     16  C   UNL A   1     -23.716   1.334  26.489  0.00  0.00    -0.000 C 
ATOM     17  C   UNL A   1     -24.349   0.980  25.458  0.00  0.00    -0.000 C 
BRANCH  17  18
ATOM     18  C   UNL A   1     -25.352  -0.051  25.541  0.00  0.00    -0.000 C 
ATOM     19  C   UNL A   1     -26.370  -0.071  24.632  0.00  0.00    -0.000 C 
ENDBRANCH  17  18
ENDBRANCH  15  16
ENDBRANCH  13  14
ENDBRANCH  12  13
ENDBRANCH   6  12
TORSDOF 5
ENDMDL
ENDMDL
