REMARK  Name = No_1668-gen_results/8p0m/2024-11-26-14-13-15/
REMARK  3 active torsions:
REMARK  status: ('A' for Active; 'I' for Inactive)
REMARK    1  A    between atoms: C_2  and  C_5
REMARK    2  A    between atoms: C_3  and  C_10
REMARK    3  A    between atoms: C_10  and  C_11
REMARK                            x       y       z     vdW  Elec       q    Type
REMARK                         _______ _______ _______ _____ _____    ______ ____
ROOT
ATOM      1  C   UNL A   1     -28.016  -0.814  28.878  0.00  0.00    +0.003 A 
ATOM      2  C   UNL A   1     -28.469  -0.785  29.829  0.00  0.00    +0.080 A 
ATOM      3  C   UNL A   1     -28.182   0.428  28.113  0.00  0.00    -0.018 A 
ATOM      4  C   UNL A   1     -28.984   1.415  28.515  0.00  0.00    -0.004 A 
ATOM      5  C   UNL A   1     -29.561   1.293  29.742  0.00  0.00    -0.000 A 
ATOM      6  C   UNL A   1     -29.320   0.165  30.445  0.00  0.00    +0.007 A 
ENDROOT
BRANCH   2   7
ATOM      7  C   UNL A   1     -28.337  -2.048  30.787  0.00  0.00    +0.388 C 
ATOM      8  O   UNL A   1     -28.943  -3.035  30.731  0.00  0.00    -0.241 OA
ATOM      9  O   UNL A   1     -27.220  -2.057  31.595  0.00  0.00    -0.241 OA
ENDBRANCH   2   7
BRANCH   3  10
ATOM     10  C   UNL A   1     -27.447   0.499  26.747  0.00  0.00    +0.053 C 
BRANCH  10  11
ATOM     11  C   UNL A   1     -26.401   0.958  26.614  0.00  0.00    -0.018 A 
ATOM     12  C   UNL A   1     -25.537   1.492  27.706  0.00  0.00    -0.004 A 
ATOM     13  C   UNL A   1     -24.216   1.946  27.447  0.00  0.00    -0.000 A 
ATOM     14  C   UNL A   1     -23.861   2.114  26.075  0.00  0.00    -0.000 A 
ATOM     15  C   UNL A   1     -24.569   1.651  25.074  0.00  0.00    -0.000 A 
ATOM     16  C   UNL A   1     -25.800   1.071  25.331  0.00  0.00    -0.004 A 
ENDBRANCH  10  11
ENDBRANCH   3  10
TORSDOF 3
