MODEL 1668
MODEL 1
REMARK VINA RESULT:    -6.780      0.000      0.000
REMARK INTER + INTRA:          -8.593
REMARK INTER:                  -7.969
REMARK INTRA:                  -0.624
REMARK UNBOUND:                -0.624
REMARK  Name = No_1668-gen_results/8p0m/2024-11-26-14-13-15/
REMARK  3 active torsions:
REMARK  status: ('A' for Active; 'I' for Inactive)
REMARK    1  A    between atoms: C_2  and  C_5
REMARK    2  A    between atoms: C_3  and  C_10
REMARK    3  A    between atoms: C_10  and  C_11
REMARK                            x       y       z     vdW  Elec       q    Type
REMARK                         _______ _______ _______ _____ _____    ______ ____
ROOT
ATOM      1  C   UNL A   1     -24.614  -0.369  27.592  0.00  0.00    +0.003 A 
ATOM      2  C   UNL A   1     -24.507   0.424  26.907  0.00  0.00    +0.080 A 
ATOM      3  C   UNL A   1     -23.573  -0.393  28.627  0.00  0.00    -0.018 A 
ATOM      4  C   UNL A   1     -22.502   0.401  28.584  0.00  0.00    -0.004 A 
ATOM      5  C   UNL A   1     -22.460   1.343  27.602  0.00  0.00    -0.000 A 
ATOM      6  C   UNL A   1     -23.478   1.378  26.715  0.00  0.00    +0.007 A 
ENDROOT
BRANCH   2   7
ATOM      7  C   UNL A   1     -25.587   0.600  25.752  0.00  0.00    +0.388 C 
ATOM      8  O   UNL A   1     -26.427   1.397  25.695  0.00  0.00    -0.241 OA
ATOM      9  O   UNL A   1     -25.329  -0.107  24.596  0.00  0.00    -0.241 OA
ENDBRANCH   2   7
BRANCH   3  10
ATOM     10  C   UNL A   1     -23.728  -1.469  29.736  0.00  0.00    +0.053 C 
BRANCH  10  11
ATOM     11  C   UNL A   1     -24.335  -2.437  29.599  0.00  0.00    -0.018 A 
ATOM     12  C   UNL A   1     -25.720  -2.677  30.097  0.00  0.00    -0.004 A 
ATOM     13  C   UNL A   1     -26.419  -3.873  29.785  0.00  0.00    -0.000 A 
ATOM     14  C   UNL A   1     -25.648  -4.928  29.211  0.00  0.00    -0.000 A 
ATOM     15  C   UNL A   1     -24.435  -4.773  28.740  0.00  0.00    -0.000 A 
ATOM     16  C   UNL A   1     -23.795  -3.557  28.910  0.00  0.00    -0.004 A 
ENDBRANCH  10  11
ENDBRANCH   3  10
TORSDOF 3
ENDMDL
ENDMDL
