REMARK  Name = No_1669-gen_results/8p0m/2024-11-26-14-13-15/
REMARK  2 active torsions:
REMARK  status: ('A' for Active; 'I' for Inactive)
REMARK    1  A    between atoms: C_5  and  C_8
REMARK    2  A    between atoms: C_7  and  C_11
REMARK                            x       y       z     vdW  Elec       q    Type
REMARK                         _______ _______ _______ _____ _____    ______ ____
ROOT
ATOM      1  F   UNL A   1     -28.073  -1.254  28.532  0.00  0.00    -0.204 F 
ATOM      2  C   UNL A   1     -27.061  -0.629  28.872  0.00  0.00    +0.140 A 
ATOM      3  C   UNL A   1     -26.153  -1.156  29.454  0.00  0.00    +0.030 A 
ATOM      4  C   UNL A   1     -24.878  -0.579  29.864  0.00  0.00    +0.009 A 
ATOM      5  C   UNL A   1     -24.743   0.827  29.481  0.00  0.00    +0.080 A 
ATOM      6  C   UNL A   1     -25.788   1.393  28.763  0.00  0.00    +0.009 A 
ATOM      7  C   UNL A   1     -26.915   0.731  28.443  0.00  0.00    +0.028 A 
ENDROOT
BRANCH   7   8
ATOM      8  C   UNL A   1     -27.950   1.386  27.673  0.00  0.00    +0.002 A 
ATOM      9  C   UNL A   1     -28.752   2.172  28.341  0.00  0.00    +0.000 A 
ATOM     10  C   UNL A   1     -29.818   2.853  27.646  0.00  0.00    +0.000 A 
ATOM     11  C   UNL A   1     -29.959   2.592  26.259  0.00  0.00    +0.000 A 
ATOM     12  C   UNL A   1     -29.115   1.738  25.584  0.00  0.00    +0.000 A 
ATOM     13  C   UNL A   1     -28.069   1.127  26.306  0.00  0.00    +0.000 A 
ENDBRANCH   7   8
BRANCH   5  14
ATOM     14  C   UNL A   1     -23.540   1.527  29.845  0.00  0.00    +0.388 C 
ATOM     15  O   UNL A   1     -23.173   1.552  30.944  0.00  0.00    -0.241 OA
ATOM     16  O   UNL A   1     -22.797   2.006  28.857  0.00  0.00    -0.241 OA
ENDBRANCH   5  14
TORSDOF 2
