MODEL 1669
MODEL 1
REMARK VINA RESULT:    -6.741      0.000      0.000
REMARK INTER + INTRA:          -8.131
REMARK INTER:                  -7.529
REMARK INTRA:                  -0.602
REMARK UNBOUND:                -0.602
REMARK  Name = No_1669-gen_results/8p0m/2024-11-26-14-13-15/
REMARK  2 active torsions:
REMARK  status: ('A' for Active; 'I' for Inactive)
REMARK    1  A    between atoms: C_5  and  C_8
REMARK    2  A    between atoms: C_7  and  C_11
REMARK                            x       y       z     vdW  Elec       q    Type
REMARK                         _______ _______ _______ _____ _____    ______ ____
ROOT
ATOM      1  F   UNL A   1     -22.973  -1.371  30.878  0.00  0.00    -0.204 F 
ATOM      2  C   UNL A   1     -23.198  -0.716  29.853  0.00  0.00    +0.140 A 
ATOM      3  C   UNL A   1     -22.608   0.300  29.605  0.00  0.00    +0.030 A 
ATOM      4  C   UNL A   1     -22.711   1.146  28.422  0.00  0.00    +0.009 A 
ATOM      5  C   UNL A   1     -23.668   0.634  27.440  0.00  0.00    +0.080 A 
ATOM      6  C   UNL A   1     -24.295  -0.570  27.733  0.00  0.00    +0.009 A 
ATOM      7  C   UNL A   1     -24.095  -1.255  28.874  0.00  0.00    +0.028 A 
ENDROOT
BRANCH   7   8
ATOM      8  C   UNL A   1     -24.772  -2.515  29.095  0.00  0.00    +0.002 A 
ATOM      9  C   UNL A   1     -25.943  -2.445  29.669  0.00  0.00    +0.000 A 
ATOM     10  C   UNL A   1     -26.676  -3.659  29.934  0.00  0.00    +0.000 A 
ATOM     11  C   UNL A   1     -26.051  -4.884  29.585  0.00  0.00    +0.000 A 
ATOM     12  C   UNL A   1     -24.804  -4.931  29.003  0.00  0.00    +0.000 A 
ATOM     13  C   UNL A   1     -24.148  -3.711  28.735  0.00  0.00    +0.000 A 
ENDBRANCH   7   8
BRANCH   5  14
ATOM     14  C   UNL A   1     -23.885   1.385  26.233  0.00  0.00    +0.388 C 
ATOM     15  O   UNL A   1     -24.881   1.299  25.647  0.00  0.00    -0.241 OA
ATOM     16  O   UNL A   1     -22.967   2.285  25.909  0.00  0.00    -0.241 OA
ENDBRANCH   5  14
TORSDOF 2
ENDMDL
ENDMDL
