MODEL 166
MODEL 1
REMARK VINA RESULT:    -6.553      0.000      0.000
REMARK INTER + INTRA:          -6.553
REMARK INTER:                  -6.553
REMARK INTRA:                   0.000
REMARK UNBOUND:                 0.000
REMARK  Name = No_166-gen_results/8p0m/2024-11-26-14-13-15/
REMARK  0 active torsions:
REMARK  status: ('A' for Active; 'I' for Inactive)
REMARK                            x       y       z     vdW  Elec       q    Type
REMARK                         _______ _______ _______ _____ _____    ______ ____
ROOT
ATOM      1  C   UNL A   1     -23.752  -3.495  28.869  0.00  0.00    +0.000 A 
ATOM      2  C   UNL A   1     -24.583  -2.708  29.262  0.00  0.00    +0.000 A 
ATOM      3  C   UNL A   1     -24.309  -1.384  29.541  0.00  0.00    +0.000 A 
ATOM      4  C   UNL A   1     -23.098  -0.942  29.168  0.00  0.00    +0.000 A 
ATOM      5  C   UNL A   1     -24.229  -4.889  28.582  0.00  0.00    +0.000 A 
ATOM      6  C   UNL A   1     -25.438  -5.297  29.084  0.00  0.00    +0.000 A 
ATOM      7  C   UNL A   1     -26.292  -4.467  29.737  0.00  0.00    +0.000 A 
ATOM      8  C   UNL A   1     -25.928  -3.131  29.848  0.00  0.00    +0.000 A 
ATOM      9  C   UNL A   1     -22.663   0.418  29.601  0.00  0.00    +0.000 A 
ATOM     10  C   UNL A   1     -23.531   1.224  30.364  0.00  0.00    +0.000 A 
ATOM     11  C   UNL A   1     -25.123  -0.501  30.433  0.00  0.00    +0.000 A 
ATOM     12  C   UNL A   1     -26.418  -0.979  30.854  0.00  0.00    +0.000 A 
ATOM     13  C   UNL A   1     -26.792  -2.267  30.580  0.00  0.00    +0.000 A 
ATOM     14  C   UNL A   1     -24.745   0.780  30.790  0.00  0.00    +0.000 A 
ENDROOT
TORSDOF 0
ENDMDL
ENDMDL
