REMARK  Name = No_1670-gen_results/8p0m/2024-11-26-14-13-15/
REMARK  4 active torsions:
REMARK  status: ('A' for Active; 'I' for Inactive)
REMARK    1  A    between atoms: C_3  and  C_7
REMARK    2  A    between atoms: C_6  and  C_12
REMARK    3  A    between atoms: N_13  and  C_15
REMARK    4  A    between atoms: C_15  and  C_17
REMARK                            x       y       z     vdW  Elec       q    Type
REMARK                         _______ _______ _______ _____ _____    ______ ____
ROOT
ATOM      1  C   UNL A   1     -28.016  -0.814  28.878  0.00  0.00    +0.015 A 
ATOM      2  C   UNL A   1     -28.469  -0.785  29.829  0.00  0.00    +0.058 A 
ATOM      3  C   UNL A   1     -27.136   0.236  28.535  0.00  0.00    +0.072 A 
ATOM      4  C   UNL A   1     -26.875   1.282  29.398  0.00  0.00    +0.008 A 
ATOM      5  C   UNL A   1     -28.361   0.199  30.924  0.00  0.00    +0.016 A 
ATOM      6  C   UNL A   1     -27.528   1.223  30.636  0.00  0.00    +0.054 A 
ATOM      7 CL   UNL A   1     -29.590  -2.107  30.456  0.00  0.00    -0.082 Cl
ENDROOT
BRANCH   3   8
ATOM      8  C   UNL A   1     -26.399   0.295  27.228  0.00  0.00    +0.419 C 
ATOM      9  F   UNL A   1     -26.235   1.527  26.960  0.00  0.00    -0.166 F 
ATOM     10  F   UNL A   1     -25.236  -0.348  27.310  0.00  0.00    -0.166 F 
ATOM     11  F   UNL A   1     -27.150  -0.208  26.206  0.00  0.00    -0.166 F 
ENDBRANCH   3   8
BRANCH   6  12
ATOM     12  C   UNL A   1     -27.292   2.367  31.582  0.00  0.00    +0.249 C 
ATOM     13  N   UNL A   1     -26.382   2.748  31.934  0.00  0.00    -0.270 N 
ATOM     14  C   UNL A   1     -25.256   2.180  32.065  0.00  0.00    +0.116 C 
ATOM     15  O   UNL A   1     -28.463   2.713  32.091  0.00  0.00    -0.270 OA
BRANCH  13  16
ATOM     16  C   UNL A   1     -26.250   4.223  32.414  0.00  0.00    +0.120 C 
BRANCH  16  17
ATOM     17  C   UNL A   1     -26.216   5.128  31.319  0.00  0.00    -0.002 A 
ATOM     18  C   UNL A   1     -26.081   4.838  30.181  0.00  0.00    -0.003 A 
ATOM     19  C   UNL A   1     -25.964   5.822  29.068  0.00  0.00    -0.000 A 
ATOM     20  C   UNL A   1     -25.763   7.140  29.453  0.00  0.00    -0.000 A 
ATOM     21  C   UNL A   1     -25.787   7.473  30.792  0.00  0.00    -0.000 A 
ATOM     22  C   UNL A   1     -25.944   6.524  31.731  0.00  0.00    -0.003 A 
ENDBRANCH  16  17
ENDBRANCH  13  16
ENDBRANCH   6  12
TORSDOF 4
