MODEL 1670
MODEL 1
REMARK VINA RESULT:    -6.823      0.000      0.000
REMARK INTER + INTRA:          -8.824
REMARK INTER:                  -8.419
REMARK INTRA:                  -0.405
REMARK UNBOUND:                -0.405
REMARK  Name = No_1670-gen_results/8p0m/2024-11-26-14-13-15/
REMARK  4 active torsions:
REMARK  status: ('A' for Active; 'I' for Inactive)
REMARK    1  A    between atoms: C_3  and  C_7
REMARK    2  A    between atoms: C_6  and  C_12
REMARK    3  A    between atoms: N_13  and  C_15
REMARK    4  A    between atoms: C_15  and  C_17
REMARK                            x       y       z     vdW  Elec       q    Type
REMARK                         _______ _______ _______ _____ _____    ______ ____
ROOT
ATOM      1  C   UNL A   1     -23.234  -0.213  28.622  0.00  0.00    +0.015 A 
ATOM      2  C   UNL A   1     -24.094  -0.821  28.640  0.00  0.00    +0.058 A 
ATOM      3  C   UNL A   1     -23.071   0.667  27.529  0.00  0.00    +0.072 A 
ATOM      4  C   UNL A   1     -23.991   0.733  26.501  0.00  0.00    +0.008 A 
ATOM      5  C   UNL A   1     -25.215  -0.943  27.687  0.00  0.00    +0.016 A 
ATOM      6  C   UNL A   1     -25.097  -0.118  26.624  0.00  0.00    +0.054 A 
ATOM      7 CL   UNL A   1     -24.489  -1.974  30.023  0.00  0.00    -0.082 Cl
ENDROOT
BRANCH   3   8
ATOM      8  C   UNL A   1     -21.911   1.611  27.402  0.00  0.00    +0.419 C 
ATOM      9  F   UNL A   1     -22.199   2.636  28.097  0.00  0.00    -0.166 F 
ATOM     10  F   UNL A   1     -20.784   1.037  27.818  0.00  0.00    -0.166 F 
ATOM     11  F   UNL A   1     -21.770   2.062  26.122  0.00  0.00    -0.166 F 
ENDBRANCH   3   8
BRANCH   6  12
ATOM     12  C   UNL A   1     -26.097  -0.095  25.501  0.00  0.00    +0.249 C 
ATOM     13  N   UNL A   1     -26.979   0.464  25.422  0.00  0.00    -0.270 N 
ATOM     14  C   UNL A   1     -27.726   0.943  26.328  0.00  0.00    +0.116 C 
ATOM     15  O   UNL A   1     -25.793  -1.082  24.675  0.00  0.00    -0.270 OA
BRANCH  13  16
ATOM     16  C   UNL A   1     -27.589   0.828  24.036  0.00  0.00    +0.120 C 
BRANCH  16  17
ATOM     17  C   UNL A   1     -28.898   0.298  23.886  0.00  0.00    -0.002 A 
ATOM     18  C   UNL A   1     -29.177  -0.845  23.773  0.00  0.00    -0.003 A 
ATOM     19  C   UNL A   1     -30.555  -1.358  23.531  0.00  0.00    -0.000 A 
ATOM     20  C   UNL A   1     -31.497  -0.400  23.183  0.00  0.00    -0.000 A 
ATOM     21  C   UNL A   1     -31.148   0.935  23.183  0.00  0.00    -0.000 A 
ATOM     22  C   UNL A   1     -29.888   1.313  23.459  0.00  0.00    -0.003 A 
ENDBRANCH  16  17
ENDBRANCH  13  16
ENDBRANCH   6  12
TORSDOF 4
ENDMDL
ENDMDL
