MODEL 1671
MODEL 1
REMARK VINA RESULT:    -6.737      0.000      0.000
REMARK INTER + INTRA:          -9.009
REMARK INTER:                  -8.312
REMARK INTRA:                  -0.697
REMARK UNBOUND:                -0.697
REMARK  Name = No_1671-gen_results/8p0m/2024-11-26-14-13-15/
REMARK  4 active torsions:
REMARK  status: ('A' for Active; 'I' for Inactive)
REMARK    1  A    between atoms: C_3  and  C_7
REMARK    2  A    between atoms: C_7  and  N_8
REMARK    3  A    between atoms: N_8  and  C_9
REMARK    4  A    between atoms: C_12  and  C_14
REMARK                            x       y       z     vdW  Elec       q    Type
REMARK                         _______ _______ _______ _____ _____    ______ ____
ROOT
ATOM      1  N   UNL A   1     -10.174   0.932  36.868  0.00  0.00    -0.302 N 
ATOM      2  C   UNL A   1      -9.101   1.750  37.278  0.00  0.00    +0.113 C 
ENDROOT
BRANCH   1   3
ATOM      3  C   UNL A   1     -11.337   1.520  36.288  0.00  0.00    +0.048 A 
ATOM      4  C   UNL A   1     -12.202   2.249  37.135  0.00  0.00    +0.015 A 
ATOM      5  C   UNL A   1     -11.698   1.389  34.965  0.00  0.00    +0.021 A 
ATOM      6  C   UNL A   1     -12.825   1.995  34.454  0.00  0.00    +0.081 A 
ATOM      7  C   UNL A   1     -13.401   2.791  36.647  0.00  0.00    +0.002 A 
ATOM      8  C   UNL A   1     -13.729   2.645  35.296  0.00  0.00    +0.007 A 
BRANCH   6   9
ATOM      9  C   UNL A   1     -13.253   1.827  33.064  0.00  0.00    +0.388 C 
ATOM     10  O   UNL A   1     -14.109   2.432  32.633  0.00  0.00    -0.241 OA
ATOM     11  O   UNL A   1     -12.419   1.065  32.257  0.00  0.00    -0.241 OA
ENDBRANCH   6   9
ENDBRANCH   1   3
BRANCH   1  12
ATOM     12  C   UNL A   1     -10.014  -0.375  36.906  0.00  0.00    +0.118 C 
BRANCH  12  15
ATOM     13  C   UNL A   1     -10.835  -0.612  39.295  0.00  0.00    -0.003 A 
ATOM     14  C   UNL A   1     -11.469  -1.097  39.983  0.00  0.00    -0.000 A 
ATOM     15  C   UNL A   1     -10.844  -1.126  37.955  0.00  0.00    -0.002 A 
ATOM     16  C   UNL A   1     -11.477  -2.251  37.610  0.00  0.00    -0.003 A 
ATOM     17  C   UNL A   1     -12.224  -2.334  39.836  0.00  0.00    -0.000 A 
ATOM     18  C   UNL A   1     -12.223  -2.835  38.608  0.00  0.00    -0.000 A 
ENDBRANCH  12  15
ENDBRANCH   1  12
TORSDOF 4
ENDMDL
ENDMDL
