REMARK  Name = No_1671-gen_results/8p0m/2024-11-26-14-13-15/
REMARK  4 active torsions:
REMARK  status: ('A' for Active; 'I' for Inactive)
REMARK    1  A    between atoms: C_3  and  C_7
REMARK    2  A    between atoms: C_7  and  N_8
REMARK    3  A    between atoms: N_8  and  C_9
REMARK    4  A    between atoms: C_12  and  C_14
REMARK                            x       y       z     vdW  Elec       q    Type
REMARK                         _______ _______ _______ _____ _____    ______ ____
ROOT
ATOM      1  N   UNL A   1     -26.662   1.408  26.509  0.00  0.00    -0.302 N 
ATOM      2  C   UNL A   1     -27.140   2.487  25.737  0.00  0.00    +0.113 C 
ENDROOT
BRANCH   1   3
ATOM      3  C   UNL A   1     -25.403   1.510  27.173  0.00  0.00    +0.048 A 
ATOM      4  C   UNL A   1     -24.631   2.672  26.952  0.00  0.00    +0.015 A 
ATOM      5  C   UNL A   1     -24.869   0.531  27.982  0.00  0.00    +0.021 A 
ATOM      6  C   UNL A   1     -23.655   0.690  28.614  0.00  0.00    +0.081 A 
ATOM      7  C   UNL A   1     -23.352   2.805  27.514  0.00  0.00    +0.002 A 
ATOM      8  C   UNL A   1     -22.847   1.794  28.337  0.00  0.00    +0.007 A 
BRANCH   6   9
ATOM      9  C   UNL A   1     -23.047  -0.357  29.436  0.00  0.00    +0.388 C 
ATOM     10  O   UNL A   1     -23.677  -1.035  30.090  0.00  0.00    -0.241 OA
ATOM     11  O   UNL A   1     -21.704  -0.617  29.198  0.00  0.00    -0.241 OA
ENDBRANCH   6   9
ENDBRANCH   1   3
BRANCH   1  12
ATOM     12  C   UNL A   1     -27.460   0.380  26.709  0.00  0.00    +0.118 C 
BRANCH  12  15
ATOM     13  C   UNL A   1     -28.016  -0.814  28.878  0.00  0.00    -0.003 A 
ATOM     14  C   UNL A   1     -28.469  -0.785  29.829  0.00  0.00    -0.000 A 
ATOM     15  C   UNL A   1     -28.196   0.348  28.055  0.00  0.00    -0.002 A 
ATOM     16  C   UNL A   1     -29.019   1.350  28.378  0.00  0.00    -0.003 A 
ATOM     17  C   UNL A   1     -29.411   0.180  30.378  0.00  0.00    -0.000 A 
ATOM     18  C   UNL A   1     -29.606   1.250  29.619  0.00  0.00    -0.000 A 
ENDBRANCH  12  15
ENDBRANCH   1  12
TORSDOF 4
