MODEL 1672
MODEL 1
REMARK VINA RESULT:    -6.420      0.000      0.000
REMARK INTER + INTRA:          -7.129
REMARK INTER:                  -6.796
REMARK INTRA:                  -0.334
REMARK UNBOUND:                -0.334
REMARK  Name = No_1672-gen_results/8p0m/2024-11-26-14-13-15/
REMARK  1 active torsions:
REMARK  status: ('A' for Active; 'I' for Inactive)
REMARK    1  A    between atoms: C_3  and  C_4
REMARK                            x       y       z     vdW  Elec       q    Type
REMARK                         _______ _______ _______ _____ _____    ______ ____
ROOT
ATOM      1  C   UNL A   1     -24.245  -4.931  28.620  0.00  0.00    +0.000 A 
ATOM      2  C   UNL A   1     -23.833  -3.795  28.561  0.00  0.00    +0.000 A 
ATOM      3  C   UNL A   1     -24.516  -2.716  29.021  0.00  0.00    +0.000 A 
ATOM      4  C   UNL A   1     -25.543  -5.201  29.267  0.00  0.00    +0.000 A 
ATOM      5  C   UNL A   1     -26.287  -4.198  29.718  0.00  0.00    +0.000 A 
ATOM      6  C   UNL A   1     -25.795  -2.903  29.631  0.00  0.00    +0.000 A 
ENDROOT
BRANCH   3   7
ATOM      7  C   UNL A   1     -24.025  -1.321  28.958  0.00  0.00    +0.000 A 
ATOM      8  C   UNL A   1     -22.607  -1.128  29.045  0.00  0.00    +0.000 A 
ATOM      9  C   UNL A   1     -22.044   0.157  29.030  0.00  0.00    +0.000 A 
ATOM     10  C   UNL A   1     -24.504  -0.518  27.728  0.00  0.00    +0.000 A 
ATOM     11  C   UNL A   1     -22.515   0.925  27.878  0.00  0.00    +0.000 A 
ATOM     12  C   UNL A   1     -23.944   0.856  27.612  0.00  0.00    +0.000 A 
ENDBRANCH   3   7
TORSDOF 1
ENDMDL
ENDMDL
