MODEL 1673
MODEL 1
REMARK VINA RESULT:    -6.548      0.000      0.000
REMARK INTER + INTRA:          -9.142
REMARK INTER:                  -8.080
REMARK INTRA:                  -1.062
REMARK UNBOUND:                -1.062
REMARK  Name = No_1673-gen_results/8p0m/2024-11-26-14-13-15/
REMARK  4 active torsions:
REMARK  status: ('A' for Active; 'I' for Inactive)
REMARK    1  A    between atoms: C_2  and  C_3
REMARK    2  A    between atoms: C_8  and  C_13
REMARK    3  A    between atoms: C_13  and  C_14
REMARK    4  A    between atoms: C_13  and  C_16
REMARK                            x       y       z     vdW  Elec       q    Type
REMARK                         _______ _______ _______ _____ _____    ______ ____
ROOT
ATOM      1  C   UNL A   1     -23.777  -3.006  28.895  0.00  0.00    +0.004 C 
ATOM      2  C   UNL A   1     -23.517  -1.990  29.497  0.00  0.00    +0.023 C 
ATOM      3  C   UNL A   1     -25.028  -3.155  28.619  0.00  0.00    +0.000 C 
ATOM      4  C   UNL A   1     -26.047  -2.961  29.615  0.00  0.00    +0.000 C 
ATOM      5  C   UNL A   1     -25.703  -2.030  30.660  0.00  0.00    +0.001 C 
ATOM      6  C   UNL A   1     -24.416  -1.425  30.553  0.00  0.00    +0.011 C 
ENDROOT
BRANCH   2   7
ATOM      7  C   UNL A   1     -22.911  -0.892  28.918  0.00  0.00    -0.022 A 
ATOM      8  C   UNL A   1     -21.712  -0.669  29.058  0.00  0.00    -0.004 A 
ATOM      9  C   UNL A   1     -23.784  -0.111  28.006  0.00  0.00    -0.004 A 
ATOM     10  C   UNL A   1     -21.129   0.584  28.363  0.00  0.00    -0.000 A 
ATOM     11  C   UNL A   1     -23.323   1.070  27.374  0.00  0.00    -0.000 A 
ATOM     12  C   UNL A   1     -21.944   1.407  27.506  0.00  0.00    -0.000 A 
ENDBRANCH   2   7
BRANCH   6  13
ATOM     13  C   UNL A   1     -24.037  -0.401  31.516  0.00  0.00    +0.065 C 
BRANCH  13  14
ATOM     14  C   UNL A   1     -23.289  -0.835  32.624  0.00  0.00    +0.008 C 
ATOM     15  C   UNL A   1     -23.939  -1.203  33.790  0.00  0.00    +0.001 C 
ENDBRANCH  13  14
BRANCH  13  16
ATOM     16  C   UNL A   1     -24.310   0.983  31.436  0.00  0.00    +0.207 C 
ATOM     17  O   UNL A   1     -23.537   1.860  31.013  0.00  0.00    -0.288 OA
ENDBRANCH  13  16
ENDBRANCH   6  13
TORSDOF 4
ENDMDL
ENDMDL
