REMARK  Name = No_1673-gen_results/8p0m/2024-11-26-14-13-15/
REMARK  4 active torsions:
REMARK  status: ('A' for Active; 'I' for Inactive)
REMARK    1  A    between atoms: C_2  and  C_3
REMARK    2  A    between atoms: C_8  and  C_13
REMARK    3  A    between atoms: C_13  and  C_14
REMARK    4  A    between atoms: C_13  and  C_16
REMARK                            x       y       z     vdW  Elec       q    Type
REMARK                         _______ _______ _______ _____ _____    ______ ____
ROOT
ATOM      1  C   UNL A   1     -28.016  -0.814  28.878  0.00  0.00    +0.004 C 
ATOM      2  C   UNL A   1     -27.064  -0.119  28.608  0.00  0.00    +0.023 C 
ATOM      3  C   UNL A   1     -28.745  -0.366  29.843  0.00  0.00    +0.000 C 
ATOM      4  C   UNL A   1     -28.163   0.082  31.080  0.00  0.00    +0.000 C 
ATOM      5  C   UNL A   1     -26.821   0.594  30.967  0.00  0.00    +0.001 C 
ATOM      6  C   UNL A   1     -26.267   0.598  29.653  0.00  0.00    +0.011 C 
ENDROOT
BRANCH   2   7
ATOM      7  C   UNL A   1     -27.001   0.691  27.491  0.00  0.00    -0.022 A 
ATOM      8  C   UNL A   1     -27.178   1.904  27.563  0.00  0.00    -0.004 A 
ATOM      9  C   UNL A   1     -26.557   0.005  26.251  0.00  0.00    -0.004 A 
ATOM     10  C   UNL A   1     -27.080   2.723  26.255  0.00  0.00    -0.000 A 
ATOM     11  C   UNL A   1     -26.489   0.689  25.013  0.00  0.00    -0.000 A 
ATOM     12  C   UNL A   1     -26.702   2.099  25.012  0.00  0.00    -0.000 A 
ENDBRANCH   2   7
BRANCH   6  13
ATOM     13  C   UNL A   1     -24.953   1.191  29.444  0.00  0.00    +0.065 C 
BRANCH  13  14
ATOM     14  C   UNL A   1     -23.874   0.555  30.082  0.00  0.00    +0.008 C 
ATOM     15  C   UNL A   1     -23.126  -0.385  29.393  0.00  0.00    +0.001 C 
ENDBRANCH  13  14
BRANCH  13  16
ATOM     16  C   UNL A   1     -24.646   2.313  28.642  0.00  0.00    +0.207 C 
ATOM     17  O   UNL A   1     -25.106   3.460  28.779  0.00  0.00    -0.288 OA
ENDBRANCH  13  16
ENDBRANCH   6  13
TORSDOF 4
