MODEL 1674
MODEL 1
REMARK VINA RESULT:    -6.617      0.000      0.000
REMARK INTER + INTRA:          -7.851
REMARK INTER:                  -7.391
REMARK INTRA:                  -0.460
REMARK UNBOUND:                -0.460
REMARK  Name = No_1674-gen_results/8p0m/2024-11-26-14-13-15/
REMARK  2 active torsions:
REMARK  status: ('A' for Active; 'I' for Inactive)
REMARK    1  A    between atoms: C_4  and  C_8
REMARK    2  A    between atoms: C_8  and  C_9
REMARK                            x       y       z     vdW  Elec       q    Type
REMARK                         _______ _______ _______ _____ _____    ______ ____
ROOT
ATOM      1  C   UNL A   1     -23.948  -4.515  28.557  0.00  0.00    +0.029 A 
ATOM      2  C   UNL A   1     -24.870  -4.882  28.910  0.00  0.00    +0.140 A 
ATOM      3  C   UNL A   1     -23.798  -3.010  28.575  0.00  0.00    -0.002 A 
ATOM      4  C   UNL A   1     -24.802  -2.223  29.177  0.00  0.00    -0.018 A 
ATOM      5  C   UNL A   1     -26.039  -4.297  29.605  0.00  0.00    +0.029 A 
ATOM      6  C   UNL A   1     -25.934  -2.914  29.647  0.00  0.00    -0.002 A 
ATOM      7  F   UNL A   1     -25.004  -6.328  28.903  0.00  0.00    -0.204 F 
ENDROOT
BRANCH   4   8
ATOM      8  C   UNL A   1     -24.703  -0.795  29.195  0.00  0.00    +0.053 C 
BRANCH   8   9
ATOM      9  C   UNL A   1     -23.988  -0.094  28.280  0.00  0.00    -0.018 A 
ATOM     10  C   UNL A   1     -22.867   0.725  28.704  0.00  0.00    -0.004 A 
ATOM     11  C   UNL A   1     -22.183   1.485  27.735  0.00  0.00    -0.000 A 
ATOM     12  C   UNL A   1     -22.885   1.825  26.532  0.00  0.00    -0.000 A 
ATOM     13  C   UNL A   1     -24.105   1.240  26.224  0.00  0.00    -0.000 A 
ATOM     14  C   UNL A   1     -24.715   0.368  27.109  0.00  0.00    -0.004 A 
ENDBRANCH   8   9
ENDBRANCH   4   8
TORSDOF 2
ENDMDL
ENDMDL
