MODEL 1675
MODEL 1
REMARK VINA RESULT:    -5.034      0.000      0.000
REMARK INTER + INTRA:          -5.370
REMARK INTER:                  -5.328
REMARK INTRA:                  -0.042
REMARK UNBOUND:                -0.042
REMARK  Name = No_1675-gen_results/8p0m/2024-11-26-14-13-15/
REMARK  1 active torsions:
REMARK  status: ('A' for Active; 'I' for Inactive)
REMARK    1  A    between atoms: C_3  and  C_7
REMARK                            x       y       z     vdW  Elec       q    Type
REMARK                         _______ _______ _______ _____ _____    ______ ____
ROOT
ATOM      1  C   UNL A   1     -24.963  -5.137  29.076  0.00  0.00    +0.000 A 
ATOM      2  C   UNL A   1     -24.136  -4.283  28.856  0.00  0.00    +0.000 A 
ATOM      3  C   UNL A   1     -24.311  -2.938  29.178  0.00  0.00    +0.001 A 
ATOM      4  C   UNL A   1     -25.570  -2.509  29.756  0.00  0.00    +0.000 A 
ATOM      5  C   UNL A   1     -26.502  -3.523  29.974  0.00  0.00    +0.000 A 
ATOM      6  C   UNL A   1     -26.257  -4.771  29.628  0.00  0.00    +0.000 A 
ENDROOT
BRANCH   3   7
ATOM      7  C   UNL A   1     -23.338  -1.832  28.946  0.00  0.00    +0.019 C 
ATOM      8  C   UNL A   1     -22.891  -1.042  29.952  0.00  0.00    +0.106 C 
ATOM      9  N   UNL A   1     -22.033  -0.071  29.564  0.00  0.00    -0.127 NA
ENDBRANCH   3   7
TORSDOF 1
ENDMDL
ENDMDL
