MODEL 1676
MODEL 1
REMARK VINA RESULT:    -5.630      0.000      0.000
REMARK INTER + INTRA:         -12.472
REMARK INTER:                  -9.580
REMARK INTRA:                  -2.892
REMARK UNBOUND:                -2.892
REMARK  Name = No_1676-gen_results/8p0m/2024-11-26-14-13-15/
REMARK  12 active torsions:
REMARK  status: ('A' for Active; 'I' for Inactive)
REMARK    1  A    between atoms: C_1  and  C_2
REMARK    2  A    between atoms: C_4  and  C_26
REMARK    3  A    between atoms: C_5  and  C_12
REMARK    4  A    between atoms: C_11  and  C_15
REMARK    5  A    between atoms: N_13  and  C_18
REMARK    6  A    between atoms: C_22  and  C_24
REMARK    7  A    between atoms: C_26  and  O_28
REMARK    8  A    between atoms: O_28  and  C_29
REMARK    9  A    between atoms: C_29  and  C_30
REMARK   10  A    between atoms: C_30  and  C_31
REMARK   11  A    between atoms: C_30  and  C_33
REMARK   12  A    between atoms: C_33  and  C_34
REMARK                            x       y       z     vdW  Elec       q    Type
REMARK                         _______ _______ _______ _____ _____    ______ ____
ROOT
ATOM      1  C   UNL A   1      -8.719   2.523   8.872  0.00  0.00    +0.054 A 
ATOM      2  C   UNL A   1      -8.685   2.197  10.189  0.00  0.00    +0.011 A 
ATOM      3  C   UNL A   1      -7.992   1.014  10.746  0.00  0.00    +0.080 A 
ATOM      4  C   UNL A   1      -7.332   0.150   9.811  0.00  0.00    +0.061 A 
ATOM      5  C   UNL A   1      -7.451   0.484   8.444  0.00  0.00    +0.005 A 
ATOM      6  C   UNL A   1      -8.112   1.600   8.000  0.00  0.00    +0.005 A 
ENDROOT
BRANCH   1   7
ATOM      7  C   UNL A   1      -9.291   3.493   8.430  0.00  0.00    +0.255 C 
ATOM      8  N   UNL A   1      -8.520   4.662   8.044  0.00  0.00    -0.216 N 
ATOM      9  O   UNL A   1     -10.436   3.460   7.887  0.00  0.00    -0.270 OA
ATOM     10  C   UNL A   1      -7.146   4.868   8.463  0.00  0.00    +0.124 C 
ATOM     11  C   UNL A   1      -9.129   5.830   7.452  0.00  0.00    +0.335 C 
ATOM     12  O   UNL A   1      -9.584   5.698   6.368  0.00  0.00    -0.262 OA
BRANCH  11  13
ATOM     13  C   UNL A   1      -9.109   6.969   8.209  0.00  0.00    +0.441 C 
ATOM     14  O   UNL A   1      -9.867   7.055   9.144  0.00  0.00    -0.235 OA
ATOM     15  O   UNL A   1      -8.389   8.026   7.948  0.00  0.00    -0.235 OA
ENDBRANCH  11  13
ENDBRANCH   1   7
BRANCH   4  16
ATOM     16  C   UNL A   1      -6.633  -1.051  10.202  0.00  0.00    +0.267 C 
ATOM     17  N   UNL A   1      -5.448  -1.192  10.527  0.00  0.00    -0.171 NA
ATOM     18  O   UNL A   1      -7.463  -1.973  10.695  0.00  0.00    -0.268 OA
BRANCH  17  19
ATOM     19  C   UNL A   1      -4.410  -0.773   9.558  0.00  0.00    +0.243 C 
ATOM     20  C   UNL A   1      -3.138  -0.689   9.963  0.00  0.00    +0.197 C 
ATOM     21  O   UNL A   1      -2.319  -0.617   8.867  0.00  0.00    -0.324 OA
ATOM     22  C   UNL A   1      -2.902  -1.621   7.800  0.00  0.00    +0.271 C 
ATOM     23  O   UNL A   1      -4.440  -1.707   8.485  0.00  0.00    -0.308 OA
BRANCH  22  24
ATOM     24  C   UNL A   1      -2.321  -2.947   7.970  0.00  0.00    +0.243 C 
ATOM     25  O   UNL A   1      -1.228  -3.095   7.335  0.00  0.00    -0.215 OA
ENDBRANCH  22  24
ENDBRANCH  17  19
ENDBRANCH   4  16
BRANCH   3  26
ATOM     26  C   UNL A   1      -7.975   0.761  12.180  0.00  0.00    +0.341 C 
ATOM     27  O   UNL A   1      -9.095   0.540  12.665  0.00  0.00    -0.245 OA
BRANCH  26  28
ATOM     28  O   UNL A   1      -6.900   0.781  12.799  0.00  0.00    -0.445 OA
BRANCH  28  29
ATOM     29  C   UNL A   1      -6.561   2.061  13.371  0.00  0.00    +0.213 C 
BRANCH  29  30
ATOM     30  C   UNL A   1      -5.837   2.935  12.480  0.00  0.00    +0.070 C 
BRANCH  30  31
ATOM     31  C   UNL A   1      -4.780   2.571  11.934  0.00  0.00    -0.022 C 
ATOM     32  C   UNL A   1      -4.706   2.772  10.416  0.00  0.00    -0.005 C 
ENDBRANCH  30  31
BRANCH  30  33
ATOM     33  C   UNL A   1      -6.239   4.314  12.270  0.00  0.00    +0.034 C 
BRANCH  33  34
ATOM     34  C   UNL A   1      -7.603   4.784  12.768  0.00  0.00    -0.026 C 
ATOM     35  C   UNL A   1      -8.363   5.509  11.930  0.00  0.00    -0.005 C 
ENDBRANCH  33  34
ENDBRANCH  30  33
ENDBRANCH  29  30
ENDBRANCH  28  29
ENDBRANCH  26  28
ENDBRANCH   3  26
TORSDOF 12
ENDMDL
ENDMDL
