REMARK  Name = No_1676-gen_results/8p0m/2024-11-26-14-13-15/
REMARK  12 active torsions:
REMARK  status: ('A' for Active; 'I' for Inactive)
REMARK    1  A    between atoms: C_1  and  C_2
REMARK    2  A    between atoms: C_4  and  C_26
REMARK    3  A    between atoms: C_5  and  C_12
REMARK    4  A    between atoms: C_11  and  C_15
REMARK    5  A    between atoms: N_13  and  C_18
REMARK    6  A    between atoms: C_22  and  C_24
REMARK    7  A    between atoms: C_26  and  O_28
REMARK    8  A    between atoms: O_28  and  C_29
REMARK    9  A    between atoms: C_29  and  C_30
REMARK   10  A    between atoms: C_30  and  C_31
REMARK   11  A    between atoms: C_30  and  C_33
REMARK   12  A    between atoms: C_33  and  C_34
REMARK                            x       y       z     vdW  Elec       q    Type
REMARK                         _______ _______ _______ _____ _____    ______ ____
ROOT
ATOM      1  C   UNL A   1     -27.064  -0.119  28.608  0.00  0.00    +0.054 A 
ATOM      2  C   UNL A   1     -26.929   1.171  29.008  0.00  0.00    +0.011 A 
ATOM      3  C   UNL A   1     -25.770   2.034  28.688  0.00  0.00    +0.080 A 
ATOM      4  C   UNL A   1     -24.714   1.443  27.919  0.00  0.00    +0.061 A 
ATOM      5  C   UNL A   1     -24.859   0.078  27.584  0.00  0.00    +0.005 A 
ATOM      6  C   UNL A   1     -25.965  -0.661  27.916  0.00  0.00    +0.005 A 
ENDROOT
BRANCH   1   7
ATOM      7  C   UNL A   1     -28.016  -0.814  28.878  0.00  0.00    +0.255 C 
ATOM      8  N   UNL A   1     -27.982  -1.637  30.075  0.00  0.00    -0.216 N 
ATOM      9  O   UNL A   1     -29.195  -0.604  28.462  0.00  0.00    -0.270 OA
ATOM     10  C   UNL A   1     -26.754  -1.933  30.788  0.00  0.00    +0.124 C 
ATOM     11  C   UNL A   1     -29.105  -2.443  30.492  0.00  0.00    +0.335 C 
ATOM     12  O   UNL A   1     -30.072  -1.861  30.847  0.00  0.00    -0.262 OA
BRANCH  11  13
ATOM     13  C   UNL A   1     -28.928  -3.798  30.437  0.00  0.00    +0.441 C 
ATOM     14  O   UNL A   1     -29.795  -4.513  30.878  0.00  0.00    -0.235 OA
ATOM     15  O   UNL A   1     -27.843  -4.393  30.021  0.00  0.00    -0.235 OA
ENDBRANCH  11  13
ENDBRANCH   1   7
BRANCH   4  16
ATOM     16  C   UNL A   1     -23.513   2.153  27.548  0.00  0.00    +0.267 C 
ATOM     17  N   UNL A   1     -22.431   1.701  27.153  0.00  0.00    -0.171 NA
ATOM     18  O   UNL A   1     -23.773   3.404  27.162  0.00  0.00    -0.268 OA
BRANCH  17  19
ATOM     19  C   UNL A   1     -21.723   0.739  28.027  0.00  0.00    +0.243 C 
ATOM     20  C   UNL A   1     -21.323   1.135  29.241  0.00  0.00    +0.197 C 
ATOM     21  O   UNL A   1     -21.003   0.035  29.992  0.00  0.00    -0.324 OA
ATOM     22  C   UNL A   1     -22.088  -1.063  29.672  0.00  0.00    +0.271 C 
ATOM     23  O   UNL A   1     -22.596  -0.368  28.222  0.00  0.00    -0.308 OA
BRANCH  22  24
ATOM     24  C   UNL A   1     -23.221  -0.948  30.581  0.00  0.00    +0.243 C 
ATOM     25  O   UNL A   1     -23.597  -2.071  31.049  0.00  0.00    -0.215 OA
ENDBRANCH  22  24
ENDBRANCH  17  19
ENDBRANCH   4  16
BRANCH   3  26
ATOM     26  C   UNL A   1     -25.725   3.422  29.127  0.00  0.00    +0.341 C 
ATOM     27  O   UNL A   1     -25.565   3.558  30.350  0.00  0.00    -0.245 OA
BRANCH  26  28
ATOM     28  O   UNL A   1     -25.843   4.337  28.298  0.00  0.00    -0.445 OA
BRANCH  28  29
ATOM     29  C   UNL A   1     -26.029   5.647  28.872  0.00  0.00    +0.213 C 
BRANCH  29  30
ATOM     30  C   UNL A   1     -25.685   6.735  27.989  0.00  0.00    +0.070 C 
BRANCH  30  31
ATOM     31  C   UNL A   1     -25.612   6.570  26.758  0.00  0.00    -0.022 C 
ATOM     32  C   UNL A   1     -24.919   7.690  25.972  0.00  0.00    -0.005 C 
ENDBRANCH  30  31
BRANCH  30  33
ATOM     33  C   UNL A   1     -25.293   8.037  28.497  0.00  0.00    +0.034 C 
BRANCH  33  34
ATOM     34  C   UNL A   1     -25.409   8.327  29.991  0.00  0.00    -0.026 C 
ATOM     35  C   UNL A   1     -24.848   9.455  30.458  0.00  0.00    -0.005 C 
ENDBRANCH  33  34
ENDBRANCH  30  33
ENDBRANCH  29  30
ENDBRANCH  28  29
ENDBRANCH  26  28
ENDBRANCH   3  26
TORSDOF 12
