MODEL 1677
MODEL 1
REMARK VINA RESULT:    -6.965      0.000      0.000
REMARK INTER + INTRA:          -9.794
REMARK INTER:                  -9.000
REMARK INTRA:                  -0.794
REMARK UNBOUND:                -0.794
REMARK  Name = No_1677-gen_results/8p0m/2024-11-26-14-13-15/
REMARK  5 active torsions:
REMARK  status: ('A' for Active; 'I' for Inactive)
REMARK    1  A    between atoms: C_2  and  C_7
REMARK    2  A    between atoms: C_4  and  C_11
REMARK    3  A    between atoms: N_9  and  C_10
REMARK    4  A    between atoms: C_21  and  O_22
REMARK    5  A    between atoms: O_22  and  C_23
REMARK                            x       y       z     vdW  Elec       q    Type
REMARK                         _______ _______ _______ _____ _____    ______ ____
ROOT
ATOM      1  C   UNL A   1      -6.963  -1.724  34.532  0.00  0.00    +0.005 A 
ATOM      2  C   UNL A   1      -7.000  -0.735  34.892  0.00  0.00    +0.055 A 
ATOM      3  C   UNL A   1      -5.625  -2.313  34.359  0.00  0.00    +0.000 A 
ATOM      4  C   UNL A   1      -4.464  -1.614  34.799  0.00  0.00    +0.000 A 
ATOM      5  C   UNL A   1      -5.969   0.173  35.465  0.00  0.00    +0.005 A 
ATOM      6  C   UNL A   1      -4.713  -0.334  35.314  0.00  0.00    +0.000 A 
ENDROOT
BRANCH   4   7
ATOM      7  C   UNL A   1      -3.144  -2.148  34.626  0.00  0.00    +0.000 A 
ATOM      8  C   UNL A   1      -2.222  -1.835  35.675  0.00  0.00    +0.000 A 
ATOM      9  C   UNL A   1      -0.841  -1.636  35.354  0.00  0.00    +0.000 A 
ATOM     10  C   UNL A   1      -0.440  -2.091  34.040  0.00  0.00    +0.000 A 
ATOM     11  C   UNL A   1      -1.392  -2.236  33.074  0.00  0.00    +0.000 A 
ATOM     12  C   UNL A   1      -2.734  -2.300  33.314  0.00  0.00    +0.000 A 
ENDBRANCH   4   7
BRANCH   2  13
ATOM     13  C   UNL A   1      -8.432  -0.068  35.111  0.00  0.00    +0.269 C 
ATOM     14  O   UNL A   1      -8.912  -0.311  36.090  0.00  0.00    -0.268 OA
ATOM     15  N   UNL A   1      -8.780   1.072  34.316  0.00  0.00    -0.175 NA
BRANCH  15  16
ATOM     16  C   UNL A   1      -9.984   1.742  34.642  0.00  0.00    +0.074 A 
ATOM     17  C   UNL A   1     -10.249   2.524  35.319  0.00  0.00    +0.020 A 
ATOM     18  C   UNL A   1     -11.529   3.123  35.533  0.00  0.00    +0.039 A 
ATOM     19  C   UNL A   1     -11.046   1.071  33.838  0.00  0.00    +0.020 A 
ATOM     20  C   UNL A   1     -12.334   1.576  33.986  0.00  0.00    +0.039 A 
ATOM     21  C   UNL A   1     -12.552   2.571  34.869  0.00  0.00    +0.145 A 
BRANCH  21  22
ATOM     22  O   UNL A   1     -13.833   3.016  35.025  0.00  0.00    -0.450 OA
BRANCH  22  23
ATOM     23  C   UNL A   1     -14.463   3.112  36.030  0.00  0.00    +0.180 C 
ATOM     24  C   UNL A   1     -15.544   3.565  36.086  0.00  0.00    +0.044 C 
ENDBRANCH  22  23
ENDBRANCH  21  22
ENDBRANCH  15  16
ENDBRANCH   2  13
TORSDOF 5
ENDMDL
ENDMDL
