REMARK  Name = No_1677-gen_results/8p0m/2024-11-26-14-13-15/
REMARK  5 active torsions:
REMARK  status: ('A' for Active; 'I' for Inactive)
REMARK    1  A    between atoms: C_2  and  C_7
REMARK    2  A    between atoms: C_4  and  C_11
REMARK    3  A    between atoms: N_9  and  C_10
REMARK    4  A    between atoms: C_21  and  O_22
REMARK    5  A    between atoms: O_22  and  C_23
REMARK                            x       y       z     vdW  Elec       q    Type
REMARK                         _______ _______ _______ _____ _____    ______ ____
ROOT
ATOM      1  C   UNL A   1     -28.016  -0.814  28.878  0.00  0.00    +0.005 A 
ATOM      2  C   UNL A   1     -28.469  -0.785  29.829  0.00  0.00    +0.055 A 
ATOM      3  C   UNL A   1     -26.546  -0.876  28.850  0.00  0.00    +0.000 A 
ATOM      4  C   UNL A   1     -25.804  -1.032  30.057  0.00  0.00    +0.000 A 
ATOM      5  C   UNL A   1     -27.944  -0.987  31.207  0.00  0.00    +0.005 A 
ATOM      6  C   UNL A   1     -26.582  -1.039  31.223  0.00  0.00    +0.000 A 
ENDROOT
BRANCH   4   7
ATOM      7  C   UNL A   1     -24.370  -1.073  30.068  0.00  0.00    +0.000 A 
ATOM      8  C   UNL A   1     -23.728   0.206  30.035  0.00  0.00    +0.000 A 
ATOM      9  C   UNL A   1     -22.483   0.344  29.342  0.00  0.00    +0.000 A 
ATOM     10  C   UNL A   1     -21.819  -0.899  29.011  0.00  0.00    +0.000 A 
ATOM     11  C   UNL A   1     -22.557  -2.044  28.949  0.00  0.00    +0.000 A 
ATOM     12  C   UNL A   1     -23.805  -2.190  29.480  0.00  0.00    +0.000 A 
ENDBRANCH   4   7
BRANCH   2  13
ATOM     13  C   UNL A   1     -30.061  -0.737  29.902  0.00  0.00    +0.269 C 
ATOM     14  O   UNL A   1     -30.552  -0.277  29.011  0.00  0.00    -0.268 OA
ATOM     15  N   UNL A   1     -30.728  -1.625  30.807  0.00  0.00    -0.175 NA
BRANCH  15  16
ATOM     16  C   UNL A   1     -32.141  -1.679  30.735  0.00  0.00    +0.074 A 
ATOM     17  C   UNL A   1     -32.907  -0.985  30.468  0.00  0.00    +0.020 A 
ATOM     18  C   UNL A   1     -34.321  -1.189  30.426  0.00  0.00    +0.039 A 
ATOM     19  C   UNL A   1     -32.515  -3.037  31.226  0.00  0.00    +0.020 A 
ATOM     20  C   UNL A   1     -33.875  -3.330  31.234  0.00  0.00    +0.039 A 
ATOM     21  C   UNL A   1     -34.754  -2.375  30.870  0.00  0.00    +0.145 A 
BRANCH  21  22
ATOM     22  O   UNL A   1     -36.084  -2.677  30.931  0.00  0.00    -0.450 OA
BRANCH  22  23
ATOM     23  C   UNL A   1     -36.717  -3.372  30.200  0.00  0.00    +0.180 C 
ATOM     24  C   UNL A   1     -37.888  -3.439  30.210  0.00  0.00    +0.044 C 
ENDBRANCH  22  23
ENDBRANCH  21  22
ENDBRANCH  15  16
ENDBRANCH   2  13
TORSDOF 5
