REMARK  Name = No_1678-gen_results/8p0m/2024-11-26-14-13-15/
REMARK  4 active torsions:
REMARK  status: ('A' for Active; 'I' for Inactive)
REMARK    1  A    between atoms: C_1  and  O_17
REMARK    2  A    between atoms: O_17  and  C_18
REMARK    3  A    between atoms: C_19  and  N_20
REMARK    4  A    between atoms: C_19  and  C_26
REMARK                            x       y       z     vdW  Elec       q    Type
REMARK                         _______ _______ _______ _____ _____    ______ ____
ROOT
ATOM      1  C   UNL A   1     -28.016  -0.814  28.878  0.00  0.00    +0.173 A 
ATOM      2  C   UNL A   1     -27.064  -0.119  28.608  0.00  0.00    +0.038 A 
ATOM      3  C   UNL A   1     -25.792  -0.430  29.076  0.00  0.00    +0.004 A 
ATOM      4  C   UNL A   1     -25.576  -1.565  29.936  0.00  0.00    +0.003 A 
ATOM      5  C   UNL A   1     -26.735  -2.300  30.217  0.00  0.00    +0.033 A 
ATOM      6  C   UNL A   1     -27.918  -1.954  29.763  0.00  0.00    +0.174 A 
ATOM      7  F   UNL A   1     -28.965  -2.696  30.072  0.00  0.00    -0.201 F 
ATOM      8  C   UNL A   1     -24.535   0.360  28.802  0.00  0.00    +0.017 A 
ATOM      9  C   UNL A   1     -24.493   1.232  27.800  0.00  0.00    +0.089 A 
ATOM     10  C   UNL A   1     -23.266   1.921  27.497  0.00  0.00    +0.154 A 
ATOM     11  C   UNL A   1     -22.062   1.613  28.159  0.00  0.00    +0.038 A 
ATOM     12  C   UNL A   1     -23.305   0.027  29.452  0.00  0.00    +0.001 A 
ATOM     13  C   UNL A   1     -22.090   0.705  29.126  0.00  0.00    +0.003 A 
ATOM     14  O   UNL A   1     -23.315   2.845  26.482  0.00  0.00    -0.454 OA
ATOM     15  C   UNL A   1     -24.516   2.705  25.742  0.00  0.00    +0.310 C 
ATOM     16  N   UNL A   1     -25.350   1.671  26.870  0.00  0.00    -0.246 N 
ATOM     17  C   UNL A   1     -26.647   1.388  26.496  0.00  0.00    +0.068 C 
ATOM     18  C   UNL A   1     -27.301   0.532  27.529  0.00  0.00    +0.019 C 
ENDROOT
BRANCH   1  19
ATOM     19  O   UNL A   1     -29.296  -0.541  28.462  0.00  0.00    -0.447 OA
BRANCH  19  20
ATOM     20  C   UNL A   1     -30.125   0.161  29.202  0.00  0.00    +0.198 C 
ATOM     21  C   UNL A   1     -31.274  -0.017  28.962  0.00  0.00    +0.158 C 
BRANCH  21  22
ATOM     22  N   UNL A   1     -31.755  -0.562  27.909  0.00  0.00    -0.302 N 
ATOM     23  C   UNL A   1     -31.315  -0.314  26.703  0.00  0.00    +0.091 C 
ATOM     24  C   UNL A   1     -32.719  -1.702  27.881  0.00  0.00    +0.091 C 
ATOM     25  C   UNL A   1     -32.176  -0.063  25.774  0.00  0.00    +0.021 C 
ATOM     26  C   UNL A   1     -32.952  -1.318  25.350  0.00  0.00    +0.004 C 
ATOM     27  C   UNL A   1     -33.646  -1.706  26.759  0.00  0.00    +0.021 C 
ENDBRANCH  21  22
BRANCH  21  28
ATOM     28  C   UNL A   1     -32.152   1.276  29.233  0.00  0.00    +0.434 C 
ATOM     29  F   UNL A   1     -33.196   1.251  28.849  0.00  0.00    -0.165 F 
ATOM     30  F   UNL A   1     -31.497   2.341  28.661  0.00  0.00    -0.165 F 
ATOM     31  F   UNL A   1     -32.115   1.561  30.590  0.00  0.00    -0.165 F 
ENDBRANCH  21  28
ENDBRANCH  19  20
ENDBRANCH   1  19
TORSDOF 4
