MODEL 1678
MODEL 1
REMARK VINA RESULT:    -7.422      0.000      0.000
REMARK INTER + INTRA:          -9.173
REMARK INTER:                  -9.158
REMARK INTRA:                  -0.015
REMARK UNBOUND:                -0.015
REMARK  Name = No_1678-gen_results/8p0m/2024-11-26-14-13-15/
REMARK  4 active torsions:
REMARK  status: ('A' for Active; 'I' for Inactive)
REMARK    1  A    between atoms: C_1  and  O_17
REMARK    2  A    between atoms: O_17  and  C_18
REMARK    3  A    between atoms: C_19  and  N_20
REMARK    4  A    between atoms: C_19  and  C_26
REMARK                            x       y       z     vdW  Elec       q    Type
REMARK                         _______ _______ _______ _____ _____    ______ ____
ROOT
ATOM      1  C   UNL A   1     -24.648   1.108  26.860  0.00  0.00    +0.173 A 
ATOM      2  C   UNL A   1     -25.731   1.065  26.325  0.00  0.00    +0.038 A 
ATOM      3  C   UNL A   1     -26.397   2.229  25.957  0.00  0.00    +0.004 A 
ATOM      4  C   UNL A   1     -25.838   3.525  26.244  0.00  0.00    +0.003 A 
ATOM      5  C   UNL A   1     -24.594   3.483  26.886  0.00  0.00    +0.033 A 
ATOM      6  C   UNL A   1     -24.014   2.355  27.228  0.00  0.00    +0.174 A 
ATOM      7  F   UNL A   1     -22.841   2.396  27.833  0.00  0.00    -0.201 F 
ATOM      8  C   UNL A   1     -27.746   2.297  25.283  0.00  0.00    +0.017 A 
ATOM      9  C   UNL A   1     -28.250   1.227  24.677  0.00  0.00    +0.089 A 
ATOM     10  C   UNL A   1     -29.500   1.323  23.969  0.00  0.00    +0.154 A 
ATOM     11  C   UNL A   1     -30.158   2.556  23.794  0.00  0.00    +0.038 A 
ATOM     12  C   UNL A   1     -28.401   3.552  25.079  0.00  0.00    +0.001 A 
ATOM     13  C   UNL A   1     -29.630   3.636  24.355  0.00  0.00    +0.003 A 
ATOM     14  O   UNL A   1     -29.982   0.163  23.413  0.00  0.00    -0.454 OA
ATOM     15  C   UNL A   1     -28.978  -0.837  23.405  0.00  0.00    +0.310 C 
ATOM     16  N   UNL A   1     -27.866  -0.041  24.486  0.00  0.00    -0.246 N 
ATOM     17  C   UNL A   1     -26.757  -0.803  24.788  0.00  0.00    +0.068 C 
ATOM     18  C   UNL A   1     -25.877  -0.069  25.744  0.00  0.00    +0.019 C 
ENDROOT
BRANCH   1  19
ATOM     19  O   UNL A   1     -23.958  -0.008  27.265  0.00  0.00    -0.447 OA
BRANCH  19  20
ATOM     20  C   UNL A   1     -23.162   0.017  28.310  0.00  0.00    +0.198 C 
ATOM     21  C   UNL A   1     -23.281  -0.908  29.045  0.00  0.00    +0.158 C 
BRANCH  21  22
ATOM     22  N   UNL A   1     -24.263  -1.727  29.082  0.00  0.00    -0.302 N 
ATOM     23  C   UNL A   1     -25.488  -1.372  29.373  0.00  0.00    +0.091 C 
ATOM     24  C   UNL A   1     -24.237  -3.141  28.603  0.00  0.00    +0.091 C 
ATOM     25  C   UNL A   1     -26.145  -2.078  30.232  0.00  0.00    +0.021 C 
ATOM     26  C   UNL A   1     -26.560  -3.442  29.663  0.00  0.00    +0.004 C 
ATOM     27  C   UNL A   1     -25.103  -4.060  29.328  0.00  0.00    +0.021 C 
ENDBRANCH  21  22
BRANCH  21  28
ATOM     28  C   UNL A   1     -22.965  -0.525  30.551  0.00  0.00    +0.434 C 
ATOM     29  F   UNL A   1     -23.504   0.360  30.957  0.00  0.00    -0.165 F 
ATOM     30  F   UNL A   1     -21.612  -0.296  30.639  0.00  0.00    -0.165 F 
ATOM     31  F   UNL A   1     -23.158  -1.647  31.344  0.00  0.00    -0.165 F 
ENDBRANCH  21  28
ENDBRANCH  19  20
ENDBRANCH   1  19
TORSDOF 4
ENDMDL
ENDMDL
