REMARK  Name = No_1679-gen_results/8p0m/2024-11-26-14-13-15/
REMARK  4 active torsions:
REMARK  status: ('A' for Active; 'I' for Inactive)
REMARK    1  A    between atoms: C_1  and  C_2
REMARK    2  A    between atoms: C_1  and  C_8
REMARK    3  A    between atoms: N_9  and  C_10
REMARK    4  A    between atoms: C_15  and  C_18
REMARK                            x       y       z     vdW  Elec       q    Type
REMARK                         _______ _______ _______ _____ _____    ______ ____
ROOT
ATOM      1  C   UNL A   1     -28.626  -0.543  30.174  0.00  0.00    +0.250 C 
ATOM      2  N   UNL A   1     -29.742   0.001  30.299  0.00  0.00    -0.179 NA
ATOM      3  O   UNL A   1     -28.100  -1.239  31.190  0.00  0.00    -0.273 OA
ENDROOT
BRANCH   2   4
ATOM      4  C   UNL A   1     -30.530   0.249  29.420  0.00  0.00    +0.073 A 
ATOM      5  C   UNL A   1     -31.806   0.231  29.366  0.00  0.00    +0.017 A 
ATOM      6  C   UNL A   1     -32.643   0.563  28.261  0.00  0.00    +0.001 A 
ATOM      7  C   UNL A   1     -31.959   0.883  27.078  0.00  0.00    +0.000 A 
ATOM      8  C   UNL A   1     -30.616   0.875  26.997  0.00  0.00    +0.001 A 
ATOM      9  C   UNL A   1     -29.871   0.601  28.106  0.00  0.00    +0.017 A 
BRANCH   8  10
ATOM     10  C   UNL A   1     -29.973   1.270  25.696  0.00  0.00    -0.004 C 
ATOM     11  C   UNL A   1     -29.578   0.308  24.717  0.00  0.00    -0.026 C 
ATOM     12  C   UNL A   1     -28.838   0.752  23.645  0.00  0.00    +0.031 C 
ENDBRANCH   8  10
ENDBRANCH   2   4
BRANCH   1  13
ATOM     13  C   UNL A   1     -28.016  -0.814  28.878  0.00  0.00    +0.114 C 
BRANCH  13  14
ATOM     14  C   UNL A   1     -27.064  -0.119  28.608  0.00  0.00    -0.013 A 
ATOM     15  C   UNL A   1     -26.972   0.714  27.506  0.00  0.00    -0.002 A 
ATOM     16  C   UNL A   1     -25.820   1.491  27.116  0.00  0.00    +0.029 A 
ATOM     17  C   UNL A   1     -24.677   1.423  27.957  0.00  0.00    +0.140 A 
ATOM     18  C   UNL A   1     -24.727   0.562  29.085  0.00  0.00    +0.029 A 
ATOM     19  C   UNL A   1     -25.834  -0.135  29.337  0.00  0.00    -0.002 A 
ATOM     20  F   UNL A   1     -23.635   2.135  27.674  0.00  0.00    -0.204 F 
ENDBRANCH  13  14
ENDBRANCH   1  13
TORSDOF 4
