MODEL 167
MODEL 1
REMARK VINA RESULT:    -7.252      0.000      0.000
REMARK INTER + INTRA:          -4.158
REMARK INTER:                  -7.676
REMARK INTRA:                   3.517
REMARK UNBOUND:                 3.517
REMARK  Name = No_167-gen_results/8p0m/2024-11-26-14-13-15/
REMARK  2 active torsions:
REMARK  status: ('A' for Active; 'I' for Inactive)
REMARK    1  A    between atoms: C_15  and  O_18
REMARK    2  A    between atoms: N_17  and  N_19
REMARK                            x       y       z     vdW  Elec       q    Type
REMARK                         _______ _______ _______ _____ _____    ______ ____
ROOT
ATOM      1  C   UNL A   1     -23.474  -2.641  28.913  0.00  0.00    +0.046 A 
ATOM      2  C   UNL A   1     -24.229  -3.376  28.903  0.00  0.00    +0.141 A 
ATOM      3  C   UNL A   1     -23.798  -1.387  29.694  0.00  0.00    +0.072 A 
ATOM      4  C   UNL A   1     -24.984  -1.335  30.457  0.00  0.00    -0.007 A 
ATOM      5  C   UNL A   1     -25.507  -3.582  29.621  0.00  0.00    +0.029 A 
ATOM      6  C   UNL A   1     -25.835  -2.451  30.356  0.00  0.00    -0.001 A 
ATOM      7  F   UNL A   1     -23.907  -4.582  28.162  0.00  0.00    -0.204 F 
ATOM      8  C   UNL A   1     -25.332  -0.158  31.193  0.00  0.00    +0.028 C 
ATOM      9  C   UNL A   1     -25.739  -0.030  32.183  0.00  0.00    +0.005 C 
ATOM     10  C   UNL A   1     -24.528   1.039  30.725  0.00  0.00    +0.032 C 
ATOM     11  C   UNL A   1     -24.228   1.518  29.517  0.00  0.00    -0.003 A 
ATOM     12  C   UNL A   1     -24.590   2.364  28.841  0.00  0.00    -0.003 A 
ATOM     13  C   UNL A   1     -24.084   2.775  27.508  0.00  0.00    +0.003 A 
ATOM     14  C   UNL A   1     -23.110   1.940  26.962  0.00  0.00    +0.038 A 
ATOM     15  C   UNL A   1     -22.655   0.934  27.713  0.00  0.00    +0.154 A 
ATOM     16  C   UNL A   1     -23.136   0.666  28.928  0.00  0.00    +0.104 A 
ATOM     17  N   UNL A   1     -23.569  -0.074  29.265  0.00  0.00    -0.188 N 
ENDROOT
BRANCH  15  18
ATOM     18  O   UNL A   1     -22.807  -0.459  28.626  0.00  0.00    -0.470 OA
ATOM     19  C   UNL A   1     -21.578  -0.555  29.081  0.00  0.00    +0.253 C 
ENDBRANCH  15  18
BRANCH  17  20
ATOM     20  N   UNL A   1     -24.619  -0.360  28.610  0.00  0.00    -0.171 NA
ATOM     21  C   UNL A   1     -24.930  -0.652  27.350  0.00  0.00    +0.140 C 
ENDBRANCH  17  20
TORSDOF 2
ENDMDL
ENDMDL
