REMARK  Name = No_168-gen_results/8p0m/2024-11-26-14-13-15/
REMARK  1 active torsions:
REMARK  status: ('A' for Active; 'I' for Inactive)
REMARK    1  A    between atoms: C_7  and  C_8
REMARK                            x       y       z     vdW  Elec       q    Type
REMARK                         _______ _______ _______ _____ _____    ______ ____
ROOT
ATOM      1  O   UNL A   1     -28.123  -1.335  28.487  0.00  0.00    -0.273 OA
ATOM      2  C   UNL A   1     -27.064  -0.824  28.869  0.00  0.00    +0.241 C 
ATOM      3  N   UNL A   1     -26.894  -0.266  29.681  0.00  0.00    -0.205 NA
ATOM      4  C   UNL A   1     -25.644  -1.214  28.139  0.00  0.00    +0.087 C 
ATOM      5  C   UNL A   1     -24.455  -0.700  28.625  0.00  0.00    +0.023 C 
ATOM      6  C   UNL A   1     -25.740   0.423  30.315  0.00  0.00    +0.126 C 
ATOM      7  C   UNL A   1     -24.507   0.159  29.694  0.00  0.00    +0.126 C 
ENDROOT
BRANCH   7   8
ATOM      8  C   UNL A   1     -23.286   0.768  30.185  0.00  0.00    +0.366 C 
ATOM      9  O   UNL A   1     -22.143   0.362  29.742  0.00  0.00    -0.246 OA
ATOM     10  O   UNL A   1     -23.331   1.854  30.852  0.00  0.00    -0.246 OA
ENDBRANCH   7   8
TORSDOF 1
