REMARK  Name = No_1680-gen_results/8p0m/2024-11-26-14-13-15/
REMARK  1 active torsions:
REMARK  status: ('A' for Active; 'I' for Inactive)
REMARK    1  A    between atoms: C_2  and  C_8
REMARK                            x       y       z     vdW  Elec       q    Type
REMARK                         _______ _______ _______ _____ _____    ______ ____
ROOT
ATOM      1  C   UNL A   1     -28.016  -0.814  28.878  0.00  0.00    +0.001 A 
ATOM      2  C   UNL A   1     -27.064  -0.119  28.608  0.00  0.00    +0.000 A 
ATOM      3  C   UNL A   1     -26.972   0.714  27.506  0.00  0.00    +0.001 A 
ATOM      4  C   UNL A   1     -28.105   0.774  26.642  0.00  0.00    +0.011 A 
ATOM      5  C   UNL A   1     -29.201   0.104  27.053  0.00  0.00    +0.058 A 
ATOM      6  C   UNL A   1     -29.210  -0.603  28.185  0.00  0.00    +0.011 A 
ATOM      7 CL   UNL A   1     -30.572   0.242  26.055  0.00  0.00    -0.082 Cl
ENDROOT
BRANCH   2   8
ATOM      8  C   UNL A   1     -25.703  -0.236  29.414  0.00  0.00    +0.000 A 
ATOM      9  C   UNL A   1     -25.596  -0.479  30.456  0.00  0.00    +0.000 A 
ATOM     10  C   UNL A   1     -24.692  -0.441  31.249  0.00  0.00    +0.000 A 
ATOM     11  C   UNL A   1     -23.306  -0.124  30.769  0.00  0.00    +0.000 A 
ATOM     12  C   UNL A   1     -23.330   0.226  29.429  0.00  0.00    +0.000 A 
ATOM     13  C   UNL A   1     -24.519   0.191  28.622  0.00  0.00    +0.000 A 
ENDBRANCH   2   8
TORSDOF 1
