REMARK  Name = No_1681-gen_results/8p0m/2024-11-26-14-13-15/
REMARK  5 active torsions:
REMARK  status: ('A' for Active; 'I' for Inactive)
REMARK    1  A    between atoms: C_1  and  C_2
REMARK    2  A    between atoms: C_1  and  N_8
REMARK    3  A    between atoms: C_5  and  C_16
REMARK    4  A    between atoms: N_8  and  C_9
REMARK    5  A    between atoms: C_9  and  C_10
REMARK                            x       y       z     vdW  Elec       q    Type
REMARK                         _______ _______ _______ _____ _____    ______ ____
ROOT
ATOM      1  C   UNL A   1     -28.016  -0.814  28.878  0.00  0.00    +0.115 C 
ENDROOT
BRANCH   1   2
ATOM      2  C   UNL A   1     -27.064  -0.119  28.608  0.00  0.00    -0.005 A 
ATOM      3  C   UNL A   1     -26.929   1.171  29.008  0.00  0.00    -0.003 A 
ATOM      4  C   UNL A   1     -25.770   2.034  28.688  0.00  0.00    +0.004 A 
ATOM      5  C   UNL A   1     -24.714   1.443  27.919  0.00  0.00    +0.057 A 
ATOM      6  C   UNL A   1     -24.859   0.078  27.584  0.00  0.00    +0.004 A 
ATOM      7  C   UNL A   1     -25.965  -0.661  27.916  0.00  0.00    -0.003 A 
BRANCH   5   8
ATOM      8  C   UNL A   1     -23.518   2.144  27.575  0.00  0.00    +0.284 C 
ATOM      9  N   UNL A   1     -22.309   1.645  27.494  0.00  0.00    -0.084 NA
ATOM     10  O   UNL A   1     -23.719   3.176  26.757  0.00  0.00    -0.267 OA
ENDBRANCH   5   8
ENDBRANCH   1   2
BRANCH   1  11
ATOM     11  N   UNL A   1     -29.170  -0.298  28.947  0.00  0.00    -0.208 NA
BRANCH  11  12
ATOM     12  C   UNL A   1     -29.811   0.155  29.859  0.00  0.00    +0.115 C 
BRANCH  12  13
ATOM     13  C   UNL A   1     -29.583   0.117  30.954  0.00  0.00    -0.005 A 
ATOM     14  C   UNL A   1     -30.342   0.694  32.052  0.00  0.00    -0.003 A 
ATOM     15  C   UNL A   1     -30.016   0.600  33.428  0.00  0.00    -0.000 A 
ATOM     16  C   UNL A   1     -28.855  -0.131  33.776  0.00  0.00    -0.000 A 
ATOM     17  C   UNL A   1     -28.037  -0.702  32.822  0.00  0.00    -0.000 A 
ATOM     18  C   UNL A   1     -28.361  -0.593  31.493  0.00  0.00    -0.003 A 
ENDBRANCH  12  13
ENDBRANCH  11  12
ENDBRANCH   1  11
TORSDOF 5
