MODEL 1681
MODEL 1
REMARK VINA RESULT:    -6.554      0.000      0.000
REMARK INTER + INTRA:          -8.934
REMARK INTER:                  -8.469
REMARK INTRA:                  -0.465
REMARK UNBOUND:                -0.465
REMARK  Name = No_1681-gen_results/8p0m/2024-11-26-14-13-15/
REMARK  5 active torsions:
REMARK  status: ('A' for Active; 'I' for Inactive)
REMARK    1  A    between atoms: C_1  and  C_2
REMARK    2  A    between atoms: C_1  and  N_8
REMARK    3  A    between atoms: C_5  and  C_16
REMARK    4  A    between atoms: N_8  and  C_9
REMARK    5  A    between atoms: C_9  and  C_10
REMARK                            x       y       z     vdW  Elec       q    Type
REMARK                         _______ _______ _______ _____ _____    ______ ____
ROOT
ATOM      1  C   UNL A   1     -22.254  -0.313  29.700  0.00  0.00    +0.115 C 
ENDROOT
BRANCH   1   2
ATOM      2  C   UNL A   1     -22.733   0.600  29.068  0.00  0.00    -0.005 A 
ATOM      3  C   UNL A   1     -22.203   1.085  27.916  0.00  0.00    -0.003 A 
ATOM      4  C   UNL A   1     -22.778   2.200  27.130  0.00  0.00    +0.004 A 
ATOM      5  C   UNL A   1     -23.993   2.782  27.622  0.00  0.00    +0.057 A 
ATOM      6  C   UNL A   1     -24.551   2.201  28.783  0.00  0.00    +0.004 A 
ATOM      7  C   UNL A   1     -23.960   1.166  29.461  0.00  0.00    -0.003 A 
BRANCH   5   8
ATOM      8  C   UNL A   1     -24.681   3.833  26.943  0.00  0.00    +0.284 C 
ATOM      9  N   UNL A   1     -24.841   5.065  27.359  0.00  0.00    -0.084 NA
ATOM     10  O   UNL A   1     -24.649   3.723  25.616  0.00  0.00    -0.267 OA
ENDBRANCH   5   8
ENDBRANCH   1   2
BRANCH   1  11
ATOM     11  N   UNL A   1     -22.877  -1.412  29.787  0.00  0.00    -0.208 NA
BRANCH  11  12
ATOM     12  C   UNL A   1     -23.386  -2.131  28.967  0.00  0.00    +0.115 C 
BRANCH  12  13
ATOM     13  C   UNL A   1     -24.172  -2.913  29.122  0.00  0.00    -0.005 A 
ATOM     14  C   UNL A   1     -24.098  -4.335  28.825  0.00  0.00    -0.003 A 
ATOM     15  C   UNL A   1     -25.121  -5.287  29.059  0.00  0.00    -0.000 A 
ATOM     16  C   UNL A   1     -26.322  -4.825  29.648  0.00  0.00    -0.000 A 
ATOM     17  C   UNL A   1     -26.523  -3.493  29.950  0.00  0.00    -0.000 A 
ATOM     18  C   UNL A   1     -25.526  -2.581  29.708  0.00  0.00    -0.003 A 
ENDBRANCH  12  13
ENDBRANCH  11  12
ENDBRANCH   1  11
TORSDOF 5
ENDMDL
ENDMDL
