MODEL 1682
MODEL 1
REMARK VINA RESULT:    -5.635      0.000      0.000
REMARK INTER + INTRA:          -6.003
REMARK INTER:                  -5.964
REMARK INTRA:                  -0.039
REMARK UNBOUND:                -0.039
REMARK  Name = No_1682-gen_results/8p0m/2024-11-26-14-13-15/
REMARK  1 active torsions:
REMARK  status: ('A' for Active; 'I' for Inactive)
REMARK    1  A    between atoms: C_4  and  C_7
REMARK                            x       y       z     vdW  Elec       q    Type
REMARK                         _______ _______ _______ _____ _____    ______ ____
ROOT
ATOM      1  C   UNL A   1     -26.618  -3.930  29.870  0.00  0.00    +0.068 C 
ATOM      2  C   UNL A   1     -26.196  -4.850  29.575  0.00  0.00    +0.008 C 
ATOM      3  C   UNL A   1     -25.733  -2.755  29.823  0.00  0.00    +0.188 C 
ATOM      4  C   UNL A   1     -24.424  -2.855  29.269  0.00  0.00    +0.270 C 
ATOM      5  C   UNL A   1     -24.034  -4.108  28.868  0.00  0.00    +0.049 C 
ATOM      6  C   UNL A   1     -24.879  -5.158  28.958  0.00  0.00    +0.004 C 
ATOM      7  F   UNL A   1     -24.719  -2.252  28.452  0.00  0.00    -0.224 F 
ATOM      8  O   UNL A   1     -26.160  -1.605  30.408  0.00  0.00    -0.293 OA
ENDROOT
BRANCH   4   9
ATOM      9  C   UNL A   1     -23.553  -1.696  29.203  0.00  0.00    +0.431 C 
ATOM     10  F   UNL A   1     -22.534  -1.949  28.797  0.00  0.00    -0.167 F 
ATOM     11  F   UNL A   1     -23.351  -1.239  30.496  0.00  0.00    -0.167 F 
ATOM     12  F   UNL A   1     -24.073  -0.624  28.588  0.00  0.00    -0.167 F 
ENDBRANCH   4   9
TORSDOF 1
ENDMDL
ENDMDL
