MODEL 1683
MODEL 1
REMARK VINA RESULT:    -4.658      0.000      0.000
REMARK INTER + INTRA:          -4.949
REMARK INTER:                  -4.930
REMARK INTRA:                  -0.019
REMARK UNBOUND:                -0.019
REMARK  Name = No_1683-gen_results/8p0m/2024-11-26-14-13-15/
REMARK  1 active torsions:
REMARK  status: ('A' for Active; 'I' for Inactive)
REMARK    1  A    between atoms: C_5  and  C_9
REMARK                            x       y       z     vdW  Elec       q    Type
REMARK                         _______ _______ _______ _____ _____    ______ ____
ROOT
ATOM      1  C   UNL A   1     -19.395 -19.756   5.518  0.00  0.00    +0.097 C 
ATOM      2  C   UNL A   1     -18.744 -20.404   6.305  0.00  0.00    -0.026 C 
ATOM      3  C   UNL A   1     -17.450 -20.535   6.354  0.00  0.00    +0.024 C 
ATOM      4  C   UNL A   1     -16.686 -21.337   7.342  0.00  0.00    +0.010 C 
ATOM      5  C   UNL A   1     -17.448 -21.984   8.355  0.00  0.00    +0.044 C 
ATOM      6  C   UNL A   1     -18.807 -21.800   8.342  0.00  0.00    +0.010 C 
ATOM      7  C   UNL A   1     -19.465 -21.047   7.431  0.00  0.00    +0.024 C 
ATOM      8  N   UNL A   1     -19.721 -18.382   5.848  0.00  0.00    -0.127 NA
ENDROOT
BRANCH   5   9
ATOM      9  C   UNL A   1     -16.814 -22.806   9.357  0.00  0.00    +0.095 C 
ATOM     10  N   UNL A   1     -15.947 -22.454  10.178  0.00  0.00    -0.151 NA
ENDBRANCH   5   9
TORSDOF 1
ENDMDL
ENDMDL
