REMARK  Name = No_1683-gen_results/8p0m/2024-11-26-14-13-15/
REMARK  1 active torsions:
REMARK  status: ('A' for Active; 'I' for Inactive)
REMARK    1  A    between atoms: C_5  and  C_9
REMARK                            x       y       z     vdW  Elec       q    Type
REMARK                         _______ _______ _______ _____ _____    ______ ____
ROOT
ATOM      1  C   UNL A   1     -28.016  -0.814  28.878  0.00  0.00    +0.097 C 
ATOM      2  C   UNL A   1     -27.064  -0.119  28.608  0.00  0.00    -0.026 C 
ATOM      3  C   UNL A   1     -26.876   1.133  28.913  0.00  0.00    +0.024 C 
ATOM      4  C   UNL A   1     -25.688   1.952  28.567  0.00  0.00    +0.010 C 
ATOM      5  C   UNL A   1     -24.639   1.283  27.875  0.00  0.00    +0.044 C 
ATOM      6  C   UNL A   1     -24.807  -0.051  27.604  0.00  0.00    +0.010 C 
ATOM      7  C   UNL A   1     -25.902  -0.767  27.951  0.00  0.00    +0.024 C 
ATOM      8  N   UNL A   1     -27.989  -1.585  30.106  0.00  0.00    -0.127 NA
ENDROOT
BRANCH   5   9
ATOM      9  C   UNL A   1     -23.445   1.984  27.470  0.00  0.00    +0.095 C 
ATOM     10  N   UNL A   1     -22.276   1.556  27.502  0.00  0.00    -0.151 NA
ENDBRANCH   5   9
TORSDOF 1
