MODEL 1684
MODEL 1
REMARK VINA RESULT:    -4.314      0.000      0.000
REMARK INTER + INTRA:          -4.314
REMARK INTER:                  -4.314
REMARK INTRA:                   0.000
REMARK UNBOUND:                 0.000
REMARK  Name = No_1684-gen_results/8p0m/2024-11-26-14-13-15/
REMARK  0 active torsions:
REMARK  status: ('A' for Active; 'I' for Inactive)
REMARK                            x       y       z     vdW  Elec       q    Type
REMARK                         _______ _______ _______ _____ _____    ______ ____
ROOT
ATOM      1  C   UNL A   1     -26.147  -4.798  29.640  0.00  0.00    +0.000 A 
ATOM      2  C   UNL A   1     -26.138  -3.745  29.665  0.00  0.00    +0.000 A 
ATOM      3  C   UNL A   1     -24.987  -5.377  28.962  0.00  0.00    +0.000 A 
ATOM      4  C   UNL A   1     -24.079  -4.740  28.630  0.00  0.00    +0.000 A 
ATOM      5  C   UNL A   1     -25.164  -2.734  29.301  0.00  0.00    +0.000 A 
ATOM      6  C   UNL A   1     -24.033  -3.343  28.694  0.00  0.00    +0.000 A 
ENDROOT
TORSDOF 0
ENDMDL
ENDMDL
