REMARK  Name = No_1685-gen_results/8p0m/2024-11-26-14-13-15/
REMARK  3 active torsions:
REMARK  status: ('A' for Active; 'I' for Inactive)
REMARK    1  A    between atoms: C_3  and  C_7
REMARK    2  A    between atoms: C_5  and  C_14
REMARK    3  A    between atoms: C_7  and  C_8
REMARK                            x       y       z     vdW  Elec       q    Type
REMARK                         _______ _______ _______ _____ _____    ______ ____
ROOT
ATOM      1  C   UNL A   1     -28.016  -0.814  28.878  0.00  0.00    -0.004 A 
ATOM      2  C   UNL A   1     -28.469  -0.785  29.829  0.00  0.00    -0.000 A 
ATOM      3  C   UNL A   1     -28.196   0.348  28.055  0.00  0.00    -0.018 A 
ATOM      4  C   UNL A   1     -29.019   1.350  28.378  0.00  0.00    +0.003 A 
ATOM      5  C   UNL A   1     -29.625   1.268  29.601  0.00  0.00    +0.080 A 
ATOM      6  C   UNL A   1     -29.382   0.182  30.400  0.00  0.00    +0.007 A 
ENDROOT
BRANCH   5   7
ATOM      7  C   UNL A   1     -30.532   2.364  30.023  0.00  0.00    +0.388 C 
ATOM      8  O   UNL A   1     -30.544   2.855  31.026  0.00  0.00    -0.241 OA
ATOM      9  O   UNL A   1     -31.337   2.730  28.996  0.00  0.00    -0.241 OA
ENDBRANCH   5   7
BRANCH   3  10
ATOM     10  C   UNL A   1     -27.450   0.375  26.707  0.00  0.00    +0.053 C 
BRANCH  10  11
ATOM     11  C   UNL A   1     -26.479   1.370  26.605  0.00  0.00    -0.018 A 
ATOM     12  C   UNL A   1     -25.157   0.979  26.331  0.00  0.00    -0.004 A 
ATOM     13  C   UNL A   1     -24.078   1.893  26.325  0.00  0.00    -0.000 A 
ATOM     14  C   UNL A   1     -24.414   3.219  26.645  0.00  0.00    -0.000 A 
ATOM     15  C   UNL A   1     -25.689   3.664  26.925  0.00  0.00    -0.000 A 
ATOM     16  C   UNL A   1     -26.719   2.673  26.955  0.00  0.00    -0.004 A 
ENDBRANCH  10  11
ENDBRANCH   3  10
TORSDOF 3
