MODEL 1685
MODEL 1
REMARK VINA RESULT:    -6.779      0.000      0.000
REMARK INTER + INTRA:          -8.565
REMARK INTER:                  -7.968
REMARK INTRA:                  -0.597
REMARK UNBOUND:                -0.597
REMARK  Name = No_1685-gen_results/8p0m/2024-11-26-14-13-15/
REMARK  3 active torsions:
REMARK  status: ('A' for Active; 'I' for Inactive)
REMARK    1  A    between atoms: C_3  and  C_7
REMARK    2  A    between atoms: C_5  and  C_14
REMARK    3  A    between atoms: C_7  and  C_8
REMARK                            x       y       z     vdW  Elec       q    Type
REMARK                         _______ _______ _______ _____ _____    ______ ____
ROOT
ATOM      1  C   UNL A   1     -12.745   2.260  37.275  0.00  0.00    -0.004 A 
ATOM      2  C   UNL A   1     -13.448   2.778  36.685  0.00  0.00    -0.000 A 
ATOM      3  C   UNL A   1     -11.786   1.463  36.563  0.00  0.00    -0.018 A 
ATOM      4  C   UNL A   1     -11.858   1.237  35.248  0.00  0.00    +0.003 A 
ATOM      5  C   UNL A   1     -12.850   1.892  34.573  0.00  0.00    +0.080 A 
ATOM      6  C   UNL A   1     -13.710   2.704  35.263  0.00  0.00    +0.007 A 
ENDROOT
BRANCH   5   7
ATOM      7  C   UNL A   1     -12.964   1.697  33.106  0.00  0.00    +0.388 C 
ATOM      8  O   UNL A   1     -12.309   1.044  32.479  0.00  0.00    -0.241 OA
ATOM      9  O   UNL A   1     -14.015   2.399  32.618  0.00  0.00    -0.241 OA
ENDBRANCH   5   7
BRANCH   3  10
ATOM     10  C   UNL A   1     -10.680   0.788  37.397  0.00  0.00    +0.053 C 
BRANCH  10  11
ATOM     11  C   UNL A   1     -11.101  -0.328  38.118  0.00  0.00    -0.018 A 
ATOM     12  C   UNL A   1     -11.213  -1.553  37.437  0.00  0.00    -0.004 A 
ATOM     13  C   UNL A   1     -11.743  -2.716  38.042  0.00  0.00    -0.000 A 
ATOM     14  C   UNL A   1     -12.182  -2.555  39.367  0.00  0.00    -0.000 A 
ATOM     15  C   UNL A   1     -12.101  -1.381  40.087  0.00  0.00    -0.000 A 
ATOM     16  C   UNL A   1     -11.595  -0.239  39.393  0.00  0.00    -0.004 A 
ENDBRANCH  10  11
ENDBRANCH   3  10
TORSDOF 3
ENDMDL
ENDMDL
