MODEL 1686
MODEL 1
REMARK VINA RESULT:    -8.494      0.000      0.000
REMARK INTER + INTRA:         -12.040
REMARK INTER:                 -10.977
REMARK INTRA:                  -1.063
REMARK UNBOUND:                -1.063
REMARK  Name = No_1686-gen_results/8p0m/2024-11-26-14-13-15/
REMARK  5 active torsions:
REMARK  status: ('A' for Active; 'I' for Inactive)
REMARK    1  A    between atoms: C_3  and  C_8
REMARK    2  A    between atoms: C_6  and  O_7
REMARK    3  A    between atoms: O_7  and  C_14
REMARK    4  A    between atoms: C_14  and  C_15
REMARK    5  A    between atoms: N_17  and  C_18
REMARK                            x       y       z     vdW  Elec       q    Type
REMARK                         _______ _______ _______ _____ _____    ______ ____
ROOT
ATOM      1  C   UNL A   1     -22.993   1.584  27.260  0.00  0.00    +0.286 C 
ATOM      2  O   UNL A   1     -22.236   2.262  27.828  0.00  0.00    -0.269 OA
ATOM      3  N   UNL A   1     -23.740   0.680  28.150  0.00  0.00    -0.202 NA
ENDROOT
BRANCH   3   4
ATOM      4  C   UNL A   1     -23.513   0.554  29.519  0.00  0.00    +0.118 C 
ATOM      5  C   UNL A   1     -24.273   1.320  30.340  0.00  0.00    +0.051 C 
ATOM      6  C   UNL A   1     -24.230   1.131  31.596  0.00  0.00    -0.007 A 
ATOM      7  C   UNL A   1     -25.130   1.848  32.515  0.00  0.00    -0.003 A 
ATOM      8  C   UNL A   1     -25.667   1.251  33.291  0.00  0.00    -0.000 A 
ATOM      9  C   UNL A   1     -25.324  -0.035  33.833  0.00  0.00    +0.001 A 
ATOM     10  C   UNL A   1     -24.456  -0.728  33.051  0.00  0.00    +0.014 A 
ATOM     11  C   UNL A   1     -24.017  -0.184  31.896  0.00  0.00    +0.044 A 
ATOM     12  C   UNL A   1     -23.796  -0.853  29.983  0.00  0.00    +0.093 C 
ATOM     13  C   UNL A   1     -23.266  -1.878  28.978  0.00  0.00    +0.021 C 
ATOM     14  N   UNL A   1     -24.062  -0.732  30.663  0.00  0.00    -0.308 N 
ATOM     15  C   UNL A   1     -25.169  -1.924  30.664  0.00  0.00    +0.091 C 
ATOM     16  C   UNL A   1     -24.988  -3.062  29.913  0.00  0.00    +0.021 C 
ATOM     17  C   UNL A   1     -24.115  -2.978  28.878  0.00  0.00    +0.004 C 
ENDBRANCH   3   4
BRANCH   1  18
ATOM     18  C   UNL A   1     -23.446   1.860  26.076  0.00  0.00    +0.291 C 
BRANCH  18  19
ATOM     19  O   UNL A   1     -24.640   2.478  26.118  0.00  0.00    -0.466 OA
BRANCH  19  25
ATOM     20  C   UNL A   1     -25.822   0.526  25.195  0.00  0.00    +0.037 A 
ATOM     21  C   UNL A   1     -26.824   0.025  24.740  0.00  0.00    +0.003 A 
ATOM     22  C   UNL A   1     -27.947   0.795  24.457  0.00  0.00    +0.000 A 
ATOM     23  C   UNL A   1     -27.968   2.207  24.740  0.00  0.00    +0.003 A 
ATOM     24  C   UNL A   1     -26.776   2.700  25.287  0.00  0.00    +0.037 A 
ATOM     25  C   UNL A   1     -25.748   1.926  25.551  0.00  0.00    +0.139 A 
BRANCH  22  26
ATOM     26  C   UNL A   1     -29.248   0.290  23.881  0.00  0.00    +0.000 A 
ATOM     27  C   UNL A   1     -30.215   1.136  23.574  0.00  0.00    +0.000 A 
ATOM     28  C   UNL A   1     -31.483   0.641  23.094  0.00  0.00    +0.000 A 
ATOM     29  C   UNL A   1     -31.766  -0.735  23.049  0.00  0.00    +0.000 A 
ATOM     30  C   UNL A   1     -29.543  -1.108  23.862  0.00  0.00    +0.000 A 
ATOM     31  C   UNL A   1     -30.813  -1.586  23.400  0.00  0.00    +0.000 A 
ENDBRANCH  22  26
ENDBRANCH  19  25
ENDBRANCH  18  19
ENDBRANCH   1  18
TORSDOF 5
ENDMDL
ENDMDL
