REMARK  Name = No_1686-gen_results/8p0m/2024-11-26-14-13-15/
REMARK  5 active torsions:
REMARK  status: ('A' for Active; 'I' for Inactive)
REMARK    1  A    between atoms: C_3  and  C_8
REMARK    2  A    between atoms: C_6  and  O_7
REMARK    3  A    between atoms: O_7  and  C_14
REMARK    4  A    between atoms: C_14  and  C_15
REMARK    5  A    between atoms: N_17  and  C_18
REMARK                            x       y       z     vdW  Elec       q    Type
REMARK                         _______ _______ _______ _____ _____    ______ ____
ROOT
ATOM      1  C   UNL A   1     -31.195  -2.709  30.129  0.00  0.00    +0.286 C 
ATOM      2  O   UNL A   1     -31.990  -2.159  29.481  0.00  0.00    -0.269 OA
ATOM      3  N   UNL A   1     -31.247  -4.174  29.988  0.00  0.00    -0.202 NA
ENDROOT
BRANCH   3   4
ATOM      4  C   UNL A   1     -32.204  -4.862  29.245  0.00  0.00    +0.118 C 
ATOM      5  C   UNL A   1     -31.914  -5.101  27.942  0.00  0.00    +0.051 C 
ATOM      6  C   UNL A   1     -32.667  -5.864  27.259  0.00  0.00    -0.007 A 
ATOM      7  C   UNL A   1     -32.323  -6.254  25.882  0.00  0.00    -0.003 A 
ATOM      8  C   UNL A   1     -32.398  -7.335  25.612  0.00  0.00    -0.000 A 
ATOM      9  C   UNL A   1     -33.171  -8.369  26.244  0.00  0.00    +0.001 A 
ATOM     10  C   UNL A   1     -33.560  -8.046  27.505  0.00  0.00    +0.014 A 
ATOM     11  C   UNL A   1     -33.205  -6.854  28.030  0.00  0.00    +0.044 A 
ATOM     12  C   UNL A   1     -32.438  -6.239  29.815  0.00  0.00    +0.093 C 
ATOM     13  C   UNL A   1     -32.476  -6.199  31.344  0.00  0.00    +0.021 C 
ATOM     14  N   UNL A   1     -32.574  -6.630  29.201  0.00  0.00    -0.308 N 
ATOM     15  C   UNL A   1     -31.844  -8.006  29.671  0.00  0.00    +0.091 C 
ATOM     16  C   UNL A   1     -31.752  -8.343  31.001  0.00  0.00    +0.021 C 
ATOM     17  C   UNL A   1     -31.889  -7.335  31.898  0.00  0.00    +0.004 C 
ENDBRANCH   3   4
BRANCH   1  18
ATOM     18  C   UNL A   1     -30.125  -2.132  30.584  0.00  0.00    +0.291 C 
BRANCH  18  19
ATOM     19  O   UNL A   1     -29.000  -2.701  30.115  0.00  0.00    -0.466 OA
BRANCH  19  25
ATOM     20  C   UNL A   1     -28.016  -0.814  28.878  0.00  0.00    +0.037 A 
ATOM     21  C   UNL A   1     -27.064  -0.119  28.608  0.00  0.00    +0.003 A 
ATOM     22  C   UNL A   1     -25.792  -0.430  29.076  0.00  0.00    +0.000 A 
ATOM     23  C   UNL A   1     -25.576  -1.565  29.936  0.00  0.00    +0.003 A 
ATOM     24  C   UNL A   1     -26.735  -2.300  30.217  0.00  0.00    +0.037 A 
ATOM     25  C   UNL A   1     -27.918  -1.954  29.763  0.00  0.00    +0.139 A 
BRANCH  22  26
ATOM     26  C   UNL A   1     -24.529   0.349  28.800  0.00  0.00    +0.000 A 
ATOM     27  C   UNL A   1     -24.481   1.211  27.800  0.00  0.00    +0.000 A 
ATOM     28  C   UNL A   1     -23.248   1.897  27.495  0.00  0.00    +0.000 A 
ATOM     29  C   UNL A   1     -22.050   1.589  28.164  0.00  0.00    +0.000 A 
ATOM     30  C   UNL A   1     -23.307   0.015  29.462  0.00  0.00    +0.000 A 
ATOM     31  C   UNL A   1     -22.085   0.690  29.137  0.00  0.00    +0.000 A 
ENDBRANCH  22  26
ENDBRANCH  19  25
ENDBRANCH  18  19
ENDBRANCH   1  18
TORSDOF 5
