REMARK  Name = No_1687-gen_results/8p0m/2024-11-26-14-13-15/
REMARK  3 active torsions:
REMARK  status: ('A' for Active; 'I' for Inactive)
REMARK    1  A    between atoms: C_6  and  O_7
REMARK    2  A    between atoms: O_7  and  C_9
REMARK    3  A    between atoms: C_9  and  C_10
REMARK                            x       y       z     vdW  Elec       q    Type
REMARK                         _______ _______ _______ _____ _____    ______ ____
ROOT
ATOM      1  O   UNL A   1     -29.000  -2.701  30.115  0.00  0.00    -0.471 OA
ENDROOT
BRANCH   1   7
ATOM      2  C   UNL A   1     -28.016  -0.814  28.878  0.00  0.00    +0.037 A 
ATOM      3  C   UNL A   1     -27.064  -0.119  28.608  0.00  0.00    +0.010 A 
ATOM      4  C   UNL A   1     -25.792  -0.430  29.076  0.00  0.00    +0.035 A 
ATOM      5  C   UNL A   1     -25.576  -1.565  29.936  0.00  0.00    +0.010 A 
ATOM      6  C   UNL A   1     -26.735  -2.300  30.217  0.00  0.00    +0.037 A 
ATOM      7  C   UNL A   1     -27.918  -1.954  29.763  0.00  0.00    +0.139 A 
ATOM      8 BR   UNL A   1     -24.217   0.577  28.708  0.00  0.00    -0.049 Br
ENDBRANCH   1   7
BRANCH   1   9
ATOM      9  C   UNL A   1     -30.097  -2.098  30.621  0.00  0.00    +0.232 C 
BRANCH   9  10
ATOM     10  C   UNL A   1     -30.095  -1.194  31.327  0.00  0.00    +0.021 A 
ATOM     11  C   UNL A   1     -28.831  -0.771  31.981  0.00  0.00    -0.001 A 
ATOM     12  C   UNL A   1     -28.672   0.105  32.605  0.00  0.00    -0.000 A 
ATOM     13  C   UNL A   1     -29.711   0.943  33.072  0.00  0.00    -0.000 A 
ATOM     14  C   UNL A   1     -30.993   0.590  32.573  0.00  0.00    -0.000 A 
ATOM     15  C   UNL A   1     -31.124  -0.413  31.741  0.00  0.00    -0.001 A 
ENDBRANCH   9  10
ENDBRANCH   1   9
TORSDOF 3
