MODEL 1687
MODEL 1
REMARK VINA RESULT:    -6.575      0.000      0.000
REMARK INTER + INTRA:          -8.068
REMARK INTER:                  -7.728
REMARK INTRA:                  -0.340
REMARK UNBOUND:                -0.340
REMARK  Name = No_1687-gen_results/8p0m/2024-11-26-14-13-15/
REMARK  3 active torsions:
REMARK  status: ('A' for Active; 'I' for Inactive)
REMARK    1  A    between atoms: C_6  and  O_7
REMARK    2  A    between atoms: O_7  and  C_9
REMARK    3  A    between atoms: C_9  and  C_10
REMARK                            x       y       z     vdW  Elec       q    Type
REMARK                         _______ _______ _______ _____ _____    ______ ____
ROOT
ATOM      1  O   UNL A   1     -23.103  -2.451  28.884  0.00  0.00    -0.471 OA
ENDROOT
BRANCH   1   7
ATOM      2  C   UNL A   1     -24.593  -4.407  29.006  0.00  0.00    +0.037 A 
ATOM      3  C   UNL A   1     -25.633  -4.913  29.359  0.00  0.00    +0.010 A 
ATOM      4  C   UNL A   1     -26.645  -4.150  29.931  0.00  0.00    +0.035 A 
ATOM      5  C   UNL A   1     -26.469  -2.739  30.163  0.00  0.00    +0.010 A 
ATOM      6  C   UNL A   1     -25.227  -2.241  29.747  0.00  0.00    +0.037 A 
ATOM      7  C   UNL A   1     -24.297  -3.008  29.227  0.00  0.00    +0.139 A 
ATOM      8 BR   UNL A   1     -28.328  -4.828  30.512  0.00  0.00    -0.049 Br
ENDBRANCH   1   7
BRANCH   1   9
ATOM      9  C   UNL A   1     -22.786  -1.216  29.327  0.00  0.00    +0.232 C 
BRANCH   9  10
ATOM     10  C   UNL A   1     -22.517  -0.319  28.665  0.00  0.00    +0.021 A 
ATOM     11  C   UNL A   1     -23.556   0.302  27.806  0.00  0.00    -0.001 A 
ATOM     12  C   UNL A   1     -23.459   1.196  27.194  0.00  0.00    -0.000 A 
ATOM     13  C   UNL A   1     -22.235   1.862  26.955  0.00  0.00    -0.000 A 
ATOM     14  C   UNL A   1     -21.138   1.308  27.668  0.00  0.00    -0.000 A 
ATOM     15  C   UNL A   1     -21.321   0.292  28.474  0.00  0.00    -0.001 A 
ENDBRANCH   9  10
ENDBRANCH   1   9
TORSDOF 3
ENDMDL
ENDMDL
