MODEL 1688
MODEL 1
REMARK VINA RESULT:    -6.482      0.000      0.000
REMARK INTER + INTRA:          -7.194
REMARK INTER:                  -6.861
REMARK INTRA:                  -0.333
REMARK UNBOUND:                -0.333
REMARK  Name = No_1688-gen_results/8p0m/2024-11-26-14-13-15/
REMARK  1 active torsions:
REMARK  status: ('A' for Active; 'I' for Inactive)
REMARK    1  A    between atoms: C_3  and  C_4
REMARK                            x       y       z     vdW  Elec       q    Type
REMARK                         _______ _______ _______ _____ _____    ______ ____
ROOT
ATOM      1  C   UNL A   1     -26.445  -3.599  29.874  0.00  0.00    +0.000 A 
ATOM      2  C   UNL A   1     -25.827  -2.575  29.692  0.00  0.00    +0.000 A 
ATOM      3  C   UNL A   1     -24.598  -2.522  29.036  0.00  0.00    +0.000 A 
ATOM      4  C   UNL A   1     -25.834  -4.894  29.611  0.00  0.00    +0.000 A 
ATOM      5  C   UNL A   1     -24.673  -4.995  28.859  0.00  0.00    +0.000 A 
ATOM      6  C   UNL A   1     -23.988  -3.796  28.588  0.00  0.00    +0.000 A 
ENDROOT
BRANCH   3   7
ATOM      7  C   UNL A   1     -23.774  -1.325  28.781  0.00  0.00    +0.000 A 
ATOM      8  C   UNL A   1     -24.320  -0.379  27.860  0.00  0.00    +0.000 A 
ATOM      9  C   UNL A   1     -23.578   0.758  27.541  0.00  0.00    +0.000 A 
ATOM     10  C   UNL A   1     -22.263   0.859  28.012  0.00  0.00    +0.000 A 
ATOM     11  C   UNL A   1     -21.725  -0.058  28.883  0.00  0.00    +0.000 A 
ATOM     12  C   UNL A   1     -22.494  -1.189  29.233  0.00  0.00    +0.000 A 
ENDBRANCH   3   7
TORSDOF 1
ENDMDL
ENDMDL
