REMARK  Name = No_1688-gen_results/8p0m/2024-11-26-14-13-15/
REMARK  1 active torsions:
REMARK  status: ('A' for Active; 'I' for Inactive)
REMARK    1  A    between atoms: C_3  and  C_4
REMARK                            x       y       z     vdW  Elec       q    Type
REMARK                         _______ _______ _______ _____ _____    ______ ____
ROOT
ATOM      1  C   UNL A   1     -28.016  -0.814  28.878  0.00  0.00    +0.000 A 
ATOM      2  C   UNL A   1     -27.064  -0.119  28.608  0.00  0.00    +0.000 A 
ATOM      3  C   UNL A   1     -25.765  -0.390  29.036  0.00  0.00    +0.000 A 
ATOM      4  C   UNL A   1     -27.906  -1.877  29.867  0.00  0.00    +0.000 A 
ATOM      5  C   UNL A   1     -26.665  -2.332  30.289  0.00  0.00    +0.000 A 
ATOM      6  C   UNL A   1     -25.548  -1.561  29.918  0.00  0.00    +0.000 A 
ENDROOT
BRANCH   3   7
ATOM      7  C   UNL A   1     -24.552   0.406  28.765  0.00  0.00    +0.000 A 
ATOM      8  C   UNL A   1     -24.696   1.448  27.799  0.00  0.00    +0.000 A 
ATOM      9  C   UNL A   1     -23.582   2.216  27.463  0.00  0.00    +0.000 A 
ATOM     10  C   UNL A   1     -22.329   1.843  27.966  0.00  0.00    +0.000 A 
ATOM     11  C   UNL A   1     -22.181   0.828  28.881  0.00  0.00    +0.000 A 
ATOM     12  C   UNL A   1     -23.319   0.077  29.247  0.00  0.00    +0.000 A 
ENDBRANCH   3   7
TORSDOF 1
