REMARK  Name = No_1689-gen_results/8p0m/2024-11-26-14-13-15/
REMARK  3 active torsions:
REMARK  status: ('A' for Active; 'I' for Inactive)
REMARK    1  A    between atoms: C_1  and  C_2
REMARK    2  A    between atoms: C_1  and  C_8
REMARK    3  A    between atoms: C_3  and  N_15
REMARK                            x       y       z     vdW  Elec       q    Type
REMARK                         _______ _______ _______ _____ _____    ______ ____
ROOT
ATOM      1  C   UNL A   1     -27.064  -0.119  28.608  0.00  0.00    -0.004 A 
ATOM      2  C   UNL A   1     -27.001   0.691  27.491  0.00  0.00    +0.045 A 
ATOM      3  C   UNL A   1     -25.855   1.482  27.083  0.00  0.00    +0.026 A 
ATOM      4  C   UNL A   1     -24.690   1.453  27.881  0.00  0.00    +0.059 A 
ATOM      5  C   UNL A   1     -24.738   0.601  29.042  0.00  0.00    +0.011 A 
ATOM      6  C   UNL A   1     -25.823  -0.169  29.389  0.00  0.00    -0.002 A 
ATOM      7 CL   UNL A   1     -23.290   2.292  27.502  0.00  0.00    -0.082 Cl
ENDROOT
BRANCH   2   8
ATOM      8  N   UNL A   1     -28.051   0.778  26.640  0.00  0.00    -0.308 N 
ATOM      9  C   UNL A   1     -28.020   0.772  25.328  0.00  0.00    +0.091 C 
ATOM     10  C   UNL A   1     -28.934   0.958  24.673  0.00  0.00    +0.021 C 
ATOM     11  C   UNL A   1     -30.156   0.625  25.069  0.00  0.00    +0.004 C 
ATOM     12  C   UNL A   1     -30.370   0.435  26.431  0.00  0.00    +0.021 C 
ATOM     13  C   UNL A   1     -29.294   0.596  27.256  0.00  0.00    +0.091 C 
ENDBRANCH   2   8
BRANCH   1  14
ATOM     14  C   UNL A   1     -28.016  -0.814  28.878  0.00  0.00    +0.054 C 
BRANCH  14  15
ATOM     15  C   UNL A   1     -28.735  -0.464  30.142  0.00  0.00    -0.018 A 
ATOM     16  C   UNL A   1     -28.783   0.612  30.517  0.00  0.00    -0.004 A 
ATOM     17  C   UNL A   1     -29.593   0.957  31.796  0.00  0.00    -0.000 A 
ATOM     18  C   UNL A   1     -30.190  -0.114  32.426  0.00  0.00    -0.000 A 
ATOM     19  C   UNL A   1     -29.533  -1.507  30.924  0.00  0.00    -0.004 A 
ATOM     20  C   UNL A   1     -30.168  -1.320  32.008  0.00  0.00    -0.000 A 
ENDBRANCH  14  15
ENDBRANCH   1  14
TORSDOF 3
