MODEL 168
MODEL 1
REMARK VINA RESULT:    -4.751      0.000      0.000
REMARK INTER + INTRA:          -5.063
REMARK INTER:                  -5.029
REMARK INTRA:                  -0.035
REMARK UNBOUND:                -0.035
REMARK  Name = No_168-gen_results/8p0m/2024-11-26-14-13-15/
REMARK  1 active torsions:
REMARK  status: ('A' for Active; 'I' for Inactive)
REMARK    1  A    between atoms: C_7  and  C_8
REMARK                            x       y       z     vdW  Elec       q    Type
REMARK                         _______ _______ _______ _____ _____    ______ ____
ROOT
ATOM      1  O   UNL A   1     -30.530 -10.132  29.551  0.00  0.00    -0.273 OA
ATOM      2  C   UNL A   1     -29.810 -10.418  30.515  0.00  0.00    +0.241 C 
ATOM      3  N   UNL A   1     -29.869 -10.096  31.459  0.00  0.00    -0.205 NA
ATOM      4  C   UNL A   1     -28.708 -11.632  30.396  0.00  0.00    +0.087 C 
ATOM      5  C   UNL A   1     -27.964 -11.999  31.503  0.00  0.00    +0.023 C 
ATOM      6  C   UNL A   1     -29.138 -10.305  32.736  0.00  0.00    +0.126 C 
ATOM      7  C   UNL A   1     -28.149 -11.302  32.670  0.00  0.00    +0.126 C 
ENDROOT
BRANCH   7   8
ATOM      8  C   UNL A   1     -27.337 -11.616  33.830  0.00  0.00    +0.366 C 
ATOM      9  O   UNL A   1     -26.831 -12.797  33.958  0.00  0.00    -0.246 OA
ATOM     10  O   UNL A   1     -26.914 -10.685  34.591  0.00  0.00    -0.246 OA
ENDBRANCH   7   8
TORSDOF 1
ENDMDL
ENDMDL
