REMARK  Name = No_169-gen_results/8p0m/2024-11-26-14-13-15/
REMARK  4 active torsions:
REMARK  status: ('A' for Active; 'I' for Inactive)
REMARK    1  A    between atoms: C_3  and  C_7
REMARK    2  A    between atoms: C_7  and  C_9
REMARK    3  A    between atoms: C_9  and  C_10
REMARK    4  A    between atoms: C_11  and  C_12
REMARK                            x       y       z     vdW  Elec       q    Type
REMARK                         _______ _______ _______ _____ _____    ______ ____
ROOT
ATOM      1  C   UNL A   1     -27.496   0.387  26.681  0.00  0.00    +0.027 C 
ATOM      2  C   UNL A   1     -28.015   0.597  25.663  0.00  0.00    +0.005 C 
ENDROOT
BRANCH   1   5
ATOM      3  C   UNL A   1     -28.016  -0.814  28.878  0.00  0.00    -0.004 A 
ATOM      4  C   UNL A   1     -28.469  -0.785  29.829  0.00  0.00    -0.000 A 
ATOM      5  C   UNL A   1     -28.196   0.348  28.055  0.00  0.00    -0.022 A 
ATOM      6  C   UNL A   1     -29.019   1.350  28.378  0.00  0.00    -0.004 A 
ATOM      7  C   UNL A   1     -29.233   0.059  30.345  0.00  0.00    -0.000 A 
ATOM      8  C   UNL A   1     -29.533   1.206  29.660  0.00  0.00    -0.000 A 
ENDBRANCH   1   5
BRANCH   1   9
ATOM      9  C   UNL A   1     -26.029   0.169  26.723  0.00  0.00    +0.030 C 
BRANCH   9  10
ATOM     10  C   UNL A   1     -25.172   1.177  27.177  0.00  0.00    -0.024 C 
ATOM     11  C   UNL A   1     -23.906   0.922  27.752  0.00  0.00    +0.018 C 
BRANCH  11  12
ATOM     12  C   UNL A   1     -22.957   1.950  27.791  0.00  0.00    +0.122 C 
ATOM     13  N   UNL A   1     -21.736   1.657  28.372  0.00  0.00    -0.146 NA
ENDBRANCH  11  12
ENDBRANCH   9  10
ENDBRANCH   1   9
TORSDOF 4
