REMARK  Name = No_1690-gen_results/8p0m/2024-11-26-14-13-15/
REMARK  1 active torsions:
REMARK  status: ('A' for Active; 'I' for Inactive)
REMARK    1  A    between atoms: C_3  and  C_7
REMARK                            x       y       z     vdW  Elec       q    Type
REMARK                         _______ _______ _______ _____ _____    ______ ____
ROOT
ATOM      1  C   UNL A   1     -28.016  -0.814  28.878  0.00  0.00    +0.000 A 
ATOM      2  C   UNL A   1     -28.469  -0.785  29.829  0.00  0.00    +0.000 A 
ATOM      3  C   UNL A   1     -27.087   0.290  28.638  0.00  0.00    +0.000 A 
ATOM      4  C   UNL A   1     -26.832   1.249  29.587  0.00  0.00    +0.000 A 
ATOM      5  C   UNL A   1     -28.391   0.080  31.006  0.00  0.00    +0.000 A 
ATOM      6  C   UNL A   1     -27.494   1.152  30.784  0.00  0.00    +0.000 A 
ENDROOT
BRANCH   3   7
ATOM      7  C   UNL A   1     -26.311   0.392  27.364  0.00  0.00    +0.000 A 
ATOM      8  C   UNL A   1     -24.969   0.248  27.481  0.00  0.00    +0.000 A 
ATOM      9  C   UNL A   1     -26.924   0.576  26.138  0.00  0.00    +0.000 A 
ATOM     10  C   UNL A   1     -26.209   0.423  24.976  0.00  0.00    +0.000 A 
ATOM     11  C   UNL A   1     -24.163   0.344  26.297  0.00  0.00    +0.000 A 
ATOM     12  C   UNL A   1     -24.829   0.397  25.041  0.00  0.00    +0.000 A 
ENDBRANCH   3   7
TORSDOF 1
