MODEL 1690
MODEL 1
REMARK VINA RESULT:    -6.441      0.000      0.000
REMARK INTER + INTRA:          -7.196
REMARK INTER:                  -6.818
REMARK INTRA:                  -0.378
REMARK UNBOUND:                -0.378
REMARK  Name = No_1690-gen_results/8p0m/2024-11-26-14-13-15/
REMARK  1 active torsions:
REMARK  status: ('A' for Active; 'I' for Inactive)
REMARK    1  A    between atoms: C_3  and  C_7
REMARK                            x       y       z     vdW  Elec       q    Type
REMARK                         _______ _______ _______ _____ _____    ______ ____
ROOT
ATOM      1  C   UNL A   1     -24.430  -0.393  27.760  0.00  0.00    +0.000 A 
ATOM      2  C   UNL A   1     -23.838   0.465  27.610  0.00  0.00    +0.000 A 
ATOM      3  C   UNL A   1     -23.813  -1.385  28.640  0.00  0.00    +0.000 A 
ATOM      4  C   UNL A   1     -22.585  -1.182  29.220  0.00  0.00    +0.000 A 
ATOM      5  C   UNL A   1     -22.538   0.942  28.082  0.00  0.00    +0.000 A 
ATOM      6  C   UNL A   1     -21.932  -0.010  28.935  0.00  0.00    +0.000 A 
ENDROOT
BRANCH   3   7
ATOM      7  C   UNL A   1     -24.523  -2.647  29.011  0.00  0.00    +0.000 A 
ATOM      8  C   UNL A   1     -25.765  -2.491  29.530  0.00  0.00    +0.000 A 
ATOM      9  C   UNL A   1     -23.970  -3.897  28.797  0.00  0.00    +0.000 A 
ATOM     10  C   UNL A   1     -24.740  -5.026  28.923  0.00  0.00    +0.000 A 
ATOM     11  C   UNL A   1     -26.499  -3.663  29.916  0.00  0.00    +0.000 A 
ATOM     12  C   UNL A   1     -25.963  -4.932  29.560  0.00  0.00    +0.000 A 
ENDBRANCH   3   7
TORSDOF 1
ENDMDL
ENDMDL
