REMARK  Name = No_1691-gen_results/8p0m/2024-11-26-14-13-15/
REMARK  3 active torsions:
REMARK  status: ('A' for Active; 'I' for Inactive)
REMARK    1  A    between atoms: C_1  and  C_2
REMARK    2  A    between atoms: C_5  and  C_10
REMARK    3  A    between atoms: CA_9  and  C_13
REMARK                            x       y       z     vdW  Elec       q    Type
REMARK                         _______ _______ _______ _____ _____    ______ ____
ROOT
ATOM      1  C   UNL A   1     -27.064  -0.119  28.608  0.00  0.00    +0.018 A 
ATOM      2  C   UNL A   1     -25.792  -0.430  29.076  0.00  0.00    +0.002 A 
ATOM      3  C   UNL A   1     -24.546   0.349  28.823  0.00  0.00    +0.007 A 
ATOM      4  C   UNL A   1     -24.659   1.420  27.888  0.00  0.00    +0.080 A 
ATOM      5  C   UNL A   1     -25.947   1.681  27.379  0.00  0.00    +0.007 A 
ATOM      6  C   UNL A   1     -27.044   0.974  27.687  0.00  0.00    +0.002 A 
ENDROOT
BRANCH   1   7
ATOM      7  C   UNL A   1     -28.016  -0.814  28.878  0.00  0.00    +0.081 A 
ATOM      8  N   UNL A   1     -29.188  -0.147  29.092  0.00  0.00    -0.242 NA
ATOM      9  CA  UNL A   1     -30.202  -0.783  29.730  0.00  0.00    +0.123 A 
ATOM     10  C   UNL A   1     -29.947  -1.795  30.750  0.00  0.00    +0.022 A 
ATOM     11  C   UNL A   1     -28.647  -2.083  31.169  0.00  0.00    +0.003 A 
ATOM     12  C   UNL A   1     -27.670  -1.878  29.975  0.00  0.00    +0.019 A 
BRANCH   9  13
ATOM     13  C   UNL A   1     -31.513  -0.479  29.440  0.00  0.00    +0.253 C 
ATOM     14  O   UNL A   1     -31.787   0.560  28.905  0.00  0.00    -0.281 OA
ENDBRANCH   9  13
ENDBRANCH   1   7
BRANCH   4  15
ATOM     15  C   UNL A   1     -23.451   2.152  27.601  0.00  0.00    +0.388 C 
ATOM     16  O   UNL A   1     -22.316   1.863  28.059  0.00  0.00    -0.241 OA
ATOM     17  O   UNL A   1     -23.592   3.221  26.847  0.00  0.00    -0.241 OA
ENDBRANCH   4  15
TORSDOF 3
