MODEL 1692
MODEL 1
REMARK VINA RESULT:    -5.126      0.000      0.000
REMARK INTER + INTRA:          -5.646
REMARK INTER:                  -5.426
REMARK INTRA:                  -0.220
REMARK UNBOUND:                -0.220
REMARK  Name = No_1692-gen_results/8p0m/2024-11-26-14-13-15/
REMARK  1 active torsions:
REMARK  status: ('A' for Active; 'I' for Inactive)
REMARK    1  A    between atoms: C_3  and  C_4
REMARK                            x       y       z     vdW  Elec       q    Type
REMARK                         _______ _______ _______ _____ _____    ______ ____
ROOT
ATOM      1  C   UNL A   1     -25.897  -2.588  29.874  0.00  0.00    +0.004 A 
ATOM      2  C   UNL A   1     -26.445  -3.481  29.982  0.00  0.00    -0.000 A 
ATOM      3  C   UNL A   1     -24.618  -2.666  29.281  0.00  0.00    +0.071 A 
ATOM      4  C   UNL A   1     -26.114  -4.873  29.629  0.00  0.00    -0.000 A 
ATOM      5  C   UNL A   1     -24.860  -5.028  29.038  0.00  0.00    -0.000 A 
ATOM      6  C   UNL A   1     -24.097  -3.929  28.805  0.00  0.00    +0.004 A 
ENDROOT
BRANCH   3   7
ATOM      7  C   UNL A   1     -23.765  -1.493  28.957  0.00  0.00    +0.419 C 
ATOM      8  F   UNL A   1     -22.654  -1.856  28.969  0.00  0.00    -0.166 F 
ATOM      9  F   UNL A   1     -23.893  -0.613  29.984  0.00  0.00    -0.166 F 
ATOM     10  F   UNL A   1     -24.123  -0.888  27.799  0.00  0.00    -0.166 F 
ENDBRANCH   3   7
TORSDOF 1
ENDMDL
ENDMDL
