REMARK  Name = No_1693-gen_results/8p0m/2024-11-26-14-13-15/
REMARK  1 active torsions:
REMARK  status: ('A' for Active; 'I' for Inactive)
REMARK    1  A    between atoms: C_6  and  N_8
REMARK                            x       y       z     vdW  Elec       q    Type
REMARK                         _______ _______ _______ _____ _____    ______ ____
ROOT
ATOM      1  O   UNL A   1     -28.123  -1.335  28.487  0.00  0.00    -0.273 OA
ATOM      2  C   UNL A   1     -27.481  -0.404  28.709  0.00  0.00    +0.243 C 
ATOM      3  C   UNL A   1     -27.190   0.246  29.527  0.00  0.00    +0.087 C 
ATOM      4  N   UNL A   1     -26.816   0.137  27.426  0.00  0.00    -0.183 NA
ATOM      5  C   UNL A   1     -26.355   1.420  29.764  0.00  0.00    +0.013 C 
ATOM      6  C   UNL A   1     -26.071   1.199  27.545  0.00  0.00    +0.197 C 
ATOM      7  C   UNL A   1     -25.759   1.906  28.613  0.00  0.00    +0.047 C 
ENDROOT
BRANCH   6   8
ATOM      8  N   UNL A   1     -25.480   1.650  26.297  0.00  0.00    -0.254 NA
ATOM      9  C   UNL A   1     -24.619   2.754  26.354  0.00  0.00    +0.069 C 
ATOM     10  C   UNL A   1     -24.375   3.438  27.472  0.00  0.00    +0.053 C 
ENDBRANCH   6   8
TORSDOF 1
