MODEL 1693
MODEL 1
REMARK VINA RESULT:    -4.435      0.000      0.000
REMARK INTER + INTRA:          -4.610
REMARK INTER:                  -4.694
REMARK INTRA:                   0.084
REMARK UNBOUND:                 0.084
REMARK  Name = No_1693-gen_results/8p0m/2024-11-26-14-13-15/
REMARK  1 active torsions:
REMARK  status: ('A' for Active; 'I' for Inactive)
REMARK    1  A    between atoms: C_6  and  N_8
REMARK                            x       y       z     vdW  Elec       q    Type
REMARK                         _______ _______ _______ _____ _____    ______ ____
ROOT
ATOM      1  O   UNL A   1     -23.641  -5.173  28.121  0.00  0.00    -0.273 OA
ATOM      2  C   UNL A   1     -24.249  -4.382  28.699  0.00  0.00    +0.243 C 
ATOM      3  C   UNL A   1     -25.214  -4.238  29.172  0.00  0.00    +0.087 C 
ATOM      4  N   UNL A   1     -23.458  -3.065  28.846  0.00  0.00    -0.183 NA
ATOM      5  C   UNL A   1     -25.942  -3.210  29.911  0.00  0.00    +0.013 C 
ATOM      6  C   UNL A   1     -24.045  -2.086  29.474  0.00  0.00    +0.197 C 
ATOM      7  C   UNL A   1     -25.233  -2.029  30.043  0.00  0.00    +0.047 C 
ENDROOT
BRANCH   6   8
ATOM      8  N   UNL A   1     -23.241  -0.880  29.573  0.00  0.00    -0.254 NA
ATOM      9  C   UNL A   1     -23.428   0.101  28.591  0.00  0.00    +0.069 C 
ATOM     10  C   UNL A   1     -24.249  -0.048  27.550  0.00  0.00    +0.053 C 
ENDBRANCH   6   8
TORSDOF 1
ENDMDL
ENDMDL
