REMARK  Name = No_1694-gen_results/8p0m/2024-11-26-14-13-15/
REMARK  3 active torsions:
REMARK  status: ('A' for Active; 'I' for Inactive)
REMARK    1  A    between atoms: C_2  and  C_7
REMARK    2  A    between atoms: C_4  and  C_11
REMARK    3  A    between atoms: C_11  and  C_12
REMARK                            x       y       z     vdW  Elec       q    Type
REMARK                         _______ _______ _______ _____ _____    ______ ____
ROOT
ATOM      1  C   UNL A   1     -28.016  -0.814  28.878  0.00  0.00    +0.004 A 
ATOM      2  C   UNL A   1     -28.469  -0.785  29.829  0.00  0.00    +0.055 A 
ATOM      3  C   UNL A   1     -26.546  -0.876  28.850  0.00  0.00    -0.004 A 
ATOM      4  C   UNL A   1     -25.804  -1.032  30.057  0.00  0.00    -0.018 A 
ATOM      5  C   UNL A   1     -27.944  -0.987  31.207  0.00  0.00    +0.004 A 
ATOM      6  C   UNL A   1     -26.582  -1.039  31.223  0.00  0.00    -0.004 A 
ENDROOT
BRANCH   2   7
ATOM      7  C   UNL A   1     -30.061  -0.737  29.902  0.00  0.00    +0.265 C 
ATOM      8  O   UNL A   1     -30.552  -0.277  29.011  0.00  0.00    -0.268 OA
ATOM      9  N   UNL A   1     -30.743  -1.289  30.994  0.00  0.00    -0.200 NA
ATOM     10  C   UNL A   1     -32.171  -1.260  30.975  0.00  0.00    +0.139 C 
ENDBRANCH   2   7
BRANCH   4  11
ATOM     11  C   UNL A   1     -24.369  -1.088  30.088  0.00  0.00    +0.053 C 
BRANCH  11  12
ATOM     12  C   UNL A   1     -23.581  -0.780  29.076  0.00  0.00    -0.018 A 
ATOM     13  C   UNL A   1     -22.132  -0.686  29.193  0.00  0.00    -0.004 A 
ATOM     14  C   UNL A   1     -21.396  -0.158  28.141  0.00  0.00    -0.000 A 
ATOM     15  C   UNL A   1     -22.034   0.862  27.331  0.00  0.00    -0.000 A 
ATOM     16  C   UNL A   1     -23.461   1.012  27.368  0.00  0.00    -0.000 A 
ATOM     17  C   UNL A   1     -24.173   0.295  28.216  0.00  0.00    -0.004 A 
ENDBRANCH  11  12
ENDBRANCH   4  11
TORSDOF 3
