MODEL 1694
MODEL 1
REMARK VINA RESULT:    -6.074      0.000      0.000
REMARK INTER + INTRA:          -7.540
REMARK INTER:                  -7.140
REMARK INTRA:                  -0.400
REMARK UNBOUND:                -0.400
REMARK  Name = No_1694-gen_results/8p0m/2024-11-26-14-13-15/
REMARK  3 active torsions:
REMARK  status: ('A' for Active; 'I' for Inactive)
REMARK    1  A    between atoms: C_2  and  C_7
REMARK    2  A    between atoms: C_4  and  C_11
REMARK    3  A    between atoms: C_11  and  C_12
REMARK                            x       y       z     vdW  Elec       q    Type
REMARK                         _______ _______ _______ _____ _____    ______ ____
ROOT
ATOM      1  C   UNL A   1     -26.449  -2.164  30.352  0.00  0.00    +0.004 A 
ATOM      2  C   UNL A   1     -26.356  -3.167  30.044  0.00  0.00    +0.055 A 
ATOM      3  C   UNL A   1     -25.275  -1.300  30.147  0.00  0.00    -0.004 A 
ATOM      4  C   UNL A   1     -24.136  -1.781  29.439  0.00  0.00    -0.018 A 
ATOM      5  C   UNL A   1     -25.327  -3.890  29.248  0.00  0.00    +0.004 A 
ATOM      6  C   UNL A   1     -24.217  -3.124  29.047  0.00  0.00    -0.004 A 
ENDROOT
BRANCH   2   7
ATOM      7  C   UNL A   1     -27.612  -4.131  30.231  0.00  0.00    +0.265 C 
ATOM      8  O   UNL A   1     -27.352  -5.200  30.419  0.00  0.00    -0.268 OA
ATOM      9  N   UNL A   1     -28.916  -3.618  30.204  0.00  0.00    -0.200 NA
ATOM     10  C   UNL A   1     -29.996  -4.525  30.429  0.00  0.00    +0.139 C 
ENDBRANCH   2   7
BRANCH   4  11
ATOM     11  C   UNL A   1     -22.961  -0.984  29.220  0.00  0.00    +0.053 C 
BRANCH  11  12
ATOM     12  C   UNL A   1     -22.776  -0.181  28.191  0.00  0.00    -0.018 A 
ATOM     13  C   UNL A   1     -21.871   0.960  28.221  0.00  0.00    -0.004 A 
ATOM     14  C   UNL A   1     -21.888   1.872  27.175  0.00  0.00    -0.000 A 
ATOM     15  C   UNL A   1     -23.155   2.087  26.502  0.00  0.00    -0.000 A 
ATOM     16  C   UNL A   1     -24.209   1.124  26.645  0.00  0.00    -0.000 A 
ATOM     17  C   UNL A   1     -24.059   0.106  27.470  0.00  0.00    -0.004 A 
ENDBRANCH  11  12
ENDBRANCH   4  11
TORSDOF 3
ENDMDL
ENDMDL
