MODEL 1695
MODEL 1
REMARK VINA RESULT:    -6.319      0.000      0.000
REMARK INTER + INTRA:          -6.766
REMARK INTER:                  -6.689
REMARK INTRA:                  -0.077
REMARK UNBOUND:                -0.077
REMARK  Name = No_1695-gen_results/8p0m/2024-11-26-14-13-15/
REMARK  1 active torsions:
REMARK  status: ('A' for Active; 'I' for Inactive)
REMARK    1  A    between atoms: C_9  and  C_11
REMARK                            x       y       z     vdW  Elec       q    Type
REMARK                         _______ _______ _______ _____ _____    ______ ____
ROOT
ATOM      1  C   UNL A   1     -30.673  -9.828  29.540  0.00  0.00    +0.000 A 
ATOM      2  C   UNL A   1     -30.595 -10.151  28.541  0.00  0.00    +0.000 A 
ATOM      3  C   UNL A   1     -29.945 -10.537  30.521  0.00  0.00    +0.000 A 
ATOM      4  C   UNL A   1     -29.859 -10.147  31.953  0.00  0.00    +0.000 A 
ATOM      5  C   UNL A   1     -29.845 -11.265  27.935  0.00  0.00    +0.000 A 
ATOM      6  C   UNL A   1     -29.102 -12.014  28.847  0.00  0.00    +0.000 A 
ATOM      7  C   UNL A   1     -29.092 -11.646  30.154  0.00  0.00    +0.000 A 
ATOM      8  C   UNL A   1     -29.111 -10.301  32.790  0.00  0.00    +0.007 A 
ATOM      9  C   UNL A   1     -28.010 -11.309  32.415  0.00  0.00    +0.080 A 
ATOM     10  C   UNL A   1     -28.035 -11.944  31.151  0.00  0.00    +0.007 A 
ENDROOT
BRANCH   9  11
ATOM     11  C   UNL A   1     -27.028 -11.736  33.488  0.00  0.00    +0.388 C 
ATOM     12  O   UNL A   1     -26.764 -12.944  33.697  0.00  0.00    -0.241 OA
ATOM     13  O   UNL A   1     -27.167 -11.170  34.623  0.00  0.00    -0.241 OA
ENDBRANCH   9  11
TORSDOF 1
ENDMDL
ENDMDL
