MODEL 1696
MODEL 1
REMARK VINA RESULT:    -6.246      0.000      0.000
REMARK INTER + INTRA:          -6.783
REMARK INTER:                  -6.612
REMARK INTRA:                  -0.171
REMARK UNBOUND:                -0.171
REMARK  Name = No_1696-gen_results/8p0m/2024-11-26-14-13-15/
REMARK  1 active torsions:
REMARK  status: ('A' for Active; 'I' for Inactive)
REMARK    1  A    between atoms: C_5  and  C_11
REMARK                            x       y       z     vdW  Elec       q    Type
REMARK                         _______ _______ _______ _____ _____    ______ ____
ROOT
ATOM      1  C   UNL A   1     -22.594   1.624  27.553  0.00  0.00    -0.000 A 
ATOM      2  C   UNL A   1     -23.088   0.590  27.936  0.00  0.00    -0.000 A 
ATOM      3  C   UNL A   1     -24.217   0.013  27.356  0.00  0.00    -0.000 A 
ATOM      4  C   UNL A   1     -24.892  -1.234  27.765  0.00  0.00    -0.000 A 
ATOM      5  C   UNL A   1     -24.196  -2.032  28.724  0.00  0.00    -0.004 A 
ATOM      6  C   UNL A   1     -23.032  -1.511  29.299  0.00  0.00    -0.000 A 
ATOM      7  C   UNL A   1     -22.499  -0.320  28.945  0.00  0.00    -0.000 A 
ATOM      8  C   UNL A   1     -23.478   2.617  26.868  0.00  0.00    +0.000 A 
ATOM      9  C   UNL A   1     -24.521   2.070  26.037  0.00  0.00    -0.000 A 
ATOM     10  C   UNL A   1     -25.020   0.809  26.404  0.00  0.00    -0.000 A 
ENDROOT
BRANCH   5  11
ATOM     11  C   UNL A   1     -24.818  -3.322  29.115  0.00  0.00    -0.022 C 
ATOM     12  C   UNL A   1     -25.950  -3.278  29.671  0.00  0.00    -0.005 C 
ATOM     13  C   UNL A   1     -24.236  -4.560  28.731  0.00  0.00    +0.031 C 
ENDBRANCH   5  11
TORSDOF 1
ENDMDL
ENDMDL
