REMARK  Name = No_1697-gen_results/8p0m/2024-11-26-14-13-15/
REMARK  2 active torsions:
REMARK  status: ('A' for Active; 'I' for Inactive)
REMARK    1  A    between atoms: C_2  and  C_3
REMARK    2  A    between atoms: C_2  and  N_4
REMARK                            x       y       z     vdW  Elec       q    Type
REMARK                         _______ _______ _______ _____ _____    ______ ____
ROOT
ATOM      1  C   UNL A   1     -26.402  -0.062  28.622  0.00  0.00    +0.055 A 
ATOM      2  C   UNL A   1     -25.033   0.374  29.048  0.00  0.00    +0.005 A 
ATOM      3  C   UNL A   1     -24.229   1.447  28.628  0.00  0.00    +0.000 A 
ATOM      4  C   UNL A   1     -24.793   2.238  27.568  0.00  0.00    +0.000 A 
ATOM      5  C   UNL A   1     -26.025   1.955  27.080  0.00  0.00    +0.000 A 
ATOM      6  C   UNL A   1     -26.750   0.938  27.488  0.00  0.00    +0.005 A 
ENDROOT
BRANCH   1   8
ATOM      7  O   UNL A   1     -28.123  -1.335  28.487  0.00  0.00    -0.268 OA
ATOM      8  C   UNL A   1     -27.064  -0.824  28.869  0.00  0.00    +0.269 C 
BRANCH   8   9
ATOM      9  N   UNL A   1     -26.381  -1.799  29.962  0.00  0.00    -0.173 NA
ATOM     10  C   UNL A   1     -26.775  -2.939  30.150  0.00  0.00    +0.107 C 
ENDBRANCH   8   9
ENDBRANCH   1   8
TORSDOF 2
