MODEL 1697
MODEL 1
REMARK VINA RESULT:    -5.044      0.000      0.000
REMARK INTER + INTRA:          -5.730
REMARK INTER:                  -5.634
REMARK INTRA:                  -0.096
REMARK UNBOUND:                -0.096
REMARK  Name = No_1697-gen_results/8p0m/2024-11-26-14-13-15/
REMARK  2 active torsions:
REMARK  status: ('A' for Active; 'I' for Inactive)
REMARK    1  A    between atoms: C_2  and  C_3
REMARK    2  A    between atoms: C_2  and  N_4
REMARK                            x       y       z     vdW  Elec       q    Type
REMARK                         _______ _______ _______ _____ _____    ______ ____
ROOT
ATOM      1  C   UNL A   1     -24.076  -2.670  29.081  0.00  0.00    +0.055 A 
ATOM      2  C   UNL A   1     -23.960  -4.128  28.757  0.00  0.00    +0.005 A 
ATOM      3  C   UNL A   1     -24.862  -5.191  28.929  0.00  0.00    +0.000 A 
ATOM      4  C   UNL A   1     -26.094  -4.831  29.576  0.00  0.00    +0.000 A 
ATOM      5  C   UNL A   1     -26.334  -3.545  29.931  0.00  0.00    +0.000 A 
ATOM      6  C   UNL A   1     -25.466  -2.574  29.764  0.00  0.00    +0.005 A 
ENDROOT
BRANCH   1   8
ATOM      7  O   UNL A   1     -22.287  -1.492  28.969  0.00  0.00    -0.268 OA
ATOM      8  C   UNL A   1     -23.477  -1.825  28.993  0.00  0.00    +0.269 C 
BRANCH   8   9
ATOM      9  N   UNL A   1     -24.376  -0.576  28.500  0.00  0.00    -0.173 NA
ATOM     10  C   UNL A   1     -24.158   0.006  27.449  0.00  0.00    +0.107 C 
ENDBRANCH   8   9
ENDBRANCH   1   8
TORSDOF 2
ENDMDL
ENDMDL
