REMARK  Name = No_1698-gen_results/8p0m/2024-11-26-14-13-15/
REMARK  3 active torsions:
REMARK  status: ('A' for Active; 'I' for Inactive)
REMARK    1  A    between atoms: C_2  and  O_7
REMARK    2  A    between atoms: O_7  and  C_8
REMARK    3  A    between atoms: C_9  and  C_15
REMARK                            x       y       z     vdW  Elec       q    Type
REMARK                         _______ _______ _______ _____ _____    ______ ____
ROOT
ATOM      1  C   UNL A   1     -24.632  -0.333  28.253  0.00  0.00    +0.152 A 
ATOM      2  C   UNL A   1     -23.921  -1.252  28.990  0.00  0.00    +0.114 A 
ATOM      3  C   UNL A   1     -22.622  -0.952  29.320  0.00  0.00    +0.010 A 
ATOM      4  C   UNL A   1     -24.089   0.910  27.895  0.00  0.00    +0.038 A 
ATOM      5  C   UNL A   1     -22.814   1.249  28.316  0.00  0.00    +0.003 A 
ATOM      6  C   UNL A   1     -22.036   0.330  28.999  0.00  0.00    +0.000 A 
ENDROOT
BRANCH   2   7
ATOM      7  C   UNL A   1     -24.402  -2.551  29.281  0.00  0.00    +0.391 C 
ATOM      8  O   UNL A   1     -25.193  -3.056  28.869  0.00  0.00    -0.240 OA
ATOM      9  O   UNL A   1     -23.697  -3.190  30.248  0.00  0.00    -0.240 OA
ENDBRANCH   2   7
BRANCH   1  10
ATOM     10  O   UNL A   1     -25.991  -0.612  27.857  0.00  0.00    -0.453 OA
BRANCH  10  12
ATOM     11  C   UNL A   1     -28.016  -0.814  28.878  0.00  0.00    +0.067 A 
ATOM     12  C   UNL A   1     -27.064  -0.119  28.608  0.00  0.00    +0.147 A 
ATOM     13  C   UNL A   1     -26.929   1.171  29.008  0.00  0.00    +0.038 A 
ATOM     14  C   UNL A   1     -27.956   1.741  29.784  0.00  0.00    +0.005 A 
ATOM     15  C   UNL A   1     -29.057  -0.327  29.747  0.00  0.00    +0.143 A 
ATOM     16  C   UNL A   1     -28.983   0.972  30.152  0.00  0.00    +0.030 A 
ATOM     17  F   UNL A   1     -30.044  -1.128  30.100  0.00  0.00    -0.204 F 
ENDBRANCH  10  12
ENDBRANCH   1  10
TORSDOF 3
