MODEL 1698
MODEL 1
REMARK VINA RESULT:    -6.661      0.000      0.000
REMARK INTER + INTRA:          -8.413
REMARK INTER:                  -7.830
REMARK INTRA:                  -0.583
REMARK UNBOUND:                -0.583
REMARK  Name = No_1698-gen_results/8p0m/2024-11-26-14-13-15/
REMARK  3 active torsions:
REMARK  status: ('A' for Active; 'I' for Inactive)
REMARK    1  A    between atoms: C_2  and  O_7
REMARK    2  A    between atoms: O_7  and  C_8
REMARK    3  A    between atoms: C_9  and  C_15
REMARK                            x       y       z     vdW  Elec       q    Type
REMARK                         _______ _______ _______ _____ _____    ______ ____
ROOT
ATOM      1  C   UNL A   1     -24.735  -2.554  29.331  0.00  0.00    +0.152 A 
ATOM      2  C   UNL A   1     -25.900  -3.023  29.894  0.00  0.00    +0.114 A 
ATOM      3  C   UNL A   1     -26.207  -4.352  29.734  0.00  0.00    +0.010 A 
ATOM      4  C   UNL A   1     -23.838  -3.404  28.666  0.00  0.00    +0.038 A 
ATOM      5  C   UNL A   1     -24.103  -4.761  28.595  0.00  0.00    +0.003 A 
ATOM      6  C   UNL A   1     -25.295  -5.267  29.085  0.00  0.00    +0.000 A 
ENDROOT
BRANCH   2   7
ATOM      7  C   UNL A   1     -26.871  -2.178  30.481  0.00  0.00    +0.391 C 
ATOM      8  O   UNL A   1     -26.885  -1.761  31.417  0.00  0.00    -0.240 OA
ATOM      9  O   UNL A   1     -27.920  -1.903  29.666  0.00  0.00    -0.240 OA
ENDBRANCH   2   7
BRANCH   1  10
ATOM     10  O   UNL A   1     -24.380  -1.160  29.446  0.00  0.00    -0.453 OA
BRANCH  10  12
ATOM     11  C   UNL A   1     -23.368   0.406  28.140  0.00  0.00    +0.067 A 
ATOM     12  C   UNL A   1     -24.293  -0.354  28.305  0.00  0.00    +0.147 A 
ATOM     13  C   UNL A   1     -25.309  -0.516  27.419  0.00  0.00    +0.038 A 
ATOM     14  C   UNL A   1     -25.290   0.244  26.235  0.00  0.00    +0.005 A 
ATOM     15  C   UNL A   1     -23.234   1.144  26.910  0.00  0.00    +0.143 A 
ATOM     16  C   UNL A   1     -24.243   1.038  26.000  0.00  0.00    +0.030 A 
ATOM     17  F   UNL A   1     -22.173   1.903  26.712  0.00  0.00    -0.204 F 
ENDBRANCH  10  12
ENDBRANCH   1  10
TORSDOF 3
ENDMDL
ENDMDL
