MODEL 1699
MODEL 1
REMARK VINA RESULT:    -4.957      0.000      0.000
REMARK INTER + INTRA:          -5.298
REMARK INTER:                  -5.247
REMARK INTRA:                  -0.050
REMARK UNBOUND:                -0.050
REMARK  Name = No_1699-gen_results/8p0m/2024-11-26-14-13-15/
REMARK  1 active torsions:
REMARK  status: ('A' for Active; 'I' for Inactive)
REMARK    1  A    between atoms: C_5  and  C_7
REMARK                            x       y       z     vdW  Elec       q    Type
REMARK                         _______ _______ _______ _____ _____    ______ ____
ROOT
ATOM      1  C   UNL A   1     -10.525  -9.400  18.572  0.00  0.00    +0.000 A 
ATOM      2  C   UNL A   1     -10.352 -10.261  17.741  0.00  0.00    +0.000 A 
ATOM      3  C   UNL A   1      -9.186 -10.991  17.581  0.00  0.00    +0.000 A 
ATOM      4  C   UNL A   1      -8.121 -10.720  18.490  0.00  0.00    +0.005 A 
ATOM      5  C   UNL A   1      -8.401  -9.864  19.494  0.00  0.00    +0.055 A 
ATOM      6  C   UNL A   1      -9.595  -9.277  19.606  0.00  0.00    +0.005 A 
ENDROOT
BRANCH   5   7
ATOM      7  C   UNL A   1      -7.293  -9.642  20.444  0.00  0.00    +0.265 C 
ATOM      8  N   UNL A   1      -7.081 -10.288  21.327  0.00  0.00    -0.200 NA
ATOM      9  O   UNL A   1      -6.591  -8.551  20.269  0.00  0.00    -0.268 OA
ATOM     10  C   UNL A   1      -5.972 -10.137  22.340  0.00  0.00    +0.139 C 
ENDBRANCH   5   7
TORSDOF 1
ENDMDL
ENDMDL
