MODEL 169
MODEL 1
REMARK VINA RESULT:    -5.637      0.000      0.000
REMARK INTER + INTRA:          -7.553
REMARK INTER:                  -6.955
REMARK INTRA:                  -0.598
REMARK UNBOUND:                -0.598
REMARK  Name = No_169-gen_results/8p0m/2024-11-26-14-13-15/
REMARK  4 active torsions:
REMARK  status: ('A' for Active; 'I' for Inactive)
REMARK    1  A    between atoms: C_3  and  C_7
REMARK    2  A    between atoms: C_7  and  C_9
REMARK    3  A    between atoms: C_9  and  C_10
REMARK    4  A    between atoms: C_11  and  C_12
REMARK                            x       y       z     vdW  Elec       q    Type
REMARK                         _______ _______ _______ _____ _____    ______ ____
ROOT
ATOM      1  C   UNL A   1     -22.959  -0.298  28.977  0.00  0.00    +0.027 C 
ATOM      2  C   UNL A   1     -21.935  -0.389  29.520  0.00  0.00    +0.005 C 
ENDROOT
BRANCH   1   5
ATOM      3  C   UNL A   1     -22.345   1.627  27.410  0.00  0.00    -0.004 A 
ATOM      4  C   UNL A   1     -22.536   2.148  26.514  0.00  0.00    -0.000 A 
ATOM      5  C   UNL A   1     -23.234   0.542  27.713  0.00  0.00    -0.022 A 
ATOM      6  C   UNL A   1     -24.342   0.288  27.011  0.00  0.00    -0.004 A 
ATOM      7  C   UNL A   1     -23.476   2.050  25.696  0.00  0.00    -0.000 A 
ATOM      8  C   UNL A   1     -24.429   1.084  25.876  0.00  0.00    -0.000 A 
ENDBRANCH   1   5
BRANCH   1   9
ATOM      9  C   UNL A   1     -24.144  -1.000  29.529  0.00  0.00    +0.030 C 
BRANCH   9  10
ATOM     10  C   UNL A   1     -24.164  -2.396  29.626  0.00  0.00    -0.024 C 
ATOM     11  C   UNL A   1     -24.506  -3.246  28.550  0.00  0.00    +0.018 C 
BRANCH  11  12
ATOM     12  C   UNL A   1     -24.108  -4.587  28.589  0.00  0.00    +0.122 C 
ATOM     13  N   UNL A   1     -24.927  -5.466  29.275  0.00  0.00    -0.146 NA
ENDBRANCH  11  12
ENDBRANCH   9  10
ENDBRANCH   1   9
TORSDOF 4
ENDMDL
ENDMDL
