MODEL 16
MODEL 1
REMARK VINA RESULT:    -7.419      0.000      0.000
REMARK INTER + INTRA:         -10.160
REMARK INTER:                  -9.154
REMARK INTRA:                  -1.006
REMARK UNBOUND:                -1.006
REMARK  Name = No_16-gen_results/8p0m/2024-11-26-14-13-15/
REMARK  4 active torsions:
REMARK  status: ('A' for Active; 'I' for Inactive)
REMARK    1  A    between atoms: C_2  and  C_7
REMARK    2  A    between atoms: C_8  and  C_10
REMARK    3  A    between atoms: C_10  and  C_14
REMARK    4  A    between atoms: C_10  and  C_15
REMARK                            x       y       z     vdW  Elec       q    Type
REMARK                         _______ _______ _______ _____ _____    ______ ____
ROOT
ATOM      1  C   UNL A   1     -24.677  -1.042  30.531  0.00  0.00    -0.003 A 
ATOM      2  C   UNL A   1     -24.130  -0.071  30.035  0.00  0.00    -0.009 A 
ATOM      3  C   UNL A   1     -25.319  -0.851  31.843  0.00  0.00    -0.000 A 
ATOM      4  C   UNL A   1     -23.992   1.242  30.691  0.00  0.00    -0.004 A 
ATOM      5  C   UNL A   1     -24.455   1.475  31.917  0.00  0.00    -0.000 A 
ATOM      6  C   UNL A   1     -25.203   0.362  32.538  0.00  0.00    -0.000 A 
ENDROOT
BRANCH   1   8
ATOM      7  C   UNL A   1     -23.977  -3.067  29.453  0.00  0.00    -0.000 A 
ATOM      8  C   UNL A   1     -24.841  -2.423  30.001  0.00  0.00    -0.000 A 
ATOM      9  C   UNL A   1     -26.111  -2.952  30.205  0.00  0.00    -0.000 A 
ATOM     10  C   UNL A   1     -26.451  -4.268  29.728  0.00  0.00    -0.000 A 
ATOM     11  C   UNL A   1     -25.399  -4.933  29.085  0.00  0.00    -0.000 A 
ATOM     12  C   UNL A   1     -24.221  -4.382  28.903  0.00  0.00    -0.000 A 
ENDBRANCH   1   8
BRANCH   2  13
ATOM     13  C   UNL A   1     -23.572  -0.073  28.724  0.00  0.00    +0.127 C 
BRANCH  13  14
ATOM     14  C   UNL A   1     -24.181   0.144  27.484  0.00  0.00    +0.070 A 
ATOM     15  N   UNL A   1     -23.744   1.048  26.772  0.00  0.00    -0.247 NA
ATOM     16  C   UNL A   1     -25.298  -0.656  27.021  0.00  0.00    +0.015 A 
ATOM     17  C   UNL A   1     -23.821   1.412  25.732  0.00  0.00    +0.099 A 
ATOM     18  C   UNL A   1     -25.677  -0.308  25.606  0.00  0.00    +0.003 A 
ATOM     19  C   UNL A   1     -25.012   0.751  24.964  0.00  0.00    +0.021 A 
ENDBRANCH  13  14
BRANCH  13  20
ATOM     20  C   UNL A   1     -22.044  -0.096  28.630  0.00  0.00    +0.217 C 
ATOM     21  O   UNL A   1     -21.326  -1.046  28.967  0.00  0.00    -0.287 OA
ENDBRANCH  13  20
ENDBRANCH   2  13
TORSDOF 4
ENDMDL
ENDMDL
