REMARK  Name = No_17-gen_results/8p0m/2024-11-26-14-13-15/
REMARK  11 active torsions:
REMARK  status: ('A' for Active; 'I' for Inactive)
REMARK    1  A    between atoms: C_2  and  C_7
REMARK    2  A    between atoms: C_4  and  C_10
REMARK    3  A    between atoms: C_11  and  C_17
REMARK    4  A    between atoms: C_17  and  O_19
REMARK    5  A    between atoms: O_19  and  C_20
REMARK    6  A    between atoms: C_20  and  C_21
REMARK    7  A    between atoms: C_21  and  C_22
REMARK    8  A    between atoms: C_21  and  C_29
REMARK    9  A    between atoms: C_22  and  C_23
REMARK   10  A    between atoms: C_30  and  C_31
REMARK   11  A    between atoms: C_32  and  C_33
REMARK                            x       y       z     vdW  Elec       q    Type
REMARK                         _______ _______ _______ _____ _____    ______ ____
ROOT
ATOM      1  C   UNL A   1     -24.295   1.414  30.755  0.00  0.00    +0.341 C 
ATOM      2  O   UNL A   1     -24.385   1.589  31.885  0.00  0.00    -0.245 OA
ENDROOT
BRANCH   1   4
ATOM      3  C   UNL A   1     -24.371  -1.095  30.078  0.00  0.00    +0.034 A 
ATOM      4  C   UNL A   1     -23.703   0.190  30.101  0.00  0.00    +0.078 A 
ATOM      5  C   UNL A   1     -22.458   0.338  29.418  0.00  0.00    +0.007 A 
ATOM      6  C   UNL A   1     -21.792  -0.847  29.029  0.00  0.00    +0.003 A 
ATOM      7  C   UNL A   1     -22.552  -2.022  28.930  0.00  0.00    +0.030 A 
ATOM      8  C   UNL A   1     -23.805  -2.178  29.436  0.00  0.00    +0.140 A 
ATOM      9  F   UNL A   1     -24.378  -3.304  29.363  0.00  0.00    -0.204 F 
BRANCH   3  13
ATOM     10  C   UNL A   1     -28.016  -0.814  28.878  0.00  0.00    +0.007 A 
ATOM     11  C   UNL A   1     -28.469  -0.785  29.829  0.00  0.00    +0.080 A 
ATOM     12  C   UNL A   1     -26.546  -0.876  28.850  0.00  0.00    +0.000 A 
ATOM     13  C   UNL A   1     -25.804  -1.032  30.057  0.00  0.00    +0.002 A 
ATOM     14  C   UNL A   1     -27.944  -0.987  31.207  0.00  0.00    +0.007 A 
ATOM     15  C   UNL A   1     -26.582  -1.039  31.223  0.00  0.00    +0.000 A 
BRANCH  11  16
ATOM     16  C   UNL A   1     -30.061  -0.737  29.902  0.00  0.00    +0.388 C 
ATOM     17  O   UNL A   1     -30.605   0.086  30.707  0.00  0.00    -0.241 OA
ATOM     18  O   UNL A   1     -30.670  -1.459  29.073  0.00  0.00    -0.241 OA
ENDBRANCH  11  16
ENDBRANCH   3  13
ENDBRANCH   1   4
BRANCH   1  19
ATOM     19  O   UNL A   1     -24.862   2.317  29.859  0.00  0.00    -0.445 OA
BRANCH  19  20
ATOM     20  C   UNL A   1     -25.865   3.101  30.217  0.00  0.00    +0.213 C 
BRANCH  20  21
ATOM     21  C   UNL A   1     -26.590   3.680  29.150  0.00  0.00    +0.070 C 
BRANCH  21  22
ATOM     22  C   UNL A   1     -28.091   3.366  29.279  0.00  0.00    -0.022 C 
ATOM     23  C   UNL A   1     -28.964   4.439  29.213  0.00  0.00    -0.004 C 
BRANCH  23  24
ATOM     24  C   UNL A   1     -30.375   4.226  29.368  0.00  0.00    -0.000 C 
ATOM     25  C   UNL A   1     -30.761   2.883  29.448  0.00  0.00    -0.000 C 
BRANCH  25  26
ATOM     26  C   UNL A   1     -32.157   2.726  29.514  0.00  0.00    -0.005 C 
ATOM     27  C   UNL A   1     -32.975   3.763  29.504  0.00  0.00    -0.026 C 
ATOM     28  C   UNL A   1     -32.588   5.053  29.420  0.00  0.00    +0.031 C 
ENDBRANCH  25  26
ENDBRANCH  23  24
ENDBRANCH  21  22
BRANCH  21  29
ATOM     29  C   UNL A   1     -26.222   3.616  27.959  0.00  0.00    +0.034 C 
BRANCH  29  30
ATOM     30  C   UNL A   1     -26.232   2.659  27.308  0.00  0.00    -0.022 A 
ATOM     31  C   UNL A   1     -25.643   2.568  25.955  0.00  0.00    -0.004 A 
ATOM     32  C   UNL A   1     -25.457   1.363  25.276  0.00  0.00    -0.000 A 
ATOM     33  C   UNL A   1     -26.096   0.226  25.572  0.00  0.00    -0.000 A 
ATOM     34  C   UNL A   1     -26.917   0.289  26.714  0.00  0.00    -0.000 A 
ATOM     35  C   UNL A   1     -26.984   1.497  27.487  0.00  0.00    -0.004 A 
ENDBRANCH  29  30
ENDBRANCH  21  29
ENDBRANCH  20  21
ENDBRANCH  19  20
ENDBRANCH   1  19
TORSDOF 11
