MODEL 1700
MODEL 1
REMARK VINA RESULT:    -6.584      0.000      0.000
REMARK INTER + INTRA:          -7.849
REMARK INTER:                  -7.354
REMARK INTRA:                  -0.495
REMARK UNBOUND:                -0.495
REMARK  Name = No_1700-gen_results/8p0m/2024-11-26-14-13-15/
REMARK  2 active torsions:
REMARK  status: ('A' for Active; 'I' for Inactive)
REMARK    1  A    between atoms: C_3  and  C_11
REMARK    2  A    between atoms: C_5  and  C_8
REMARK                            x       y       z     vdW  Elec       q    Type
REMARK                         _______ _______ _______ _____ _____    ______ ____
ROOT
ATOM      1 CL   UNL A   1     -31.041  -9.565  29.985  0.00  0.00    -0.082 Cl
ATOM      2  C   UNL A   1     -30.061 -10.206  30.826  0.00  0.00    +0.058 A 
ATOM      3  C   UNL A   1     -29.435 -11.181  30.612  0.00  0.00    +0.011 A 
ATOM      4  C   UNL A   1     -28.446 -11.755  31.521  0.00  0.00    +0.007 A 
ATOM      5  C   UNL A   1     -28.233 -11.137  32.792  0.00  0.00    +0.080 A 
ATOM      6  C   UNL A   1     -28.959 -10.017  33.035  0.00  0.00    +0.007 A 
ATOM      7  C   UNL A   1     -29.833  -9.525  32.144  0.00  0.00    +0.012 A 
ENDROOT
BRANCH   3   8
ATOM      8  C   UNL A   1     -29.497 -11.970  29.335  0.00  0.00    +0.001 A 
ATOM      9  C   UNL A   1     -28.945 -11.568  28.327  0.00  0.00    +0.000 A 
ATOM     10  C   UNL A   1     -29.004 -12.331  27.035  0.00  0.00    +0.000 A 
ATOM     11  C   UNL A   1     -29.599 -13.581  27.123  0.00  0.00    +0.000 A 
ATOM     12  C   UNL A   1     -30.150 -13.990  28.298  0.00  0.00    +0.000 A 
ATOM     13  C   UNL A   1     -30.171 -13.210  29.445  0.00  0.00    +0.000 A 
ENDBRANCH   3   8
BRANCH   5  14
ATOM     14  C   UNL A   1     -27.300 -11.712  33.762  0.00  0.00    +0.388 C 
ATOM     15  O   UNL A   1     -26.729 -12.768  33.619  0.00  0.00    -0.241 OA
ATOM     16  O   UNL A   1     -26.790 -10.817  34.665  0.00  0.00    -0.241 OA
ENDBRANCH   5  14
TORSDOF 2
ENDMDL
ENDMDL
