REMARK  Name = No_1700-gen_results/8p0m/2024-11-26-14-13-15/
REMARK  2 active torsions:
REMARK  status: ('A' for Active; 'I' for Inactive)
REMARK    1  A    between atoms: C_3  and  C_11
REMARK    2  A    between atoms: C_5  and  C_8
REMARK                            x       y       z     vdW  Elec       q    Type
REMARK                         _______ _______ _______ _____ _____    ______ ____
ROOT
ATOM      1 CL   UNL A   1     -28.149  -0.820  28.908  0.00  0.00    -0.082 Cl
ATOM      2  C   UNL A   1     -26.912  -0.080  28.945  0.00  0.00    +0.058 A 
ATOM      3  C   UNL A   1     -26.738   1.044  29.253  0.00  0.00    +0.011 A 
ATOM      4  C   UNL A   1     -25.439   1.712  29.276  0.00  0.00    +0.007 A 
ATOM      5  C   UNL A   1     -24.281   0.989  28.854  0.00  0.00    +0.080 A 
ATOM      6  C   UNL A   1     -24.487  -0.304  28.496  0.00  0.00    +0.007 A 
ATOM      7  C   UNL A   1     -25.705  -0.867  28.524  0.00  0.00    +0.012 A 
ENDROOT
BRANCH   3   8
ATOM      8  C   UNL A   1     -27.815   1.970  29.741  0.00  0.00    +0.001 A 
ATOM      9  C   UNL A   1     -27.936   3.087  29.272  0.00  0.00    +0.000 A 
ATOM     10  C   UNL A   1     -28.996   4.036  29.752  0.00  0.00    +0.000 A 
ATOM     11  C   UNL A   1     -29.902   3.492  30.651  0.00  0.00    +0.000 A 
ATOM     12  C   UNL A   1     -29.736   2.216  31.094  0.00  0.00    +0.000 A 
ATOM     13  C   UNL A   1     -28.680   1.404  30.708  0.00  0.00    +0.000 A 
ENDBRANCH   3   8
BRANCH   5  14
ATOM     14  C   UNL A   1     -22.969   1.635  28.798  0.00  0.00    +0.388 C 
ATOM     15  O   UNL A   1     -21.916   1.043  28.757  0.00  0.00    -0.241 OA
ATOM     16  O   UNL A   1     -22.993   2.944  28.393  0.00  0.00    -0.241 OA
ENDBRANCH   5  14
TORSDOF 2
