REMARK  Name = No_1701-gen_results/8p0m/2024-11-26-14-13-15/
REMARK  4 active torsions:
REMARK  status: ('A' for Active; 'I' for Inactive)
REMARK    1  A    between atoms: C_1  and  C_2
REMARK    2  A    between atoms: C_1  and  C_8
REMARK    3  A    between atoms: C_5  and  C_14
REMARK    4  A    between atoms: C_12  and  C_16
REMARK                            x       y       z     vdW  Elec       q    Type
REMARK                         _______ _______ _______ _____ _____    ______ ____
ROOT
ATOM      1  C   UNL A   1     -28.016  -0.814  28.878  0.00  0.00    +0.053 C 
ENDROOT
BRANCH   1   2
ATOM      2  C   UNL A   1     -27.064  -0.119  28.608  0.00  0.00    -0.018 A 
ATOM      3  C   UNL A   1     -26.972   0.714  27.506  0.00  0.00    -0.003 A 
ATOM      4  C   UNL A   1     -25.820   1.491  27.116  0.00  0.00    +0.010 A 
ATOM      5  C   UNL A   1     -24.656   1.424  27.918  0.00  0.00    +0.068 A 
ATOM      6  C   UNL A   1     -24.711   0.542  29.051  0.00  0.00    +0.010 A 
ATOM      7  C   UNL A   1     -25.804  -0.206  29.388  0.00  0.00    -0.003 A 
BRANCH   5   8
ATOM      8  C   UNL A   1     -23.466   2.156  27.625  0.00  0.00    +0.100 C 
ATOM      9  N   UNL A   1     -22.425   1.611  27.312  0.00  0.00    -0.191 NA
ENDBRANCH   5   8
ENDBRANCH   1   2
BRANCH   1  10
ATOM     10  C   UNL A   1     -29.277  -0.138  29.036  0.00  0.00    -0.018 A 
ATOM     11  C   UNL A   1     -29.865   0.050  29.909  0.00  0.00    -0.004 A 
ATOM     12  C   UNL A   1     -31.116   0.761  29.898  0.00  0.00    -0.000 A 
ATOM     13  C   UNL A   1     -31.627   1.113  28.676  0.00  0.00    +0.007 A 
ATOM     14  C   UNL A   1     -30.953   0.812  27.555  0.00  0.00    +0.080 A 
ATOM     15  C   UNL A   1     -29.753   0.173  27.652  0.00  0.00    +0.003 A 
BRANCH  14  16
ATOM     16  C   UNL A   1     -31.457   1.184  26.215  0.00  0.00    +0.388 C 
ATOM     17  O   UNL A   1     -31.579   2.259  25.840  0.00  0.00    -0.241 OA
ATOM     18  O   UNL A   1     -31.639   0.126  25.424  0.00  0.00    -0.241 OA
ENDBRANCH  14  16
ENDBRANCH   1  10
TORSDOF 4
