REMARK  Name = No_1702-gen_results/8p0m/2024-11-26-14-13-15/
REMARK  3 active torsions:
REMARK  status: ('A' for Active; 'I' for Inactive)
REMARK    1  A    between atoms: C_3  and  C_8
REMARK    2  A    between atoms: C_8  and  C_9
REMARK    3  A    between atoms: C_8  and  C_15
REMARK                            x       y       z     vdW  Elec       q    Type
REMARK                         _______ _______ _______ _____ _____    ______ ____
ROOT
ATOM      1  C   UNL A   1     -26.831   0.981  27.524  0.00  0.00    +0.031 C 
ENDROOT
BRANCH   1   4
ATOM      2  O   UNL A   1     -28.123  -1.335  28.487  0.00  0.00    -0.275 OA
ATOM      3  C   UNL A   1     -27.064  -0.824  28.869  0.00  0.00    +0.226 C 
ATOM      4  C   UNL A   1     -26.402  -0.062  28.622  0.00  0.00    +0.081 C 
ATOM      5  N   UNL A   1     -26.381  -1.799  29.962  0.00  0.00    -0.278 N 
ATOM      6  C   UNL A   1     -25.033   0.374  29.048  0.00  0.00    +0.011 C 
ATOM      7  C   UNL A   1     -24.546  -0.470  30.107  0.00  0.00    +0.022 C 
ATOM      8  C   UNL A   1     -25.236  -1.553  30.471  0.00  0.00    +0.093 C 
ATOM      9  C   UNL A   1     -27.222  -2.971  30.308  0.00  0.00    +0.115 C 
ENDBRANCH   1   4
BRANCH   1  10
ATOM     10  C   UNL A   1     -27.062   2.135  27.718  0.00  0.00    -0.022 A 
ATOM     11  C   UNL A   1     -26.823   2.683  28.988  0.00  0.00    -0.004 A 
ATOM     12  C   UNL A   1     -26.889   3.770  29.357  0.00  0.00    -0.000 A 
ATOM     13  C   UNL A   1     -27.261   4.798  28.320  0.00  0.00    -0.000 A 
ATOM     14  C   UNL A   1     -27.494   4.397  27.033  0.00  0.00    -0.000 A 
ATOM     15  C   UNL A   1     -27.369   3.053  26.713  0.00  0.00    -0.004 A 
ENDBRANCH   1  10
BRANCH   1  16
ATOM     16  C   UNL A   1     -26.980   0.331  26.197  0.00  0.00    +0.005 C 
ATOM     17  C   UNL A   1     -28.130   0.294  25.637  0.00  0.00    +0.000 C 
ENDBRANCH   1  16
TORSDOF 3
