MODEL 1702
MODEL 1
REMARK VINA RESULT:    -6.895      0.000      0.000
REMARK INTER + INTRA:          -8.839
REMARK INTER:                  -8.105
REMARK INTRA:                  -0.734
REMARK UNBOUND:                -0.734
REMARK  Name = No_1702-gen_results/8p0m/2024-11-26-14-13-15/
REMARK  3 active torsions:
REMARK  status: ('A' for Active; 'I' for Inactive)
REMARK    1  A    between atoms: C_3  and  C_8
REMARK    2  A    between atoms: C_8  and  C_9
REMARK    3  A    between atoms: C_8  and  C_15
REMARK                            x       y       z     vdW  Elec       q    Type
REMARK                         _______ _______ _______ _____ _____    ______ ____
ROOT
ATOM      1  C   UNL A   1     -24.618  -1.519  29.703  0.00  0.00    +0.031 C 
ENDROOT
BRANCH   1   4
ATOM      2  O   UNL A   1     -22.233  -0.046  29.375  0.00  0.00    -0.275 OA
ATOM      3  C   UNL A   1     -23.272   0.004  28.707  0.00  0.00    +0.226 C 
ATOM      4  C   UNL A   1     -24.190  -0.473  28.607  0.00  0.00    +0.081 C 
ATOM      5  N   UNL A   1     -23.027   0.975  27.438  0.00  0.00    -0.278 N 
ATOM      6  C   UNL A   1     -25.330  -0.451  27.635  0.00  0.00    +0.011 C 
ATOM      7  C   UNL A   1     -25.090   0.523  26.604  0.00  0.00    +0.022 C 
ATOM      8  C   UNL A   1     -23.914   1.151  26.536  0.00  0.00    +0.093 C 
ATOM      9  C   UNL A   1     -21.697   1.631  27.451  0.00  0.00    +0.115 C 
ENDBRANCH   1   4
BRANCH   1  10
ATOM     10  C   UNL A   1     -24.719  -2.695  29.535  0.00  0.00    -0.022 A 
ATOM     11  C   UNL A   1     -25.923  -3.338  29.864  0.00  0.00    -0.004 A 
ATOM     12  C   UNL A   1     -26.258  -4.425  29.700  0.00  0.00    -0.000 A 
ATOM     13  C   UNL A   1     -25.275  -5.320  28.990  0.00  0.00    -0.000 A 
ATOM     14  C   UNL A   1     -24.071  -4.807  28.590  0.00  0.00    -0.000 A 
ATOM     15  C   UNL A   1     -23.792  -3.471  28.838  0.00  0.00    -0.004 A 
ENDBRANCH   1  10
BRANCH   1  16
ATOM     16  C   UNL A   1     -24.949  -0.846  30.985  0.00  0.00    +0.005 C 
ATOM     17  C   UNL A   1     -24.255  -1.099  32.030  0.00  0.00    +0.000 C 
ENDBRANCH   1  16
TORSDOF 3
ENDMDL
ENDMDL
