REMARK  Name = No_1703-gen_results/8p0m/2024-11-26-14-13-15/
REMARK  5 active torsions:
REMARK  status: ('A' for Active; 'I' for Inactive)
REMARK    1  A    between atoms: C_2  and  C_5
REMARK    2  A    between atoms: C_4  and  C_11
REMARK    3  A    between atoms: N_9  and  C_10
REMARK    4  A    between atoms: C_10  and  C_19
REMARK    5  A    between atoms: C_11  and  C_12
REMARK                            x       y       z     vdW  Elec       q    Type
REMARK                         _______ _______ _______ _____ _____    ______ ____
ROOT
ATOM      1  C   UNL A   1     -28.016  -0.814  28.878  0.00  0.00    +0.046 A 
ATOM      2  C   UNL A   1     -28.469  -0.785  29.829  0.00  0.00    +0.058 A 
ATOM      3  C   UNL A   1     -26.546  -0.876  28.850  0.00  0.00    +0.192 A 
ATOM      4  C   UNL A   1     -25.804  -1.032  30.057  0.00  0.00    +0.021 A 
ATOM      5  C   UNL A   1     -26.575  -1.056  31.201  0.00  0.00    -0.001 A 
ATOM      6  C   UNL A   1     -27.925  -0.974  31.168  0.00  0.00    +0.004 A 
ATOM      7  O   UNL A   1     -25.860  -0.728  27.668  0.00  0.00    -0.287 OA
ENDROOT
BRANCH   2   8
ATOM      8  C   UNL A   1     -30.006  -0.746  29.898  0.00  0.00    +0.265 C 
ATOM      9  O   UNL A   1     -30.634  -0.099  29.160  0.00  0.00    -0.268 OA
ATOM     10  N   UNL A   1     -30.663  -1.281  31.026  0.00  0.00    -0.197 NA
BRANCH  10  11
ATOM     11  C   UNL A   1     -32.101  -1.268  31.088  0.00  0.00    +0.143 C 
BRANCH  11  12
ATOM     12  C   UNL A   1     -32.868  -0.672  30.703  0.00  0.00    +0.019 A 
ATOM     13  C   UNL A   1     -32.548   0.601  30.148  0.00  0.00    +0.096 A 
ATOM     14  N   UNL A   1     -33.516   1.651  30.021  0.00  0.00    -0.243 NA
ATOM     15  C   UNL A   1     -34.621   1.648  30.543  0.00  0.00    +0.099 A 
ATOM     16  C   UNL A   1     -35.095   0.428  30.924  0.00  0.00    +0.020 A 
ATOM     17  C   UNL A   1     -34.119  -0.291  31.778  0.00  0.00    +0.001 A 
ENDBRANCH  11  12
ENDBRANCH  10  11
ENDBRANCH   2   8
BRANCH   4  18
ATOM     18  C   UNL A   1     -24.355  -1.101  30.063  0.00  0.00    +0.056 C 
BRANCH  18  19
ATOM     19  C   UNL A   1     -23.702   0.133  29.912  0.00  0.00    -0.018 A 
ATOM     20  C   UNL A   1     -22.484   0.215  29.152  0.00  0.00    -0.004 A 
ATOM     21  C   UNL A   1     -21.910   1.402  28.819  0.00  0.00    -0.000 A 
ATOM     22  C   UNL A   1     -22.818   2.506  28.579  0.00  0.00    -0.000 A 
ATOM     23  C   UNL A   1     -24.076   2.430  29.233  0.00  0.00    -0.000 A 
ATOM     24  C   UNL A   1     -24.549   1.301  29.894  0.00  0.00    -0.004 A 
ENDBRANCH  18  19
ENDBRANCH   4  18
TORSDOF 5
