REMARK  Name = No_1704-gen_results/8p0m/2024-11-26-14-13-15/
REMARK  2 active torsions:
REMARK  status: ('A' for Active; 'I' for Inactive)
REMARK    1  A    between atoms: C_1  and  C_7
REMARK    2  A    between atoms: C_5  and  N_10
REMARK                            x       y       z     vdW  Elec       q    Type
REMARK                         _______ _______ _______ _____ _____    ______ ____
ROOT
ATOM      1  C   UNL A   1     -28.016  -0.814  28.878  0.00  0.00    +0.081 A 
ATOM      2  C   UNL A   1     -27.064  -0.119  28.608  0.00  0.00    +0.007 A 
ATOM      3  C   UNL A   1     -27.001   0.691  27.491  0.00  0.00    +0.002 A 
ATOM      4  C   UNL A   1     -28.137   0.736  26.635  0.00  0.00    +0.019 A 
ATOM      5  C   UNL A   1     -29.236   0.076  27.069  0.00  0.00    +0.081 A 
ATOM      6  C   UNL A   1     -29.218  -0.643  28.175  0.00  0.00    +0.026 A 
ENDROOT
BRANCH   1   7
ATOM      7  C   UNL A   1     -27.787  -1.667  30.120  0.00  0.00    +0.388 C 
ATOM      8  O   UNL A   1     -26.811  -2.189  30.387  0.00  0.00    -0.241 OA
ATOM      9  O   UNL A   1     -28.825  -1.726  30.971  0.00  0.00    -0.241 OA
ENDBRANCH   1   7
BRANCH   5  10
ATOM     10  N   UNL A   1     -30.267   0.277  26.093  0.00  0.00    -0.248 NA
ATOM     11  C   UNL A   1     -31.430  -0.336  26.418  0.00  0.00    +0.073 C 
ATOM     12  C   UNL A   1     -32.493  -0.222  25.394  0.00  0.00    +0.053 C 
ENDBRANCH   5  10
TORSDOF 2
