MODEL 1705
MODEL 1
REMARK VINA RESULT:    -5.349      0.000      0.000
REMARK INTER + INTRA:          -6.478
REMARK INTER:                  -6.287
REMARK INTRA:                  -0.192
REMARK UNBOUND:                -0.192
REMARK  Name = No_1705-gen_results/8p0m/2024-11-26-14-13-15/
REMARK  3 active torsions:
REMARK  status: ('A' for Active; 'I' for Inactive)
REMARK    1  A    between atoms: C_3  and  C_7
REMARK    2  A    between atoms: C_7  and  N_8
REMARK    3  A    between atoms: N_8  and  C_9
REMARK                            x       y       z     vdW  Elec       q    Type
REMARK                         _______ _______ _______ _____ _____    ______ ____
ROOT
ATOM      1  C   UNL A   1     -23.909  -3.606  28.521  0.00  0.00    -0.003 A 
ATOM      2  C   UNL A   1     -24.118  -4.635  28.608  0.00  0.00    -0.000 A 
ATOM      3  C   UNL A   1     -24.853  -2.695  29.045  0.00  0.00    -0.001 A 
ATOM      4  C   UNL A   1     -26.023  -3.119  29.645  0.00  0.00    -0.003 A 
ATOM      5  C   UNL A   1     -26.214  -4.489  29.724  0.00  0.00    -0.000 A 
ATOM      6  C   UNL A   1     -25.248  -5.340  29.231  0.00  0.00    -0.000 A 
ENDROOT
BRANCH   3   7
ATOM      7  C   UNL A   1     -24.672  -1.207  29.009  0.00  0.00    +0.139 C 
BRANCH   7   8
ATOM      8  N   UNL A   1     -23.592  -0.743  29.525  0.00  0.00    -0.232 NA
BRANCH   8   9
ATOM      9  C   UNL A   1     -22.594  -0.156  28.865  0.00  0.00    +0.076 C 
ATOM     10  C   UNL A   1     -22.814   0.962  28.003  0.00  0.00    -0.008 C 
ATOM     11  C   UNL A   1     -21.848   1.763  27.392  0.00  0.00    +0.032 C 
ENDBRANCH   8   9
ENDBRANCH   7   8
ENDBRANCH   3   7
TORSDOF 3
ENDMDL
ENDMDL
