REMARK  Name = No_1705-gen_results/8p0m/2024-11-26-14-13-15/
REMARK  3 active torsions:
REMARK  status: ('A' for Active; 'I' for Inactive)
REMARK    1  A    between atoms: C_3  and  C_7
REMARK    2  A    between atoms: C_7  and  N_8
REMARK    3  A    between atoms: N_8  and  C_9
REMARK                            x       y       z     vdW  Elec       q    Type
REMARK                         _______ _______ _______ _____ _____    ______ ____
ROOT
ATOM      1  C   UNL A   1     -28.016  -0.814  28.878  0.00  0.00    -0.003 A 
ATOM      2  C   UNL A   1     -28.469  -0.785  29.829  0.00  0.00    -0.000 A 
ATOM      3  C   UNL A   1     -27.136   0.236  28.535  0.00  0.00    -0.001 A 
ATOM      4  C   UNL A   1     -26.875   1.282  29.398  0.00  0.00    -0.003 A 
ATOM      5  C   UNL A   1     -27.507   1.238  30.630  0.00  0.00    -0.000 A 
ATOM      6  C   UNL A   1     -28.329   0.174  30.935  0.00  0.00    -0.000 A 
ENDROOT
BRANCH   3   7
ATOM      7  C   UNL A   1     -26.408   0.307  27.226  0.00  0.00    +0.139 C 
BRANCH   7   8
ATOM      8  N   UNL A   1     -25.126   0.269  27.274  0.00  0.00    -0.232 NA
BRANCH   8   9
ATOM      9  C   UNL A   1     -24.392  -0.476  28.100  0.00  0.00    +0.076 C 
ATOM     10  C   UNL A   1     -23.050  -0.125  28.442  0.00  0.00    -0.008 C 
ATOM     11  C   UNL A   1     -22.240  -0.719  29.411  0.00  0.00    +0.032 C 
ENDBRANCH   8   9
ENDBRANCH   7   8
ENDBRANCH   3   7
TORSDOF 3
