REMARK  Name = No_1706-gen_results/8p0m/2024-11-26-14-13-15/
REMARK  0 active torsions:
REMARK  status: ('A' for Active; 'I' for Inactive)
REMARK                            x       y       z     vdW  Elec       q    Type
REMARK                         _______ _______ _______ _____ _____    ______ ____
ROOT
ATOM      1  O   UNL A   1     -28.123  -1.335  28.487  0.00  0.00    -0.273 OA
ATOM      2  C   UNL A   1     -27.481  -0.404  28.709  0.00  0.00    +0.253 C 
ATOM      3  N   UNL A   1     -27.241   0.391  29.510  0.00  0.00    -0.141 NA
ATOM      4  C   UNL A   1     -26.407  -0.107  27.450  0.00  0.00    +0.114 C 
ATOM      5  C   UNL A   1     -25.436   0.847  27.634  0.00  0.00    -0.009 A 
ATOM      6  C   UNL A   1     -25.429   1.663  28.735  0.00  0.00    +0.052 A 
ATOM      7  C   UNL A   1     -26.310   1.358  29.762  0.00  0.00    +0.271 C 
ATOM      8  C   UNL A   1     -24.501   1.124  26.523  0.00  0.00    -0.004 A 
ATOM      9  C   UNL A   1     -23.730   1.768  26.442  0.00  0.00    -0.000 A 
ATOM     10  C   UNL A   1     -23.447   2.659  27.711  0.00  0.00    +0.000 A 
ATOM     11  C   UNL A   1     -24.310   2.568  28.737  0.00  0.00    +0.004 A 
ATOM     12  O   UNL A   1     -26.174   1.855  30.930  0.00  0.00    -0.268 OA
ENDROOT
TORSDOF 0
