MODEL 1706
MODEL 1
REMARK VINA RESULT:    -5.853      0.000      0.000
REMARK INTER + INTRA:          -5.853
REMARK INTER:                  -5.853
REMARK INTRA:                   0.000
REMARK UNBOUND:                 0.000
REMARK  Name = No_1706-gen_results/8p0m/2024-11-26-14-13-15/
REMARK  0 active torsions:
REMARK  status: ('A' for Active; 'I' for Inactive)
REMARK                            x       y       z     vdW  Elec       q    Type
REMARK                         _______ _______ _______ _____ _____    ______ ____
ROOT
ATOM      1  O   UNL A   1     -26.721 -12.531  34.049  0.00  0.00    -0.273 OA
ATOM      2  C   UNL A   1     -27.582 -11.929  33.574  0.00  0.00    +0.253 C 
ATOM      3  N   UNL A   1     -28.363 -11.105  33.777  0.00  0.00    -0.141 NA
ATOM      4  C   UNL A   1     -27.735 -12.296  31.940  0.00  0.00    +0.114 C 
ATOM      5  C   UNL A   1     -28.582 -11.529  31.178  0.00  0.00    -0.009 A 
ATOM      6  C   UNL A   1     -29.415 -10.599  31.743  0.00  0.00    +0.052 A 
ATOM      7  C   UNL A   1     -29.229 -10.306  33.085  0.00  0.00    +0.271 C 
ATOM      8  C   UNL A   1     -28.733 -11.859  29.745  0.00  0.00    -0.004 A 
ATOM      9  C   UNL A   1     -29.289 -11.439  29.016  0.00  0.00    -0.000 A 
ATOM     10  C   UNL A   1     -30.170 -10.207  29.452  0.00  0.00    +0.000 A 
ATOM     11  C   UNL A   1     -30.194  -9.894  30.759  0.00  0.00    +0.004 A 
ATOM     12  O   UNL A   1     -29.732  -9.261  33.619  0.00  0.00    -0.268 OA
ENDROOT
TORSDOF 0
ENDMDL
ENDMDL
