MODEL 1707
MODEL 1
REMARK VINA RESULT:    -4.480      0.000      0.000
REMARK INTER + INTRA:          -5.108
REMARK INTER:                  -5.004
REMARK INTRA:                  -0.105
REMARK UNBOUND:                -0.105
REMARK  Name = No_1707-gen_results/8p0m/2024-11-26-14-13-15/
REMARK  2 active torsions:
REMARK  status: ('A' for Active; 'I' for Inactive)
REMARK    1  A    between atoms: C_3  and  C_4
REMARK    2  A    between atoms: C_4  and  C_5
REMARK                            x       y       z     vdW  Elec       q    Type
REMARK                         _______ _______ _______ _____ _____    ______ ____
ROOT
ATOM      1  C   UNL A   1      -8.938  -9.745  18.781  0.00  0.00    +0.053 C 
ENDROOT
BRANCH   1   4
ATOM      2  N   UNL A   1     -10.943 -10.292  17.156  0.00  0.00    -0.127 NA
ATOM      3  C   UNL A   1      -9.996 -10.643  16.825  0.00  0.00    +0.102 C 
ATOM      4  C   UNL A   1      -8.887 -10.427  17.568  0.00  0.00    -0.002 C 
ENDBRANCH   1   4
BRANCH   1   5
ATOM      5  C   UNL A   1      -8.077 -10.011  19.876  0.00  0.00    -0.026 C 
ATOM      6  C   UNL A   1      -7.108  -9.060  20.232  0.00  0.00    -0.030 C 
ATOM      7  C   UNL A   1      -6.952  -7.892  19.501  0.00  0.00    +0.030 C 
ENDBRANCH   1   5
TORSDOF 2
ENDMDL
ENDMDL
