MODEL 1708
MODEL 1
REMARK VINA RESULT:    -4.281      0.000      0.000
REMARK INTER + INTRA:          -4.281
REMARK INTER:                  -4.281
REMARK INTRA:                   0.000
REMARK UNBOUND:                 0.000
REMARK  Name = No_1708-gen_results/8p0m/2024-11-26-14-13-15/
REMARK  0 active torsions:
REMARK  status: ('A' for Active; 'I' for Inactive)
REMARK                            x       y       z     vdW  Elec       q    Type
REMARK                         _______ _______ _______ _____ _____    ______ ____
ROOT
ATOM      1  C   UNL A   1     -25.015  -5.309  29.061  0.00  0.00    +0.000 A 
ATOM      2  C   UNL A   1     -26.016  -4.816  29.527  0.00  0.00    +0.000 A 
ATOM      3  C   UNL A   1     -26.142  -3.472  29.820  0.00  0.00    +0.000 A 
ATOM      4  C   UNL A   1     -25.044  -2.619  29.519  0.00  0.00    +0.000 A 
ATOM      5  C   UNL A   1     -24.017  -3.185  28.845  0.00  0.00    +0.000 A 
ATOM      6  C   UNL A   1     -23.999  -4.476  28.570  0.00  0.00    +0.000 A 
ENDROOT
TORSDOF 0
ENDMDL
ENDMDL
