MODEL 1709
MODEL 1
REMARK VINA RESULT:    -5.519      0.000      0.000
REMARK INTER + INTRA:          -6.712
REMARK INTER:                  -6.487
REMARK INTRA:                  -0.225
REMARK UNBOUND:                -0.225
REMARK  Name = No_1709-gen_results/8p0m/2024-11-26-14-13-15/
REMARK  3 active torsions:
REMARK  status: ('A' for Active; 'I' for Inactive)
REMARK    1  A    between atoms: C_1  and  N_8
REMARK    2  A    between atoms: C_5  and  C_9
REMARK    3  A    between atoms: N_8  and  C_10
REMARK                            x       y       z     vdW  Elec       q    Type
REMARK                         _______ _______ _______ _____ _____    ______ ____
ROOT
ATOM      1  C   UNL A   1     -30.370 -10.288  29.451  0.00  0.00    +0.077 C 
ATOM      2  C   UNL A   1     -29.636 -10.709  30.315  0.00  0.00    -0.028 C 
ATOM      3  C   UNL A   1     -28.713 -11.622  30.206  0.00  0.00    +0.024 C 
ATOM      4  C   UNL A   1     -27.827 -12.108  31.293  0.00  0.00    +0.016 C 
ATOM      5  C   UNL A   1     -27.977 -11.478  32.560  0.00  0.00    +0.104 C 
ATOM      6  C   UNL A   1     -28.906 -10.474  32.665  0.00  0.00    +0.016 C 
ATOM      7  C   UNL A   1     -29.686 -10.049  31.643  0.00  0.00    +0.024 C 
ENDROOT
BRANCH   5   8
ATOM      8  C   UNL A   1     -27.165 -11.861  33.685  0.00  0.00    +0.364 C 
ATOM      9  O   UNL A   1     -26.793 -12.860  33.863  0.00  0.00    -0.246 OA
ATOM     10  O   UNL A   1     -27.016 -10.852  34.648  0.00  0.00    -0.246 OA
ENDBRANCH   5   8
BRANCH   1  11
ATOM     11  N   UNL A   1     -30.678 -11.095  28.498  0.00  0.00    -0.210 NA
BRANCH  11  12
ATOM     12  C   UNL A   1     -30.561 -10.806  27.231  0.00  0.00    +0.086 C 
ATOM     13  C   UNL A   1     -29.677 -11.487  26.390  0.00  0.00    +0.019 C 
ENDBRANCH  11  12
ENDBRANCH   1  11
TORSDOF 3
ENDMDL
ENDMDL
