MODEL 170
MODEL 1
REMARK VINA RESULT:    -7.036      0.000      0.000
REMARK INTER + INTRA:          -9.622
REMARK INTER:                  -8.681
REMARK INTRA:                  -0.941
REMARK UNBOUND:                -0.941
REMARK  Name = No_170-gen_results/8p0m/2024-11-26-14-13-15/
REMARK  4 active torsions:
REMARK  status: ('A' for Active; 'I' for Inactive)
REMARK    1  A    between atoms: C_3  and  C_4
REMARK    2  A    between atoms: C_4  and  C_5
REMARK    3  A    between atoms: C_5  and  C_6
REMARK    4  A    between atoms: C_6  and  C_7
REMARK                            x       y       z     vdW  Elec       q    Type
REMARK                         _______ _______ _______ _____ _____    ______ ____
ROOT
ATOM      1  C   UNL A   1     -22.537  -0.497  30.145  0.00  0.00    +0.073 C 
ENDROOT
BRANCH   1   2
ATOM      2  C   UNL A   1     -22.043  -0.211  29.240  0.00  0.00    +0.173 C 
ATOM      3  O   UNL A   1     -20.860  -0.815  28.808  0.00  0.00    -0.291 OA
BRANCH   2   6
ATOM      4  C   UNL A   1     -21.690   1.608  27.512  0.00  0.00    +0.003 A 
ATOM      5  C   UNL A   1     -22.029   2.021  26.604  0.00  0.00    +0.000 A 
ATOM      6  C   UNL A   1     -22.514   0.583  28.088  0.00  0.00    +0.035 A 
ATOM      7  C   UNL A   1     -23.332   1.999  25.981  0.00  0.00    +0.000 A 
ATOM      8  C   UNL A   1     -24.202   1.118  26.534  0.00  0.00    +0.000 A 
ATOM      9  C   UNL A   1     -23.809   0.377  27.622  0.00  0.00    +0.003 A 
ENDBRANCH   2   6
ENDBRANCH   1   2
BRANCH   1  10
ATOM     10  C   UNL A   1     -23.423  -1.126  30.742  0.00  0.00    +0.030 C 
ATOM     11  C   UNL A   1     -23.347  -1.193  32.239  0.00  0.00    +0.005 C 
BRANCH  10  12
ATOM     12  C   UNL A   1     -24.383  -2.090  30.301  0.00  0.00    -0.022 A 
ATOM     13  C   UNL A   1     -24.132  -3.226  29.568  0.00  0.00    -0.004 A 
ATOM     14  C   UNL A   1     -25.159  -4.174  29.264  0.00  0.00    -0.000 A 
ATOM     15  C   UNL A   1     -26.444  -3.907  29.660  0.00  0.00    -0.000 A 
ATOM     16  C   UNL A   1     -26.765  -2.810  30.413  0.00  0.00    -0.000 A 
ATOM     17  C   UNL A   1     -25.728  -1.910  30.751  0.00  0.00    -0.004 A 
ENDBRANCH  10  12
ENDBRANCH   1  10
TORSDOF 4
ENDMDL
ENDMDL
