REMARK  Name = No_171-gen_results/8p0m/2024-11-26-14-13-15/
REMARK  3 active torsions:
REMARK  status: ('A' for Active; 'I' for Inactive)
REMARK    1  A    between atoms: C_2  and  C_3
REMARK    2  A    between atoms: C_8  and  C_9
REMARK    3  A    between atoms: C_9  and  C_12
REMARK                            x       y       z     vdW  Elec       q    Type
REMARK                         _______ _______ _______ _____ _____    ______ ____
ROOT
ATOM      1  C   UNL A   1     -27.666   0.113  30.035  0.00  0.00    +0.055 A 
ATOM      2  C   UNL A   1     -27.840   1.229  30.642  0.00  0.00    +0.001 A 
ATOM      3  C   UNL A   1     -26.365  -0.629  30.330  0.00  0.00    +0.004 A 
ATOM      4  C   UNL A   1     -26.924   1.755  31.646  0.00  0.00    -0.018 A 
ATOM      5  C   UNL A   1     -25.483  -0.195  31.368  0.00  0.00    -0.000 A 
ATOM      6  C   UNL A   1     -25.703   1.051  31.990  0.00  0.00    -0.004 A 
ENDROOT
BRANCH   1   8
ATOM      7  O   UNL A   1     -28.123  -1.335  28.487  0.00  0.00    -0.268 OA
ATOM      8  C   UNL A   1     -28.521  -0.436  29.078  0.00  0.00    +0.265 C 
ATOM      9  N   UNL A   1     -29.742   0.110  28.887  0.00  0.00    -0.200 NA
ATOM     10  C   UNL A   1     -30.601  -0.346  28.024  0.00  0.00    +0.139 C 
ENDBRANCH   1   8
BRANCH   4  11
ATOM     11  C   UNL A   1     -27.068   3.002  32.236  0.00  0.00    +0.052 C 
BRANCH  11  12
ATOM     12  C   UNL A   1     -28.105   3.417  32.608  0.00  0.00    -0.021 C 
ATOM     13  C   UNL A   1     -28.326   4.774  33.179  0.00  0.00    -0.005 C 
ENDBRANCH  11  12
ENDBRANCH   4  11
TORSDOF 3
