MODEL 1710
MODEL 1
REMARK VINA RESULT:    -7.913      0.000      0.000
REMARK INTER + INTRA:         -14.206
REMARK INTER:                 -11.151
REMARK INTRA:                  -3.055
REMARK UNBOUND:                -3.055
REMARK  Name = No_1710-gen_results/8p0m/2024-11-26-14-13-15/
REMARK  7 active torsions:
REMARK  status: ('A' for Active; 'I' for Inactive)
REMARK    1  A    between atoms: C_3  and  C_7
REMARK    2  A    between atoms: C_7  and  C_8
REMARK    3  A    between atoms: C_7  and  C_9
REMARK    4  A    between atoms: C_8  and  C_21
REMARK    5  A    between atoms: C_9  and  C_10
REMARK    6  A    between atoms: C_14  and  C_17
REMARK    7  A    between atoms: C_21  and  C_22
REMARK                            x       y       z     vdW  Elec       q    Type
REMARK                         _______ _______ _______ _____ _____    ______ ____
ROOT
ATOM      1  C   UNL A   1     -26.065  -1.409  29.557  0.00  0.00    +0.027 C 
ENDROOT
BRANCH   1   4
ATOM      2  C   UNL A   1     -24.209  -2.988  28.715  0.00  0.00    -0.004 A 
ATOM      3  C   UNL A   1     -23.948  -4.004  28.615  0.00  0.00    -0.000 A 
ATOM      4  C   UNL A   1     -25.535  -2.779  29.298  0.00  0.00    -0.022 A 
ATOM      5  C   UNL A   1     -26.334  -3.825  29.688  0.00  0.00    -0.004 A 
ATOM      6  C   UNL A   1     -24.572  -5.288  28.935  0.00  0.00    -0.000 A 
ATOM      7  C   UNL A   1     -25.856  -5.096  29.500  0.00  0.00    -0.000 A 
ENDBRANCH   1   4
BRANCH   1   8
ATOM      8  C   UNL A   1     -26.523  -0.579  28.560  0.00  0.00    +0.026 C 
ATOM      9  C   UNL A   1     -27.720   0.104  28.947  0.00  0.00    +0.005 C 
BRANCH   8  10
ATOM     10  C   UNL A   1     -25.704  -0.058  27.592  0.00  0.00    -0.022 A 
ATOM     11  C   UNL A   1     -26.118  -0.181  26.269  0.00  0.00    -0.004 A 
ATOM     12  C   UNL A   1     -25.309   0.334  25.224  0.00  0.00    -0.000 A 
ATOM     13  C   UNL A   1     -24.145   0.971  25.545  0.00  0.00    +0.004 A 
ATOM     14  C   UNL A   1     -23.720   1.093  26.859  0.00  0.00    +0.071 A 
ATOM     15  C   UNL A   1     -24.435   0.577  27.858  0.00  0.00    -0.000 A 
BRANCH  14  16
ATOM     16  C   UNL A   1     -22.372   1.755  27.053  0.00  0.00    +0.419 C 
ATOM     17  F   UNL A   1     -22.534   2.617  27.833  0.00  0.00    -0.166 F 
ATOM     18  F   UNL A   1     -21.552   0.796  27.670  0.00  0.00    -0.166 F 
ATOM     19  F   UNL A   1     -21.797   2.078  25.969  0.00  0.00    -0.166 F 
ENDBRANCH  14  16
ENDBRANCH   8  10
ENDBRANCH   1   8
BRANCH   1  20
ATOM     20  C   UNL A   1     -26.025  -1.011  30.888  0.00  0.00    +0.010 C 
BRANCH  20  21
ATOM     21  C   UNL A   1     -24.776  -0.988  31.593  0.00  0.00    +0.033 C 
BRANCH  21  22
ATOM     22  C   UNL A   1     -23.909  -0.100  31.392  0.00  0.00    +0.031 C 
ATOM     23  C   UNL A   1     -24.276   1.282  31.422  0.00  0.00    +0.125 C 
ATOM     24  C   UNL A   1     -22.619  -0.385  30.794  0.00  0.00    +0.038 C 
ATOM     25  O   UNL A   1     -23.483   2.254  30.981  0.00  0.00    -0.232 OA
ENDBRANCH  21  22
ENDBRANCH  20  21
ENDBRANCH   1  20
TORSDOF 7
ENDMDL
ENDMDL
