REMARK  Name = No_1710-gen_results/8p0m/2024-11-26-14-13-15/
REMARK  7 active torsions:
REMARK  status: ('A' for Active; 'I' for Inactive)
REMARK    1  A    between atoms: C_3  and  C_7
REMARK    2  A    between atoms: C_7  and  C_8
REMARK    3  A    between atoms: C_7  and  C_9
REMARK    4  A    between atoms: C_8  and  C_21
REMARK    5  A    between atoms: C_9  and  C_10
REMARK    6  A    between atoms: C_14  and  C_17
REMARK    7  A    between atoms: C_21  and  C_22
REMARK                            x       y       z     vdW  Elec       q    Type
REMARK                         _______ _______ _______ _____ _____    ______ ____
ROOT
ATOM      1  C   UNL A   1     -26.317   0.399  27.365  0.00  0.00    +0.027 C 
ENDROOT
BRANCH   1   4
ATOM      2  C   UNL A   1     -28.016  -0.814  28.878  0.00  0.00    -0.004 A 
ATOM      3  C   UNL A   1     -28.469  -0.785  29.829  0.00  0.00    -0.000 A 
ATOM      4  C   UNL A   1     -27.087   0.290  28.638  0.00  0.00    -0.022 A 
ATOM      5  C   UNL A   1     -26.832   1.249  29.587  0.00  0.00    -0.004 A 
ATOM      6  C   UNL A   1     -28.391   0.080  31.006  0.00  0.00    -0.000 A 
ATOM      7  C   UNL A   1     -27.494   1.152  30.784  0.00  0.00    -0.000 A 
ENDBRANCH   1   4
BRANCH   1   8
ATOM      8  C   UNL A   1     -26.913   0.586  26.140  0.00  0.00    +0.026 C 
ATOM      9  C   UNL A   1     -26.103   0.079  25.074  0.00  0.00    +0.005 C 
BRANCH   8  10
ATOM     10  C   UNL A   1     -28.269   0.717  25.985  0.00  0.00    -0.022 A 
ATOM     11  C   UNL A   1     -28.766   0.732  24.686  0.00  0.00    -0.004 A 
ATOM     12  C   UNL A   1     -30.160   0.870  24.463  0.00  0.00    -0.000 A 
ATOM     13  C   UNL A   1     -30.994   0.958  25.541  0.00  0.00    +0.004 A 
ATOM     14  C   UNL A   1     -30.508   0.951  26.839  0.00  0.00    +0.071 A 
ATOM     15  C   UNL A   1     -29.200   0.871  27.078  0.00  0.00    -0.000 A 
BRANCH  14  16
ATOM     16  C   UNL A   1     -31.545   1.134  27.928  0.00  0.00    +0.419 C 
ATOM     17  F   UNL A   1     -31.699   0.081  28.421  0.00  0.00    -0.166 F 
ATOM     18  F   UNL A   1     -30.950   1.956  28.899  0.00  0.00    -0.166 F 
ATOM     19  F   UNL A   1     -32.594   1.734  27.542  0.00  0.00    -0.166 F 
ENDBRANCH  14  16
ENDBRANCH   8  10
ENDBRANCH   1   8
BRANCH   1  20
ATOM     20  C   UNL A   1     -24.941   0.255  27.503  0.00  0.00    +0.010 C 
BRANCH  20  21
ATOM     21  C   UNL A   1     -24.210   1.137  28.366  0.00  0.00    +0.033 C 
BRANCH  21  22
ATOM     22  C   UNL A   1     -23.098   0.821  28.861  0.00  0.00    +0.031 C 
ATOM     23  C   UNL A   1     -21.885   1.199  28.204  0.00  0.00    +0.125 C 
ATOM     24  C   UNL A   1     -22.956  -0.198  29.884  0.00  0.00    +0.038 C 
ATOM     25  O   UNL A   1     -20.697   0.698  28.527  0.00  0.00    -0.232 OA
ENDBRANCH  21  22
ENDBRANCH  20  21
ENDBRANCH   1  20
TORSDOF 7
