MODEL 1711
MODEL 1
REMARK VINA RESULT:    -8.592      0.000      0.000
REMARK INTER + INTRA:          -9.193
REMARK INTER:                  -9.094
REMARK INTRA:                  -0.099
REMARK UNBOUND:                -0.099
REMARK  Name = No_1711-gen_results/8p0m/2024-11-26-14-13-15/
REMARK  1 active torsions:
REMARK  status: ('A' for Active; 'I' for Inactive)
REMARK    1  A    between atoms: C_14  and  C_23
REMARK                            x       y       z     vdW  Elec       q    Type
REMARK                         _______ _______ _______ _____ _____    ______ ____
ROOT
ATOM      1  C   UNL A   1     -28.206  -1.682  30.698  0.00  0.00    -0.003 A 
ATOM      2  C   UNL A   1     -28.512  -2.688  30.761  0.00  0.00    -0.000 A 
ATOM      3  C   UNL A   1     -26.914  -1.416  30.192  0.00  0.00    -0.007 A 
ATOM      4  C   UNL A   1     -26.372  -0.055  29.938  0.00  0.00    +0.124 C 
ATOM      5  C   UNL A   1     -27.813  -3.940  30.418  0.00  0.00    -0.000 A 
ATOM      6  C   UNL A   1     -26.527  -3.754  29.913  0.00  0.00    -0.004 A 
ATOM      7  C   UNL A   1     -26.058  -2.491  29.742  0.00  0.00    -0.021 A 
ATOM      8 CL   UNL A   1     -26.635   0.995  29.831  0.00  0.00    -0.105 Cl
ATOM      9  C   UNL A   1     -24.753  -0.196  29.853  0.00  0.00    -0.004 A 
ATOM     10  C   UNL A   1     -24.216   0.217  28.983  0.00  0.00    -0.025 A 
ATOM     11  C   UNL A   1     -22.740   0.176  28.796  0.00  0.00    -0.004 A 
ATOM     12  C   UNL A   1     -22.039  -0.519  29.804  0.00  0.00    -0.000 A 
ATOM     13  C   UNL A   1     -22.763  -1.125  30.791  0.00  0.00    +0.003 A 
ATOM     14  C   UNL A   1     -24.127  -0.976  30.880  0.00  0.00    +0.039 A 
ATOM     15  C   UNL A   1     -25.698  -4.911  29.505  0.00  0.00    -0.000 C 
ATOM     16  C   UNL A   1     -24.750  -5.147  29.016  0.00  0.00    -0.000 C 
ATOM     17  C   UNL A   1     -23.878  -3.976  28.535  0.00  0.00    -0.004 C 
ATOM     18  C   UNL A   1     -24.119  -2.669  28.429  0.00  0.00    -0.022 C 
ATOM     19  C   UNL A   1     -24.919  -2.165  28.978  0.00  0.00    +0.044 C 
ATOM     20  C   UNL A   1     -25.553  -1.356  27.815  0.00  0.00    +0.013 C 
ATOM     21  C   UNL A   1     -24.748  -0.261  27.470  0.00  0.00    +0.023 C 
ATOM     22  C   UNL A   1     -24.605   0.507  26.345  0.00  0.00    +0.005 C 
ENDROOT
BRANCH  14  23
ATOM     23  C   UNL A   1     -24.724  -1.095  32.214  0.00  0.00    +0.234 C 
ATOM     24  O   UNL A   1     -24.005  -1.144  33.230  0.00  0.00    -0.283 OA
ENDBRANCH  14  23
TORSDOF 1
ENDMDL
ENDMDL
