REMARK  Name = No_1711-gen_results/8p0m/2024-11-26-14-13-15/
REMARK  1 active torsions:
REMARK  status: ('A' for Active; 'I' for Inactive)
REMARK    1  A    between atoms: C_14  and  C_23
REMARK                            x       y       z     vdW  Elec       q    Type
REMARK                         _______ _______ _______ _____ _____    ______ ____
ROOT
ATOM      1  C   UNL A   1     -28.016  -0.814  28.878  0.00  0.00    -0.003 A 
ATOM      2  C   UNL A   1     -28.469  -0.785  29.829  0.00  0.00    -0.000 A 
ATOM      3  C   UNL A   1     -27.136   0.236  28.535  0.00  0.00    -0.007 A 
ATOM      4  C   UNL A   1     -26.335   0.290  27.284  0.00  0.00    +0.124 C 
ATOM      5  C   UNL A   1     -28.369   0.196  30.924  0.00  0.00    -0.000 A 
ATOM      6  C   UNL A   1     -27.516   1.266  30.654  0.00  0.00    -0.004 A 
ATOM      7  C   UNL A   1     -26.841   1.294  29.476  0.00  0.00    -0.021 A 
ATOM      8 CL   UNL A   1     -25.975  -0.293  26.439  0.00  0.00    -0.105 Cl
ATOM      9  C   UNL A   1     -25.882   1.839  27.075  0.00  0.00    -0.004 A 
ATOM     10  C   UNL A   1     -24.819   2.077  26.907  0.00  0.00    -0.025 A 
ATOM     11  C   UNL A   1     -24.279   3.446  26.679  0.00  0.00    -0.004 A 
ATOM     12  C   UNL A   1     -25.236   4.478  26.768  0.00  0.00    -0.000 A 
ATOM     13  C   UNL A   1     -26.516   4.142  27.108  0.00  0.00    +0.003 A 
ATOM     14  C   UNL A   1     -26.904   2.830  27.250  0.00  0.00    +0.039 A 
ATOM     15  C   UNL A   1     -27.293   2.330  31.659  0.00  0.00    -0.000 C 
ATOM     16  C   UNL A   1     -26.675   3.213  31.839  0.00  0.00    -0.000 C 
ATOM     17  C   UNL A   1     -25.642   3.598  30.768  0.00  0.00    -0.004 C 
ATOM     18  C   UNL A   1     -25.196   2.957  29.688  0.00  0.00    -0.022 C 
ATOM     19  C   UNL A   1     -25.746   2.141  29.211  0.00  0.00    +0.044 C 
ATOM     20  C   UNL A   1     -24.593   1.112  29.062  0.00  0.00    +0.013 C 
ATOM     21  C   UNL A   1     -23.725   1.479  28.024  0.00  0.00    +0.023 C 
ATOM     22  C   UNL A   1     -22.419   1.198  27.722  0.00  0.00    +0.005 C 
ENDROOT
BRANCH  14  23
ATOM     23  C   UNL A   1     -28.314   2.521  26.993  0.00  0.00    +0.234 C 
ATOM     24  O   UNL A   1     -29.209   2.976  27.731  0.00  0.00    -0.283 OA
ENDBRANCH  14  23
TORSDOF 1
