MODEL 1712
MODEL 1
REMARK VINA RESULT:    -5.946      0.000      0.000
REMARK INTER + INTRA:          -6.959
REMARK INTER:                  -6.641
REMARK INTRA:                  -0.318
REMARK UNBOUND:                -0.318
REMARK  Name = No_1712-gen_results/8p0m/2024-11-26-14-13-15/
REMARK  2 active torsions:
REMARK  status: ('A' for Active; 'I' for Inactive)
REMARK    1  A    between atoms: C_3  and  C_4
REMARK    2  A    between atoms: C_8  and  C_9
REMARK                            x       y       z     vdW  Elec       q    Type
REMARK                         _______ _______ _______ _____ _____    ______ ____
ROOT
ATOM      1  C   UNL A   1     -24.164  -4.413  28.757  0.00  0.00    -0.000 A 
ATOM      2  C   UNL A   1     -24.958  -5.069  28.978  0.00  0.00    +0.000 A 
ATOM      3  C   UNL A   1     -24.314  -3.054  29.110  0.00  0.00    -0.000 A 
ATOM      4  C   UNL A   1     -26.270  -4.831  29.605  0.00  0.00    +0.000 A 
ATOM      5  C   UNL A   1     -26.491  -3.506  29.979  0.00  0.00    +0.000 A 
ATOM      6  C   UNL A   1     -25.506  -2.591  29.786  0.00  0.00    -0.000 A 
ENDROOT
BRANCH   3   7
ATOM      7  C   UNL A   1     -23.253  -2.023  28.969  0.00  0.00    -0.000 C 
ATOM      8  C   UNL A   1     -23.220  -0.890  28.962  0.00  0.00    -0.000 C 
BRANCH   8   9
ATOM      9  C   UNL A   1     -22.126   0.018  28.841  0.00  0.00    -0.005 C 
ATOM     10  C   UNL A   1     -22.102   1.119  28.004  0.00  0.00    -0.026 C 
ATOM     11  C   UNL A   1     -23.206   1.335  27.172  0.00  0.00    +0.031 C 
ENDBRANCH   8   9
ENDBRANCH   3   7
TORSDOF 2
ENDMDL
ENDMDL
