MODEL 1713
MODEL 1
REMARK VINA RESULT:    -6.340      0.000      0.000
REMARK INTER + INTRA:          -6.948
REMARK INTER:                  -6.710
REMARK INTRA:                  -0.238
REMARK UNBOUND:                -0.238
REMARK  Name = No_1713-gen_results/8p0m/2024-11-26-14-13-15/
REMARK  1 active torsions:
REMARK  status: ('A' for Active; 'I' for Inactive)
REMARK    1  A    between atoms: C_3  and  C_7
REMARK                            x       y       z     vdW  Elec       q    Type
REMARK                         _______ _______ _______ _____ _____    ______ ____
ROOT
ATOM      1  C   UNL A   1     -26.460  -3.551  29.906  0.00  0.00    +0.000 A 
ATOM      2  C   UNL A   1     -25.764  -2.585  29.697  0.00  0.00    +0.002 A 
ATOM      3  C   UNL A   1     -24.523  -2.651  29.066  0.00  0.00    +0.018 A 
ATOM      4  C   UNL A   1     -23.993  -3.946  28.683  0.00  0.00    +0.002 A 
ATOM      5  C   UNL A   1     -24.856  -5.028  28.967  0.00  0.00    +0.000 A 
ATOM      6  C   UNL A   1     -26.006  -4.868  29.571  0.00  0.00    +0.000 A 
ENDROOT
BRANCH   3   7
ATOM      7  C   UNL A   1     -23.621  -1.508  28.766  0.00  0.00    +0.081 A 
ATOM      8  N   UNL A   1     -22.474  -1.481  29.231  0.00  0.00    -0.244 NA
ATOM      9  C   UNL A   1     -21.675  -0.405  28.910  0.00  0.00    +0.099 A 
ATOM     10  C   UNL A   1     -24.084  -0.458  28.068  0.00  0.00    +0.019 A 
ATOM     11  C   UNL A   1     -23.312   0.658  27.805  0.00  0.00    +0.003 A 
ATOM     12  C   UNL A   1     -22.001   0.653  28.245  0.00  0.00    +0.021 A 
ENDBRANCH   3   7
TORSDOF 1
ENDMDL
ENDMDL
