MODEL 1714
MODEL 1
REMARK VINA RESULT:    -5.213      0.000      0.000
REMARK INTER + INTRA:          -6.425
REMARK INTER:                  -6.127
REMARK INTRA:                  -0.298
REMARK UNBOUND:                -0.298
REMARK  Name = No_1714-gen_results/8p0m/2024-11-26-14-13-15/
REMARK  3 active torsions:
REMARK  status: ('A' for Active; 'I' for Inactive)
REMARK    1  A    between atoms: C_2  and  O_7
REMARK    2  A    between atoms: O_7  and  C_8
REMARK    3  A    between atoms: C_9  and  C_10
REMARK                            x       y       z     vdW  Elec       q    Type
REMARK                         _______ _______ _______ _____ _____    ______ ____
ROOT
ATOM      1  C   UNL A   1     -23.805  -3.419  28.776  0.00  0.00    +0.037 A 
ATOM      2  C   UNL A   1     -24.371  -2.626  29.178  0.00  0.00    +0.145 A 
ATOM      3  C   UNL A   1     -24.428  -4.791  28.899  0.00  0.00    +0.003 A 
ATOM      4  C   UNL A   1     -25.744  -4.911  29.394  0.00  0.00    +0.000 A 
ATOM      5  C   UNL A   1     -25.747  -2.477  29.703  0.00  0.00    +0.037 A 
ATOM      6  C   UNL A   1     -26.355  -3.718  29.826  0.00  0.00    +0.003 A 
ENDROOT
BRANCH   2   7
ATOM      7  O   UNL A   1     -23.770  -1.289  29.061  0.00  0.00    -0.450 OA
BRANCH   7   8
ATOM      8  C   UNL A   1     -22.456  -1.124  29.195  0.00  0.00    +0.179 C 
ATOM      9  C   UNL A   1     -22.031  -0.108  28.894  0.00  0.00    +0.041 C 
BRANCH   9  10
ATOM     10  C   UNL A   1     -22.815   1.008  28.401  0.00  0.00    +0.003 C 
ATOM     11  C   UNL A   1     -22.154   1.742  27.442  0.00  0.00    +0.000 C 
ENDBRANCH   9  10
ENDBRANCH   7   8
ENDBRANCH   2   7
TORSDOF 3
ENDMDL
ENDMDL
