REMARK  Name = No_1715-gen_results/8p0m/2024-11-26-14-13-15/
REMARK  1 active torsions:
REMARK  status: ('A' for Active; 'I' for Inactive)
REMARK    1  A    between atoms: C_5  and  C_8
REMARK                            x       y       z     vdW  Elec       q    Type
REMARK                         _______ _______ _______ _____ _____    ______ ____
ROOT
ATOM      1  C   UNL A   1     -28.016  -0.814  28.878  0.00  0.00    +0.030 A 
ATOM      2  C   UNL A   1     -28.469  -0.785  29.829  0.00  0.00    +0.002 A 
ATOM      3  C   UNL A   1     -27.136   0.236  28.535  0.00  0.00    +0.140 A 
ATOM      4  C   UNL A   1     -26.875   1.282  29.398  0.00  0.00    +0.030 A 
ATOM      5  C   UNL A   1     -28.361   0.199  30.924  0.00  0.00    -0.000 A 
ATOM      6  C   UNL A   1     -27.528   1.223  30.636  0.00  0.00    +0.002 A 
ATOM      7  F   UNL A   1     -26.488   0.257  27.353  0.00  0.00    -0.204 F 
ENDROOT
BRANCH   5   8
ATOM      8  C   UNL A   1     -29.065   0.100  32.228  0.00  0.00    -0.005 C 
ATOM      9  C   UNL A   1     -28.520   0.662  33.202  0.00  0.00    -0.026 C 
ATOM     10  C   UNL A   1     -27.603   1.856  32.981  0.00  0.00    +0.031 C 
ENDBRANCH   5   8
TORSDOF 1
