MODEL 1715
MODEL 1
REMARK VINA RESULT:    -5.106      0.000      0.000
REMARK INTER + INTRA:          -5.435
REMARK INTER:                  -5.404
REMARK INTRA:                  -0.031
REMARK UNBOUND:                -0.031
REMARK  Name = No_1715-gen_results/8p0m/2024-11-26-14-13-15/
REMARK  1 active torsions:
REMARK  status: ('A' for Active; 'I' for Inactive)
REMARK    1  A    between atoms: C_5  and  C_8
REMARK                            x       y       z     vdW  Elec       q    Type
REMARK                         _______ _______ _______ _____ _____    ______ ____
ROOT
ATOM      1  C   UNL A   1     -23.973  -4.070  28.617  0.00  0.00    +0.030 A 
ATOM      2  C   UNL A   1     -24.133  -3.060  28.873  0.00  0.00    +0.002 A 
ATOM      3  C   UNL A   1     -24.971  -5.004  28.969  0.00  0.00    +0.140 A 
ATOM      4  C   UNL A   1     -26.119  -4.630  29.640  0.00  0.00    +0.030 A 
ATOM      5  C   UNL A   1     -25.253  -2.404  29.574  0.00  0.00    -0.000 A 
ATOM      6  C   UNL A   1     -26.232  -3.264  29.932  0.00  0.00    +0.002 A 
ATOM      7  F   UNL A   1     -24.863  -6.309  28.648  0.00  0.00    -0.204 F 
ENDROOT
BRANCH   5   8
ATOM      8  C   UNL A   1     -25.341  -0.949  29.861  0.00  0.00    -0.005 C 
ATOM      9  C   UNL A   1     -24.903  -0.570  30.968  0.00  0.00    -0.026 C 
ATOM     10  C   UNL A   1     -23.816  -1.366  31.674  0.00  0.00    +0.031 C 
ENDBRANCH   5   8
TORSDOF 1
ENDMDL
ENDMDL
