MODEL 1716
MODEL 1
REMARK VINA RESULT:    -4.168      0.000      0.000
REMARK INTER + INTRA:          -4.700
REMARK INTER:                  -4.656
REMARK INTRA:                  -0.044
REMARK UNBOUND:                -0.044
REMARK  Name = No_1716-gen_results/8p0m/2024-11-26-14-13-15/
REMARK  2 active torsions:
REMARK  status: ('A' for Active; 'I' for Inactive)
REMARK    1  A    between atoms: C_2  and  C_3
REMARK    2  A    between atoms: C_3  and  C_4
REMARK                            x       y       z     vdW  Elec       q    Type
REMARK                         _______ _______ _______ _____ _____    ______ ____
ROOT
ATOM      1  C   UNL A   1      -9.349  -9.739  18.214  0.00  0.00    +0.131 C 
ENDROOT
BRANCH   1   2
ATOM      2  C   UNL A   1      -9.884  -9.310  19.494  0.00  0.00    -0.015 C 
ATOM      3  C   UNL A   1      -9.009  -9.323  20.593  0.00  0.00    -0.029 C 
ATOM      4  C   UNL A   1      -7.655  -9.727  20.300  0.00  0.00    +0.030 C 
ENDBRANCH   1   2
BRANCH   1   6
ATOM      5  N   UNL A   1     -11.081 -10.461  16.867  0.00  0.00    -0.196 NA
ATOM      6  C   UNL A   1      -9.929 -10.529  17.302  0.00  0.00    +0.078 C 
ENDBRANCH   1   6
TORSDOF 2
ENDMDL
ENDMDL
