REMARK  Name = No_1716-gen_results/8p0m/2024-11-26-14-13-15/
REMARK  2 active torsions:
REMARK  status: ('A' for Active; 'I' for Inactive)
REMARK    1  A    between atoms: C_2  and  C_3
REMARK    2  A    between atoms: C_3  and  C_4
REMARK                            x       y       z     vdW  Elec       q    Type
REMARK                         _______ _______ _______ _____ _____    ______ ____
ROOT
ATOM      1  C   UNL A   1     -25.925  -0.745  29.566  0.00  0.00    +0.131 C 
ENDROOT
BRANCH   1   2
ATOM      2  C   UNL A   1     -24.643  -0.064  29.626  0.00  0.00    -0.015 C 
ATOM      3  C   UNL A   1     -24.396   0.927  28.661  0.00  0.00    -0.029 C 
ATOM      4  C   UNL A   1     -25.480   1.178  27.742  0.00  0.00    +0.030 C 
ENDBRANCH   1   2
BRANCH   1   6
ATOM      5  N   UNL A   1     -28.054  -1.050  28.725  0.00  0.00    -0.196 NA
ATOM      6  C   UNL A   1     -26.966  -0.472  28.771  0.00  0.00    +0.078 C 
ENDBRANCH   1   6
TORSDOF 2
