MODEL 1717
MODEL 1
REMARK VINA RESULT:    -6.125      0.000      0.000
REMARK INTER + INTRA:          -7.520
REMARK INTER:                  -7.199
REMARK INTRA:                  -0.322
REMARK UNBOUND:                -0.322
REMARK  Name = No_1717-gen_results/8p0m/2024-11-26-14-13-15/
REMARK  3 active torsions:
REMARK  status: ('A' for Active; 'I' for Inactive)
REMARK    1  A    between atoms: C_1  and  C_8
REMARK    2  A    between atoms: C_5  and  C_10
REMARK    3  A    between atoms: C_9  and  C_13
REMARK                            x       y       z     vdW  Elec       q    Type
REMARK                         _______ _______ _______ _____ _____    ______ ____
ROOT
ATOM      1  C   UNL A   1     -23.636  -2.529  28.898  0.00  0.00    -0.009 C 
ATOM      2  C   UNL A   1     -24.721  -2.893  29.289  0.00  0.00    -0.044 C 
ATOM      3  C   UNL A   1     -25.714  -2.154  29.695  0.00  0.00    +0.023 C 
ATOM      4  C   UNL A   1     -27.035  -2.639  30.163  0.00  0.00    +0.016 C 
ATOM      5  C   UNL A   1     -27.244  -4.046  30.118  0.00  0.00    +0.104 C 
ATOM      6  C   UNL A   1     -26.223  -4.825  29.636  0.00  0.00    +0.016 C 
ATOM      7  C   UNL A   1     -25.035  -4.340  29.203  0.00  0.00    +0.023 C 
ENDROOT
BRANCH   5   8
ATOM      8  C   UNL A   1     -28.505  -4.635  30.529  0.00  0.00    +0.364 C 
ATOM      9  O   UNL A   1     -28.821  -4.884  31.588  0.00  0.00    -0.246 OA
ATOM     10  O   UNL A   1     -29.448  -4.761  29.502  0.00  0.00    -0.246 OA
ENDBRANCH   5   8
BRANCH   1  11
ATOM     11  C   UNL A   1     -23.244  -1.227  29.304  0.00  0.00    -0.001 C 
ATOM     12  C   UNL A   1     -23.030  -0.266  28.344  0.00  0.00    -0.000 C 
BRANCH  12  13
ATOM     13  C   UNL A   1     -22.327   0.890  28.607  0.00  0.00    -0.005 C 
ATOM     14  C   UNL A   1     -22.315   1.872  27.634  0.00  0.00    -0.026 C 
ATOM     15  C   UNL A   1     -23.129   1.783  26.551  0.00  0.00    +0.031 C 
ENDBRANCH  12  13
ENDBRANCH   1  11
TORSDOF 3
ENDMDL
ENDMDL
