REMARK  Name = No_1718-gen_results/8p0m/2024-11-26-14-13-15/
REMARK  3 active torsions:
REMARK  status: ('A' for Active; 'I' for Inactive)
REMARK    1  A    between atoms: C_2  and  C_11
REMARK    2  A    between atoms: C_5  and  C_6
REMARK    3  A    between atoms: N_8  and  C_15
REMARK                            x       y       z     vdW  Elec       q    Type
REMARK                         _______ _______ _______ _____ _____    ______ ____
ROOT
ATOM      1  C   UNL A   1     -28.016  -0.814  28.878  0.00  0.00    +0.004 A 
ATOM      2  C   UNL A   1     -27.064  -0.119  28.608  0.00  0.00    +0.071 A 
ATOM      3  C   UNL A   1     -27.001   0.691  27.491  0.00  0.00    +0.004 A 
ATOM      4  C   UNL A   1     -28.137   0.736  26.635  0.00  0.00    +0.004 A 
ATOM      5  C   UNL A   1     -29.236   0.076  27.069  0.00  0.00    +0.054 A 
ATOM      6  C   UNL A   1     -29.180  -0.642  28.183  0.00  0.00    +0.004 A 
ENDROOT
BRANCH   5   7
ATOM      7  C   UNL A   1     -30.381   0.205  26.266  0.00  0.00    +0.253 C 
ATOM      8  N   UNL A   1     -30.962   1.155  26.017  0.00  0.00    -0.253 N 
ATOM      9  O   UNL A   1     -30.913  -0.914  25.774  0.00  0.00    -0.270 OA
ATOM     10  C   UNL A   1     -32.177   1.400  25.174  0.00  0.00    +0.120 C 
BRANCH   8  11
ATOM     11  C   UNL A   1     -30.498   2.594  26.530  0.00  0.00    +0.054 A 
ATOM     12  C   UNL A   1     -31.220   2.963  27.690  0.00  0.00    +0.015 A 
ATOM     13  C   UNL A   1     -30.507   3.612  28.507  0.00  0.00    +0.001 A 
ATOM     14  C   UNL A   1     -29.311   4.368  28.180  0.00  0.00    +0.000 A 
ATOM     15  C   UNL A   1     -28.796   4.110  26.892  0.00  0.00    +0.001 A 
ATOM     16  C   UNL A   1     -29.346   3.060  26.117  0.00  0.00    +0.015 A 
ENDBRANCH   8  11
ENDBRANCH   5   7
BRANCH   2  17
ATOM     17  C   UNL A   1     -25.708  -0.208  29.426  0.00  0.00    +0.419 C 
ATOM     18  F   UNL A   1     -25.117  -1.235  29.183  0.00  0.00    -0.166 F 
ATOM     19  F   UNL A   1     -26.029  -0.216  30.746  0.00  0.00    -0.166 F 
ATOM     20  F   UNL A   1     -24.917   0.833  29.219  0.00  0.00    -0.166 F 
ENDBRANCH   2  17
TORSDOF 3
