MODEL 1718
MODEL 1
REMARK VINA RESULT:    -6.718      0.000      0.000
REMARK INTER + INTRA:          -8.673
REMARK INTER:                  -7.897
REMARK INTRA:                  -0.776
REMARK UNBOUND:                -0.776
REMARK  Name = No_1718-gen_results/8p0m/2024-11-26-14-13-15/
REMARK  3 active torsions:
REMARK  status: ('A' for Active; 'I' for Inactive)
REMARK    1  A    between atoms: C_2  and  C_11
REMARK    2  A    between atoms: C_5  and  C_6
REMARK    3  A    between atoms: N_8  and  C_15
REMARK                            x       y       z     vdW  Elec       q    Type
REMARK                         _______ _______ _______ _____ _____    ______ ____
ROOT
ATOM      1  C   UNL A   1     -10.714  -1.358  37.727  0.00  0.00    +0.004 A 
ATOM      2  C   UNL A   1     -11.468  -1.081  38.630  0.00  0.00    +0.071 A 
ATOM      3  C   UNL A   1     -11.739   0.212  39.031  0.00  0.00    +0.004 A 
ATOM      4  C   UNL A   1     -11.123   1.276  38.313  0.00  0.00    +0.004 A 
ATOM      5  C   UNL A   1     -10.425   0.922  37.209  0.00  0.00    +0.054 A 
ATOM      6  C   UNL A   1     -10.266  -0.360  36.908  0.00  0.00    +0.004 A 
ENDROOT
BRANCH   5   7
ATOM      7  C   UNL A   1      -9.901   1.984  36.453  0.00  0.00    +0.253 C 
ATOM      8  N   UNL A   1     -10.309   2.425  35.483  0.00  0.00    -0.253 N 
ATOM      9  O   UNL A   1      -8.752   2.519  36.864  0.00  0.00    -0.270 OA
ATOM     10  C   UNL A   1      -9.836   3.550  34.612  0.00  0.00    +0.120 C 
BRANCH   8  11
ATOM     11  C   UNL A   1     -11.664   1.906  34.816  0.00  0.00    +0.054 A 
ATOM     12  C   UNL A   1     -12.772   2.627  35.322  0.00  0.00    +0.015 A 
ATOM     13  C   UNL A   1     -13.655   2.821  34.439  0.00  0.00    +0.001 A 
ATOM     14  C   UNL A   1     -13.849   2.026  33.239  0.00  0.00    +0.000 A 
ATOM     15  C   UNL A   1     -12.784   1.148  32.946  0.00  0.00    +0.001 A 
ATOM     16  C   UNL A   1     -11.587   1.226  33.700  0.00  0.00    +0.015 A 
ENDBRANCH   8  11
ENDBRANCH   5   7
BRANCH   2  17
ATOM     17  C   UNL A   1     -12.090  -2.198  39.569  0.00  0.00    +0.419 C 
ATOM     18  F   UNL A   1     -12.946  -1.738  40.290  0.00  0.00    -0.166 F 
ATOM     19  F   UNL A   1     -11.090  -2.669  40.359  0.00  0.00    -0.166 F 
ATOM     20  F   UNL A   1     -12.572  -3.227  38.889  0.00  0.00    -0.166 F 
ENDBRANCH   2  17
TORSDOF 3
ENDMDL
ENDMDL
