REMARK  Name = No_1719-gen_results/8p0m/2024-11-26-14-13-15/
REMARK  3 active torsions:
REMARK  status: ('A' for Active; 'I' for Inactive)
REMARK    1  A    between atoms: C_1  and  C_8
REMARK    2  A    between atoms: C_5  and  C_10
REMARK    3  A    between atoms: C_9  and  C_13
REMARK                            x       y       z     vdW  Elec       q    Type
REMARK                         _______ _______ _______ _____ _____    ______ ____
ROOT
ATOM      1  C   UNL A   1     -28.016  -0.814  28.878  0.00  0.00    -0.009 C 
ATOM      2  C   UNL A   1     -27.064  -0.119  28.608  0.00  0.00    -0.044 C 
ATOM      3  C   UNL A   1     -25.765  -0.390  29.036  0.00  0.00    +0.023 C 
ATOM      4  C   UNL A   1     -24.552   0.406  28.765  0.00  0.00    +0.016 C 
ATOM      5  C   UNL A   1     -24.696   1.448  27.799  0.00  0.00    +0.104 C 
ATOM      6  C   UNL A   1     -25.976   1.725  27.308  0.00  0.00    +0.016 C 
ATOM      7  C   UNL A   1     -27.072   1.013  27.654  0.00  0.00    +0.023 C 
ENDROOT
BRANCH   5   8
ATOM      8  C   UNL A   1     -23.485   2.205  27.499  0.00  0.00    +0.364 C 
ATOM      9  O   UNL A   1     -23.570   3.200  26.809  0.00  0.00    -0.246 OA
ATOM     10  O   UNL A   1     -22.282   1.750  27.825  0.00  0.00    -0.246 OA
ENDBRANCH   5   8
BRANCH   1  11
ATOM     11  C   UNL A   1     -27.985  -1.595  30.152  0.00  0.00    -0.001 C 
ATOM     12  C   UNL A   1     -29.123  -2.258  30.603  0.00  0.00    -0.000 C 
BRANCH  12  13
ATOM     13  C   UNL A   1     -30.296  -1.721  30.218  0.00  0.00    -0.000 C 
ATOM     14  C   UNL A   1     -30.409  -0.844  29.184  0.00  0.00    -0.000 C 
ENDBRANCH  12  13
ENDBRANCH   1  11
TORSDOF 3
