MODEL 1719
MODEL 1
REMARK VINA RESULT:    -5.941      0.000      0.000
REMARK INTER + INTRA:          -7.371
REMARK INTER:                  -6.983
REMARK INTRA:                  -0.388
REMARK UNBOUND:                -0.388
REMARK  Name = No_1719-gen_results/8p0m/2024-11-26-14-13-15/
REMARK  3 active torsions:
REMARK  status: ('A' for Active; 'I' for Inactive)
REMARK    1  A    between atoms: C_1  and  C_8
REMARK    2  A    between atoms: C_5  and  C_10
REMARK    3  A    between atoms: C_9  and  C_13
REMARK                            x       y       z     vdW  Elec       q    Type
REMARK                         _______ _______ _______ _____ _____    ______ ____
ROOT
ATOM      1  C   UNL A   1     -23.432   0.635  28.837  0.00  0.00    -0.009 C 
ATOM      2  C   UNL A   1     -23.952  -0.453  28.914  0.00  0.00    -0.044 C 
ATOM      3  C   UNL A   1     -23.236  -1.647  28.995  0.00  0.00    +0.023 C 
ATOM      4  C   UNL A   1     -23.787  -3.014  29.079  0.00  0.00    +0.016 C 
ATOM      5  C   UNL A   1     -25.195  -3.103  29.302  0.00  0.00    +0.104 C 
ATOM      6  C   UNL A   1     -25.947  -1.925  29.273  0.00  0.00    +0.016 C 
ATOM      7  C   UNL A   1     -25.399  -0.700  29.110  0.00  0.00    +0.023 C 
ENDROOT
BRANCH   5   8
ATOM      8  C   UNL A   1     -25.731  -4.455  29.430  0.00  0.00    +0.364 C 
ATOM      9  O   UNL A   1     -25.069  -5.390  29.027  0.00  0.00    -0.246 OA
ATOM     10  O   UNL A   1     -26.978  -4.673  29.825  0.00  0.00    -0.246 OA
ENDBRANCH   5   8
BRANCH   1  11
ATOM     11  C   UNL A   1     -22.083   0.733  28.200  0.00  0.00    -0.001 C 
ATOM     12  C   UNL A   1     -21.832   1.689  27.220  0.00  0.00    -0.000 C 
BRANCH  12  13
ATOM     13  C   UNL A   1     -22.902   2.074  26.499  0.00  0.00    -0.000 C 
ATOM     14  C   UNL A   1     -22.821   2.469  25.200  0.00  0.00    -0.000 C 
ENDBRANCH  12  13
ENDBRANCH   1  11
TORSDOF 3
ENDMDL
ENDMDL
