MODEL 171
MODEL 1
REMARK VINA RESULT:    -5.365      0.000      0.000
REMARK INTER + INTRA:          -6.626
REMARK INTER:                  -6.306
REMARK INTRA:                  -0.319
REMARK UNBOUND:                -0.319
REMARK  Name = No_171-gen_results/8p0m/2024-11-26-14-13-15/
REMARK  3 active torsions:
REMARK  status: ('A' for Active; 'I' for Inactive)
REMARK    1  A    between atoms: C_2  and  C_3
REMARK    2  A    between atoms: C_8  and  C_9
REMARK    3  A    between atoms: C_9  and  C_12
REMARK                            x       y       z     vdW  Elec       q    Type
REMARK                         _______ _______ _______ _____ _____    ______ ____
ROOT
ATOM      1  C   UNL A   1     -22.911   1.343  27.506  0.00  0.00    +0.055 A 
ATOM      2  C   UNL A   1     -23.560   0.439  28.143  0.00  0.00    +0.001 A 
ATOM      3  C   UNL A   1     -21.397   1.362  27.701  0.00  0.00    +0.004 A 
ATOM      4  C   UNL A   1     -22.925  -0.602  28.941  0.00  0.00    -0.018 A 
ATOM      5  C   UNL A   1     -20.727   0.311  28.402  0.00  0.00    -0.000 A 
ATOM      6  C   UNL A   1     -21.484  -0.647  29.106  0.00  0.00    -0.004 A 
ENDROOT
BRANCH   1   8
ATOM      7  O   UNL A   1     -23.240   2.319  25.598  0.00  0.00    -0.268 OA
ATOM      8  C   UNL A   1     -23.475   2.350  26.721  0.00  0.00    +0.265 C 
ATOM      9  N   UNL A   1     -24.240   3.298  27.305  0.00  0.00    -0.200 NA
ATOM     10  C   UNL A   1     -24.808   4.263  26.644  0.00  0.00    +0.139 C 
ENDBRANCH   1   8
BRANCH   4  11
ATOM     11  C   UNL A   1     -23.631  -1.524  29.700  0.00  0.00    +0.052 C 
BRANCH  11  12
ATOM     12  C   UNL A   1     -24.357  -2.320  29.225  0.00  0.00    -0.021 C 
ATOM     13  C   UNL A   1     -24.033  -3.760  29.029  0.00  0.00    -0.005 C 
ENDBRANCH  11  12
ENDBRANCH   4  11
TORSDOF 3
ENDMDL
ENDMDL
