REMARK  Name = No_1720-gen_results/8p0m/2024-11-26-14-13-15/
REMARK  2 active torsions:
REMARK  status: ('A' for Active; 'I' for Inactive)
REMARK    1  A    between atoms: C_3  and  C_4
REMARK    2  A    between atoms: C_9  and  C_10
REMARK                            x       y       z     vdW  Elec       q    Type
REMARK                         _______ _______ _______ _____ _____    ______ ____
ROOT
ATOM      1  C   UNL A   1     -28.016  -0.814  28.878  0.00  0.00    -0.004 A 
ATOM      2  C   UNL A   1     -28.469  -0.785  29.829  0.00  0.00    -0.022 A 
ATOM      3  C   UNL A   1     -27.087   0.290  28.638  0.00  0.00    -0.000 A 
ATOM      4  C   UNL A   1     -29.431  -1.931  30.271  0.00  0.00    +0.031 C 
ATOM      5  C   UNL A   1     -28.272   0.210  30.987  0.00  0.00    -0.004 A 
ATOM      6  C   UNL A   1     -27.438   1.235  30.777  0.00  0.00    -0.000 A 
ATOM      7  C   UNL A   1     -26.752   1.295  29.599  0.00  0.00    -0.000 A 
ENDROOT
BRANCH   3   8
ATOM      8  C   UNL A   1     -26.252   0.411  27.422  0.00  0.00    -0.000 C 
ATOM      9  C   UNL A   1     -25.202   1.045  27.209  0.00  0.00    -0.000 C 
BRANCH   9  10
ATOM     10  C   UNL A   1     -24.405   1.098  26.091  0.00  0.00    -0.005 C 
ATOM     11  C   UNL A   1     -23.293   1.915  25.993  0.00  0.00    -0.026 C 
ATOM     12  C   UNL A   1     -22.855   2.596  27.145  0.00  0.00    +0.031 C 
ENDBRANCH   9  10
ENDBRANCH   3   8
TORSDOF 2
