MODEL 1721
MODEL 1
REMARK VINA RESULT:    -4.897      0.000      0.000
REMARK INTER + INTRA:          -5.250
REMARK INTER:                  -5.183
REMARK INTRA:                  -0.067
REMARK UNBOUND:                -0.067
REMARK  Name = No_1721-gen_results/8p0m/2024-11-26-14-13-15/
REMARK  1 active torsions:
REMARK  status: ('A' for Active; 'I' for Inactive)
REMARK    1  A    between atoms: C_2  and  C_7
REMARK                            x       y       z     vdW  Elec       q    Type
REMARK                         _______ _______ _______ _____ _____    ______ ____
ROOT
ATOM      1  C   UNL A   1     -23.893  -3.466  28.635  0.00  0.00    -0.000 A 
ATOM      2  C   UNL A   1     -24.676  -2.651  29.065  0.00  0.00    -0.000 A 
ATOM      3  C   UNL A   1     -25.881  -3.044  29.636  0.00  0.00    -0.000 A 
ATOM      4  C   UNL A   1     -26.257  -4.433  29.691  0.00  0.00    -0.000 A 
ATOM      5  C   UNL A   1     -25.304  -5.306  29.150  0.00  0.00    -0.000 A 
ATOM      6  C   UNL A   1     -24.186  -4.882  28.607  0.00  0.00    -0.000 A 
ENDROOT
BRANCH   2   7
ATOM      7  C   UNL A   1     -24.467  -1.178  29.066  0.00  0.00    -0.005 C 
ATOM      8  C   UNL A   1     -23.671  -0.580  29.881  0.00  0.00    -0.026 C 
ATOM      9  C   UNL A   1     -23.458  -1.212  31.251  0.00  0.00    +0.031 C 
ENDBRANCH   2   7
TORSDOF 1
ENDMDL
ENDMDL
