MODEL 1722
MODEL 1
REMARK VINA RESULT:    -7.569      0.000      0.000
REMARK INTER + INTRA:          -9.895
REMARK INTER:                  -9.340
REMARK INTRA:                  -0.556
REMARK UNBOUND:                -0.556
REMARK  Name = No_1722-gen_results/8p0m/2024-11-26-14-13-15/
REMARK  4 active torsions:
REMARK  status: ('A' for Active; 'I' for Inactive)
REMARK    1  A    between atoms: C_2  and  O_7
REMARK    2  A    between atoms: C_4  and  C_17
REMARK    3  A    between atoms: O_7  and  C_8
REMARK    4  A    between atoms: C_12  and  C_14
REMARK                            x       y       z     vdW  Elec       q    Type
REMARK                         _______ _______ _______ _____ _____    ______ ____
ROOT
ATOM      1  C   UNL A   1     -25.816   2.141  26.097  0.00  0.00    +0.037 A 
ATOM      2  C   UNL A   1     -25.002   1.476  26.173  0.00  0.00    +0.145 A 
ATOM      3  C   UNL A   1     -27.119   1.523  25.642  0.00  0.00    +0.003 A 
ATOM      4  C   UNL A   1     -27.155   0.945  24.617  0.00  0.00    +0.000 A 
ATOM      5  C   UNL A   1     -24.705   0.398  25.146  0.00  0.00    +0.037 A 
ATOM      6  C   UNL A   1     -25.894   0.007  24.431  0.00  0.00    +0.003 A 
ENDROOT
BRANCH   4   7
ATOM      7  C   UNL A   1     -28.345   0.317  24.023  0.00  0.00    +0.000 A 
ATOM      8  C   UNL A   1     -28.574  -0.959  23.824  0.00  0.00    +0.000 A 
ATOM      9  C   UNL A   1     -29.846  -1.476  23.582  0.00  0.00    +0.000 A 
ATOM     10  C   UNL A   1     -29.454   1.257  23.684  0.00  0.00    +0.000 A 
ATOM     11  C   UNL A   1     -30.744   0.772  23.379  0.00  0.00    +0.000 A 
ATOM     12  C   UNL A   1     -30.931  -0.638  23.356  0.00  0.00    +0.000 A 
ENDBRANCH   4   7
BRANCH   2  13
ATOM     13  O   UNL A   1     -23.767   1.815  26.768  0.00  0.00    -0.454 OA
BRANCH  13  14
ATOM     14  C   UNL A   1     -23.255   1.240  27.738  0.00  0.00    +0.145 A 
ATOM     15  C   UNL A   1     -21.838   1.252  27.722  0.00  0.00    +0.037 A 
ATOM     16  C   UNL A   1     -21.117   0.344  28.568  0.00  0.00    +0.003 A 
ATOM     17  C   UNL A   1     -21.645  -0.603  28.822  0.00  0.00    +0.007 A 
ATOM     18  C   UNL A   1     -23.064  -0.916  28.788  0.00  0.00    +0.083 A 
ATOM     19  C   UNL A   1     -23.853   0.058  28.089  0.00  0.00    +0.044 A 
BRANCH  18  20
ATOM     20  C   UNL A   1     -23.670  -2.117  29.356  0.00  0.00    +0.388 C 
ATOM     21  O   UNL A   1     -23.460  -3.117  28.856  0.00  0.00    -0.241 OA
ATOM     22  O   UNL A   1     -24.037  -2.008  30.614  0.00  0.00    -0.241 OA
ENDBRANCH  18  20
ENDBRANCH  13  14
ENDBRANCH   2  13
TORSDOF 4
ENDMDL
ENDMDL
