REMARK  Name = No_1722-gen_results/8p0m/2024-11-26-14-13-15/
REMARK  4 active torsions:
REMARK  status: ('A' for Active; 'I' for Inactive)
REMARK    1  A    between atoms: C_2  and  O_7
REMARK    2  A    between atoms: C_4  and  C_17
REMARK    3  A    between atoms: O_7  and  C_8
REMARK    4  A    between atoms: C_12  and  C_14
REMARK                            x       y       z     vdW  Elec       q    Type
REMARK                         _______ _______ _______ _____ _____    ______ ____
ROOT
ATOM      1  C   UNL A   1     -28.016  -0.814  28.878  0.00  0.00    +0.037 A 
ATOM      2  C   UNL A   1     -28.469  -0.785  29.829  0.00  0.00    +0.145 A 
ATOM      3  C   UNL A   1     -26.504  -0.778  28.877  0.00  0.00    +0.003 A 
ATOM      4  C   UNL A   1     -25.950   0.116  29.405  0.00  0.00    +0.000 A 
ATOM      5  C   UNL A   1     -27.996   0.119  30.953  0.00  0.00    +0.037 A 
ATOM      6  C   UNL A   1     -26.604   0.465  30.803  0.00  0.00    +0.003 A 
ENDROOT
BRANCH   4   7
ATOM      7  C   UNL A   1     -24.493   0.311  29.466  0.00  0.00    +0.000 A 
ATOM      8  C   UNL A   1     -23.573  -0.555  29.818  0.00  0.00    +0.000 A 
ATOM      9  C   UNL A   1     -22.221  -0.395  29.517  0.00  0.00    +0.000 A 
ATOM     10  C   UNL A   1     -24.012   1.641  28.988  0.00  0.00    +0.000 A 
ATOM     11  C   UNL A   1     -22.644   1.862  28.724  0.00  0.00    +0.000 A 
ATOM     12  C   UNL A   1     -21.741   0.793  28.979  0.00  0.00    +0.000 A 
ENDBRANCH   4   7
BRANCH   2  13
ATOM     13  O   UNL A   1     -29.846  -1.011  30.048  0.00  0.00    -0.454 OA
BRANCH  13  14
ATOM     14  C   UNL A   1     -30.769  -0.514  29.388  0.00  0.00    +0.145 A 
ATOM     15  C   UNL A   1     -31.754  -1.453  28.993  0.00  0.00    +0.037 A 
ATOM     16  C   UNL A   1     -32.678  -1.107  27.951  0.00  0.00    +0.003 A 
ATOM     17  C   UNL A   1     -32.311  -0.366  27.205  0.00  0.00    +0.007 A 
ATOM     18  C   UNL A   1     -31.235   0.606  27.311  0.00  0.00    +0.083 A 
ATOM     19  C   UNL A   1     -30.377   0.396  28.442  0.00  0.00    +0.044 A 
BRANCH  18  20
ATOM     20  C   UNL A   1     -30.983   1.683  26.357  0.00  0.00    +0.388 C 
ATOM     21  O   UNL A   1     -31.317   2.736  26.630  0.00  0.00    -0.241 OA
ATOM     22  O   UNL A   1     -30.030   1.437  25.486  0.00  0.00    -0.241 OA
ENDBRANCH  18  20
ENDBRANCH  13  14
ENDBRANCH   2  13
TORSDOF 4
