MODEL 1723
MODEL 1
REMARK VINA RESULT:    -5.027      0.000      0.000
REMARK INTER + INTRA:          -5.356
REMARK INTER:                  -5.321
REMARK INTRA:                  -0.035
REMARK UNBOUND:                -0.035
REMARK  Name = No_1723-gen_results/8p0m/2024-11-26-14-13-15/
REMARK  1 active torsions:
REMARK  status: ('A' for Active; 'I' for Inactive)
REMARK    1  A    between atoms: C_2  and  C_5
REMARK                            x       y       z     vdW  Elec       q    Type
REMARK                         _______ _______ _______ _____ _____    ______ ____
ROOT
ATOM      1  C   UNL A   1     -28.913 -10.491  32.804  0.00  0.00    +0.007 A 
ATOM      2  C   UNL A   1     -28.169 -11.213  32.619  0.00  0.00    +0.080 A 
ATOM      3  C   UNL A   1     -29.746 -10.093  31.606  0.00  0.00    +0.000 A 
ATOM      4  C   UNL A   1     -29.585 -10.790  30.390  0.00  0.00    +0.000 A 
ATOM      5  C   UNL A   1     -28.611 -11.761  30.348  0.00  0.00    +0.000 A 
ATOM      6  C   UNL A   1     -27.880 -12.070  31.472  0.00  0.00    +0.007 A 
ENDROOT
BRANCH   2   7
ATOM      7  C   UNL A   1     -27.320 -11.647  33.836  0.00  0.00    +0.388 C 
ATOM      8  O   UNL A   1     -26.883 -10.723  34.645  0.00  0.00    -0.241 OA
ATOM      9  O   UNL A   1     -26.777 -12.803  33.826  0.00  0.00    -0.241 OA
ENDBRANCH   2   7
TORSDOF 1
ENDMDL
ENDMDL
