REMARK  Name = No_1724-gen_results/8p0m/2024-11-26-14-13-15/
REMARK  3 active torsions:
REMARK  status: ('A' for Active; 'I' for Inactive)
REMARK    1  A    between atoms: C_3  and  C_10
REMARK    2  A    between atoms: C_5  and  C_7
REMARK    3  A    between atoms: C_10  and  C_11
REMARK                            x       y       z     vdW  Elec       q    Type
REMARK                         _______ _______ _______ _____ _____    ______ ____
ROOT
ATOM      1  C   UNL A   1     -28.016  -0.814  28.878  0.00  0.00    -0.000 A 
ATOM      2  C   UNL A   1     -27.064  -0.119  28.608  0.00  0.00    -0.004 A 
ATOM      3  C   UNL A   1     -26.972   0.714  27.506  0.00  0.00    -0.018 A 
ATOM      4  C   UNL A   1     -28.105   0.774  26.642  0.00  0.00    +0.003 A 
ATOM      5  C   UNL A   1     -29.204   0.118  27.048  0.00  0.00    +0.080 A 
ATOM      6  C   UNL A   1     -29.213  -0.609  28.128  0.00  0.00    +0.007 A 
ENDROOT
BRANCH   5   7
ATOM      7  C   UNL A   1     -30.371   0.233  26.138  0.00  0.00    +0.388 C 
ATOM      8  O   UNL A   1     -30.309   0.105  24.941  0.00  0.00    -0.241 OA
ATOM      9  O   UNL A   1     -31.579   0.266  26.675  0.00  0.00    -0.241 OA
ENDBRANCH   5   7
BRANCH   3  10
ATOM     10  C   UNL A   1     -25.667   1.405  27.124  0.00  0.00    +0.052 C 
BRANCH  10  11
ATOM     11  C   UNL A   1     -25.157   2.354  28.108  0.00  0.00    -0.026 C 
ATOM     12  C   UNL A   1     -25.605   2.749  28.936  0.00  0.00    -0.030 C 
ATOM     13  C   UNL A   1     -25.985   3.669  29.661  0.00  0.00    +0.030 C 
ENDBRANCH  10  11
ENDBRANCH   3  10
TORSDOF 3
