MODEL 1724
MODEL 1
REMARK VINA RESULT:    -6.111      0.000      0.000
REMARK INTER + INTRA:          -7.463
REMARK INTER:                  -7.183
REMARK INTRA:                  -0.280
REMARK UNBOUND:                -0.280
REMARK  Name = No_1724-gen_results/8p0m/2024-11-26-14-13-15/
REMARK  3 active torsions:
REMARK  status: ('A' for Active; 'I' for Inactive)
REMARK    1  A    between atoms: C_3  and  C_10
REMARK    2  A    between atoms: C_5  and  C_7
REMARK    3  A    between atoms: C_10  and  C_11
REMARK                            x       y       z     vdW  Elec       q    Type
REMARK                         _______ _______ _______ _____ _____    ______ ____
ROOT
ATOM      1  C   UNL A   1     -20.933   0.137  28.561  0.00  0.00    -0.000 A 
ATOM      2  C   UNL A   1     -21.614  -0.782  28.953  0.00  0.00    -0.004 A 
ATOM      3  C   UNL A   1     -22.993  -0.854  28.848  0.00  0.00    -0.018 A 
ATOM      4  C   UNL A   1     -23.651   0.231  28.198  0.00  0.00    +0.003 A 
ATOM      5  C   UNL A   1     -22.863   1.159  27.632  0.00  0.00    +0.080 A 
ATOM      6  C   UNL A   1     -21.566   1.123  27.745  0.00  0.00    +0.007 A 
ENDROOT
BRANCH   5   7
ATOM      7  C   UNL A   1     -23.587   2.253  26.937  0.00  0.00    +0.388 C 
ATOM      8  O   UNL A   1     -23.978   3.255  27.481  0.00  0.00    -0.241 OA
ATOM      9  O   UNL A   1     -23.622   2.235  25.616  0.00  0.00    -0.241 OA
ENDBRANCH   5   7
BRANCH   3  10
ATOM     10  C   UNL A   1     -23.798  -1.947  29.543  0.00  0.00    +0.052 C 
BRANCH  10  11
ATOM     11  C   UNL A   1     -23.910  -3.200  28.803  0.00  0.00    -0.026 C 
ATOM     12  C   UNL A   1     -24.527  -4.000  28.951  0.00  0.00    -0.030 C 
ATOM     13  C   UNL A   1     -24.775  -5.193  29.126  0.00  0.00    +0.030 C 
ENDBRANCH  10  11
ENDBRANCH   3  10
TORSDOF 3
ENDMDL
ENDMDL
