REMARK  Name = No_1725-gen_results/8p0m/2024-11-26-14-13-15/
REMARK  2 active torsions:
REMARK  status: ('A' for Active; 'I' for Inactive)
REMARK    1  A    between atoms: C_3  and  C_5
REMARK    2  A    between atoms: C_5  and  N_9
REMARK                            x       y       z     vdW  Elec       q    Type
REMARK                         _______ _______ _______ _____ _____    ______ ____
ROOT
ATOM      1  O   UNL A   1     -28.123  -1.335  28.487  0.00  0.00    -0.273 OA
ATOM      2  C   UNL A   1     -27.481  -0.404  28.709  0.00  0.00    +0.242 C 
ATOM      3  C   UNL A   1     -27.190   0.246  29.527  0.00  0.00    +0.096 C 
ATOM      4  N   UNL A   1     -26.687  -0.000  27.442  0.00  0.00    -0.205 NA
ATOM      5  C   UNL A   1     -25.751   1.005  27.434  0.00  0.00    +0.115 C 
ATOM      6  C   UNL A   1     -25.561   1.691  28.612  0.00  0.00    +0.024 C 
ATOM      7  C   UNL A   1     -26.156   1.368  29.681  0.00  0.00    +0.012 C 
ENDROOT
BRANCH   3   8
ATOM      8  C   UNL A   1     -27.651   0.126  30.880  0.00  0.00    +0.098 C 
BRANCH   8   9
ATOM      9  N   UNL A   1     -28.230  -0.812  31.202  0.00  0.00    -0.216 NA
ATOM     10  C   UNL A   1     -28.042  -1.930  30.911  0.00  0.00    +0.107 C 
ENDBRANCH   8   9
ENDBRANCH   3   8
TORSDOF 2
