MODEL 1725
MODEL 1
REMARK VINA RESULT:    -4.359      0.000      0.000
REMARK INTER + INTRA:          -4.997
REMARK INTER:                  -4.868
REMARK INTRA:                  -0.128
REMARK UNBOUND:                -0.128
REMARK  Name = No_1725-gen_results/8p0m/2024-11-26-14-13-15/
REMARK  2 active torsions:
REMARK  status: ('A' for Active; 'I' for Inactive)
REMARK    1  A    between atoms: C_3  and  C_5
REMARK    2  A    between atoms: C_5  and  N_9
REMARK                            x       y       z     vdW  Elec       q    Type
REMARK                         _______ _______ _______ _____ _____    ______ ____
ROOT
ATOM      1  O   UNL A   1     -26.349  -1.520  30.073  0.00  0.00    -0.273 OA
ATOM      2  C   UNL A   1     -25.727  -2.368  29.601  0.00  0.00    +0.242 C 
ATOM      3  C   UNL A   1     -24.788  -2.542  29.088  0.00  0.00    +0.096 C 
ATOM      4  N   UNL A   1     -26.408  -3.732  29.874  0.00  0.00    -0.205 NA
ATOM      5  C   UNL A   1     -25.840  -4.934  29.530  0.00  0.00    +0.115 C 
ATOM      6  C   UNL A   1     -24.628  -4.889  28.879  0.00  0.00    +0.024 C 
ATOM      7  C   UNL A   1     -24.016  -3.801  28.673  0.00  0.00    +0.012 C 
ENDROOT
BRANCH   3   8
ATOM      8  C   UNL A   1     -23.837  -1.525  28.740  0.00  0.00    +0.098 C 
BRANCH   8   9
ATOM      9  N   UNL A   1     -22.732  -1.661  29.021  0.00  0.00    -0.216 NA
ATOM     10  C   UNL A   1     -21.915  -0.844  29.213  0.00  0.00    +0.107 C 
ENDBRANCH   8   9
ENDBRANCH   3   8
TORSDOF 2
ENDMDL
ENDMDL
