REMARK  Name = No_1726-gen_results/8p0m/2024-11-26-14-13-15/
REMARK  1 active torsions:
REMARK  status: ('A' for Active; 'I' for Inactive)
REMARK    1  A    between atoms: C_2  and  C_3
REMARK                            x       y       z     vdW  Elec       q    Type
REMARK                         _______ _______ _______ _____ _____    ______ ____
ROOT
ATOM      1  C   UNL A   1     -25.966  -0.212  29.623  0.00  0.00    -0.013 C 
ATOM      2  C   UNL A   1     -25.758  -1.381  30.415  0.00  0.00    -0.029 C 
ATOM      3  C   UNL A   1     -26.932  -2.279  30.389  0.00  0.00    +0.030 C 
ENDROOT
BRANCH   1   5
ATOM      4 CL   UNL A   1     -28.149  -0.820  28.908  0.00  0.00    -0.109 Cl
ATOM      5  C   UNL A   1     -26.912  -0.080  28.945  0.00  0.00    +0.120 C 
ENDBRANCH   1   5
TORSDOF 1
