MODEL 1726
MODEL 1
REMARK VINA RESULT:    -3.479      0.000      0.000
REMARK INTER + INTRA:          -3.747
REMARK INTER:                  -3.682
REMARK INTRA:                  -0.064
REMARK UNBOUND:                -0.064
REMARK  Name = No_1726-gen_results/8p0m/2024-11-26-14-13-15/
REMARK  1 active torsions:
REMARK  status: ('A' for Active; 'I' for Inactive)
REMARK    1  A    between atoms: C_2  and  C_3
REMARK                            x       y       z     vdW  Elec       q    Type
REMARK                         _______ _______ _______ _____ _____    ______ ____
ROOT
ATOM      1  C   UNL A   1      -9.175  -9.317  19.697  0.00  0.00    -0.013 C 
ATOM      2  C   UNL A   1      -9.969  -9.717  18.580  0.00  0.00    -0.029 C 
ATOM      3  C   UNL A   1      -9.172 -10.449  17.573  0.00  0.00    +0.030 C 
ENDROOT
BRANCH   1   5
ATOM      4 CL   UNL A   1      -7.313  -9.992  21.011  0.00  0.00    -0.109 Cl
ATOM      5  C   UNL A   1      -8.062  -9.660  19.824  0.00  0.00    +0.120 C 
ENDBRANCH   1   5
TORSDOF 1
ENDMDL
ENDMDL
