MODEL 1727
MODEL 1
REMARK VINA RESULT:    -5.759      0.000      0.000
REMARK INTER + INTRA:          -5.759
REMARK INTER:                  -5.759
REMARK INTRA:                   0.000
REMARK UNBOUND:                 0.000
REMARK  Name = No_1727-gen_results/8p0m/2024-11-26-14-13-15/
REMARK  0 active torsions:
REMARK  status: ('A' for Active; 'I' for Inactive)
REMARK                            x       y       z     vdW  Elec       q    Type
REMARK                         _______ _______ _______ _____ _____    ______ ____
ROOT
ATOM      1  O   UNL A   1     -23.171   0.283  28.957  0.00  0.00    -0.275 OA
ATOM      2  C   UNL A   1     -23.544  -0.655  29.514  0.00  0.00    +0.230 C 
ATOM      3  C   UNL A   1     -23.465  -1.911  28.945  0.00  0.00    +0.111 C 
ATOM      4  N   UNL A   1     -24.575  -0.562  30.552  0.00  0.00    -0.273 N 
ATOM      5  C   UNL A   1     -24.139  -2.981  29.337  0.00  0.00    -0.015 A 
ATOM      6  C   UNL A   1     -24.020  -4.310  28.830  0.00  0.00    -0.004 A 
ATOM      7  C   UNL A   1     -25.030  -5.197  28.962  0.00  0.00    -0.000 A 
ATOM      8  C   UNL A   1     -26.245  -4.779  29.621  0.00  0.00    -0.000 A 
ATOM      9  C   UNL A   1     -26.442  -3.507  30.071  0.00  0.00    -0.003 A 
ATOM     10  C   UNL A   1     -25.441  -2.592  29.811  0.00  0.00    -0.006 A 
ATOM     11  C   UNL A   1     -25.597  -1.333  30.525  0.00  0.00    +0.120 C 
ATOM     12  C   UNL A   1     -24.417   0.613  31.389  0.00  0.00    +0.115 C 
ENDROOT
TORSDOF 0
ENDMDL
ENDMDL
