REMARK  Name = No_1728-gen_results/8p0m/2024-11-26-14-13-15/
REMARK  1 active torsions:
REMARK  status: ('A' for Active; 'I' for Inactive)
REMARK    1  A    between atoms: C_6  and  C_7
REMARK                            x       y       z     vdW  Elec       q    Type
REMARK                         _______ _______ _______ _____ _____    ______ ____
ROOT
ATOM      1  C   UNL A   1     -28.016  -0.814  28.878  0.00  0.00    +0.005 A 
ATOM      2  C   UNL A   1     -27.064  -0.119  28.608  0.00  0.00    +0.000 A 
ATOM      3  C   UNL A   1     -25.765  -0.390  29.036  0.00  0.00    +0.000 A 
ATOM      4  C   UNL A   1     -25.530  -1.530  29.901  0.00  0.00    +0.000 A 
ATOM      5  C   UNL A   1     -26.689  -2.289  30.181  0.00  0.00    +0.005 A 
ATOM      6  C   UNL A   1     -27.873  -1.951  29.737  0.00  0.00    +0.055 A 
ENDROOT
BRANCH   6   7
ATOM      7  C   UNL A   1     -29.002  -2.814  30.179  0.00  0.00    +0.265 C 
ATOM      8  O   UNL A   1     -28.900  -4.018  30.332  0.00  0.00    -0.268 OA
ATOM      9  N   UNL A   1     -30.277  -2.276  30.066  0.00  0.00    -0.200 NA
ATOM     10  C   UNL A   1     -30.542  -0.933  29.954  0.00  0.00    +0.139 C 
ENDBRANCH   6   7
TORSDOF 1
