MODEL 1728
MODEL 1
REMARK VINA RESULT:    -4.886      0.000      0.000
REMARK INTER + INTRA:          -5.086
REMARK INTER:                  -5.171
REMARK INTRA:                   0.085
REMARK UNBOUND:                 0.085
REMARK  Name = No_1728-gen_results/8p0m/2024-11-26-14-13-15/
REMARK  1 active torsions:
REMARK  status: ('A' for Active; 'I' for Inactive)
REMARK    1  A    between atoms: C_6  and  C_7
REMARK                            x       y       z     vdW  Elec       q    Type
REMARK                         _______ _______ _______ _____ _____    ______ ____
ROOT
ATOM      1  C   UNL A   1     -23.902  -3.681  28.545  0.00  0.00    +0.005 A 
ATOM      2  C   UNL A   1     -24.200  -4.838  28.727  0.00  0.00    +0.000 A 
ATOM      3  C   UNL A   1     -25.408  -5.244  29.292  0.00  0.00    +0.000 A 
ATOM      4  C   UNL A   1     -26.348  -4.238  29.748  0.00  0.00    +0.000 A 
ATOM      5  C   UNL A   1     -25.928  -2.909  29.512  0.00  0.00    +0.005 A 
ATOM      6  C   UNL A   1     -24.767  -2.625  28.978  0.00  0.00    +0.055 A 
ENDROOT
BRANCH   6   7
ATOM      7  C   UNL A   1     -24.444  -1.177  28.861  0.00  0.00    +0.265 C 
ATOM      8  O   UNL A   1     -24.575  -0.546  27.828  0.00  0.00    -0.268 OA
ATOM      9  N   UNL A   1     -23.644  -0.636  29.859  0.00  0.00    -0.200 NA
ATOM     10  C   UNL A   1     -23.459  -1.206  31.095  0.00  0.00    +0.139 C 
ENDBRANCH   6   7
TORSDOF 1
ENDMDL
ENDMDL
