MODEL 1729
MODEL 1
REMARK VINA RESULT:    -5.068      0.000      0.000
REMARK INTER + INTRA:          -5.873
REMARK INTER:                  -5.661
REMARK INTRA:                  -0.212
REMARK UNBOUND:                -0.212
REMARK  Name = No_1729-gen_results/8p0m/2024-11-26-14-13-15/
REMARK  2 active torsions:
REMARK  status: ('A' for Active; 'I' for Inactive)
REMARK    1  A    between atoms: C_1  and  C_2
REMARK    2  A    between atoms: C_1  and  N_8
REMARK                            x       y       z     vdW  Elec       q    Type
REMARK                         _______ _______ _______ _____ _____    ______ ____
ROOT
ATOM      1  C   UNL A   1     -25.228  -2.630  29.405  0.00  0.00    +0.002 A 
ATOM      2  C   UNL A   1     -26.252  -3.483  29.767  0.00  0.00    -0.002 A 
ATOM      3  C   UNL A   1     -26.106  -4.865  29.659  0.00  0.00    -0.000 A 
ATOM      4  C   UNL A   1     -24.984  -5.472  28.957  0.00  0.00    -0.000 A 
ATOM      5  C   UNL A   1     -23.979  -4.585  28.539  0.00  0.00    -0.000 A 
ATOM      6  C   UNL A   1     -24.100  -3.261  28.830  0.00  0.00    -0.002 A 
ENDROOT
BRANCH   1   7
ATOM      7  C   UNL A   1     -25.075  -1.528  29.879  0.00  0.00    +0.151 C 
BRANCH   7   8
ATOM      8  N   UNL A   1     -24.023  -1.418  30.759  0.00  0.00    -0.269 NA
ATOM      9  C   UNL A   1     -24.036  -1.143  31.769  0.00  0.00    +0.068 C 
ATOM     10  C   UNL A   1     -22.836  -1.273  32.668  0.00  0.00    +0.053 C 
ENDBRANCH   7   8
ENDBRANCH   1   7
TORSDOF 2
ENDMDL
ENDMDL
