MODEL 172
MODEL 1
REMARK VINA RESULT:    -6.503      0.000      0.000
REMARK INTER + INTRA:          -7.203
REMARK INTER:                  -6.883
REMARK INTRA:                  -0.320
REMARK UNBOUND:                -0.320
REMARK  Name = No_172-gen_results/8p0m/2024-11-26-14-13-15/
REMARK  1 active torsions:
REMARK  status: ('A' for Active; 'I' for Inactive)
REMARK    1  A    between atoms: C_3  and  C_7
REMARK                            x       y       z     vdW  Elec       q    Type
REMARK                         _______ _______ _______ _____ _____    ______ ____
ROOT
ATOM      1  C   UNL A   1     -26.522  -3.527  29.969  0.00  0.00    +0.000 A 
ATOM      2  C   UNL A   1     -25.890  -2.577  29.567  0.00  0.00    +0.000 A 
ATOM      3  C   UNL A   1     -24.655  -2.647  28.945  0.00  0.00    +0.000 A 
ATOM      4  C   UNL A   1     -24.106  -3.947  28.739  0.00  0.00    +0.000 A 
ATOM      5  C   UNL A   1     -24.895  -4.988  29.048  0.00  0.00    +0.000 A 
ATOM      6  C   UNL A   1     -26.067  -4.826  29.592  0.00  0.00    +0.000 A 
ENDROOT
BRANCH   3   7
ATOM      7  C   UNL A   1     -23.845  -1.427  28.590  0.00  0.00    +0.000 A 
ATOM      8  C   UNL A   1     -24.383  -0.410  27.894  0.00  0.00    +0.000 A 
ATOM      9  C   UNL A   1     -23.600   0.806  27.661  0.00  0.00    +0.000 A 
ATOM     10  C   UNL A   1     -22.309   0.847  28.250  0.00  0.00    +0.000 A 
ATOM     11  C   UNL A   1     -22.568  -1.173  29.197  0.00  0.00    +0.000 A 
ATOM     12  C   UNL A   1     -21.813  -0.122  28.964  0.00  0.00    +0.000 A 
ENDBRANCH   3   7
TORSDOF 1
ENDMDL
ENDMDL
