REMARK  Name = No_173-gen_results/8p0m/2024-11-26-14-13-15/
REMARK  2 active torsions:
REMARK  status: ('A' for Active; 'I' for Inactive)
REMARK    1  A    between atoms: C_4  and  O_7
REMARK    2  A    between atoms: O_7  and  C_8
REMARK                            x       y       z     vdW  Elec       q    Type
REMARK                         _______ _______ _______ _____ _____    ______ ____
ROOT
ATOM      1  O   UNL A   1     -24.499  -0.833  29.915  0.00  0.00    -0.457 OA
ENDROOT
BRANCH   1   2
ATOM      2  C   UNL A   1     -23.742  -0.355  28.930  0.00  0.00    +0.127 C 
ATOM      3  C   UNL A   1     -23.878   0.765  28.242  0.00  0.00    +0.033 C 
ATOM      4  C   UNL A   1     -22.974   1.292  27.377  0.00  0.00    +0.003 C 
ATOM      5  C   UNL A   1     -22.102   1.813  27.489  0.00  0.00    -0.000 C 
ATOM      6  C   UNL A   1     -21.127   1.062  28.490  0.00  0.00    -0.004 C 
ATOM      7  C   UNL A   1     -21.334  -0.021  29.284  0.00  0.00    -0.018 C 
ATOM      8  C   UNL A   1     -22.352  -0.261  29.840  0.00  0.00    +0.090 C 
ENDBRANCH   1   2
BRANCH   1  12
ATOM      9  C   UNL A   1     -28.016  -0.814  28.878  0.00  0.00    +0.003 A 
ATOM     10  C   UNL A   1     -28.469  -0.785  29.829  0.00  0.00    +0.000 A 
ATOM     11  C   UNL A   1     -26.546  -0.876  28.850  0.00  0.00    +0.037 A 
ATOM     12  C   UNL A   1     -25.897  -0.827  29.889  0.00  0.00    +0.145 A 
ATOM     13  C   UNL A   1     -26.494  -0.798  31.174  0.00  0.00    +0.037 A 
ATOM     14  C   UNL A   1     -27.859  -0.758  31.165  0.00  0.00    +0.003 A 
ENDBRANCH   1  12
TORSDOF 2
