REMARK  Name = No_1730-gen_results/8p0m/2024-11-26-14-13-15/
REMARK  2 active torsions:
REMARK  status: ('A' for Active; 'I' for Inactive)
REMARK    1  A    between atoms: C_1  and  C_10
REMARK    2  A    between atoms: C_10  and  C_11
REMARK                            x       y       z     vdW  Elec       q    Type
REMARK                         _______ _______ _______ _____ _____    ______ ____
ROOT
ATOM      1  C   UNL A   1     -28.016  -0.814  28.878  0.00  0.00    -0.011 C 
ATOM      2  C   UNL A   1     -27.064  -0.119  28.608  0.00  0.00    +0.070 C 
ATOM      3  C   UNL A   1     -26.972   0.714  27.506  0.00  0.00    +0.198 C 
ATOM      4  C   UNL A   1     -25.820   1.491  27.116  0.00  0.00    +0.035 A 
ATOM      5  C   UNL A   1     -24.656   1.424  27.918  0.00  0.00    -0.016 A 
ATOM      6  C   UNL A   1     -23.460   2.116  27.616  0.00  0.00    -0.026 A 
ATOM      7  C   UNL A   1     -23.507   2.708  26.294  0.00  0.00    -0.005 A 
ATOM      8  C   UNL A   1     -25.773  -0.195  29.440  0.00  0.00    +0.179 C 
ATOM      9  C   UNL A   1     -24.639   0.541  29.134  0.00  0.00    +0.084 C 
ATOM     10  C   UNL A   1     -22.170   1.308  27.717  0.00  0.00    +0.026 C 
ATOM     11  C   UNL A   1     -23.419   0.345  29.899  0.00  0.00    +0.012 C 
ATOM     12  C   UNL A   1     -22.104   0.664  29.173  0.00  0.00    +0.005 C 
ATOM     13  C   UNL A   1     -25.821   2.273  25.975  0.00  0.00    +0.003 A 
ATOM     14  C   UNL A   1     -24.810   3.042  25.869  0.00  0.00    -0.000 A 
ATOM     15  O   UNL A   1     -25.935  -0.671  30.674  0.00  0.00    -0.291 OA
ATOM     16  O   UNL A   1     -28.118   0.962  26.913  0.00  0.00    -0.286 OA
ENDROOT
BRANCH   1  17
ATOM     17  C   UNL A   1     -29.197  -0.057  29.381  0.00  0.00    +0.130 C 
BRANCH  17  18
ATOM     18  C   UNL A   1     -30.353  -0.791  29.772  0.00  0.00    +0.402 C 
ATOM     19  F   UNL A   1     -30.960  -0.288  30.867  0.00  0.00    -0.170 F 
ATOM     20  F   UNL A   1     -31.320  -0.825  28.849  0.00  0.00    -0.170 F 
ATOM     21  F   UNL A   1     -30.154  -2.111  30.072  0.00  0.00    -0.170 F 
ENDBRANCH  17  18
ENDBRANCH   1  17
TORSDOF 2
