MODEL 1731
MODEL 1
REMARK VINA RESULT:    -6.361      0.000      0.000
REMARK INTER + INTRA:          -7.649
REMARK INTER:                  -7.104
REMARK INTRA:                  -0.545
REMARK UNBOUND:                -0.545
REMARK  Name = No_1731-gen_results/8p0m/2024-11-26-14-13-15/
REMARK  2 active torsions:
REMARK  status: ('A' for Active; 'I' for Inactive)
REMARK    1  A    between atoms: C_3  and  C_4
REMARK    2  A    between atoms: C_4  and  C_8
REMARK                            x       y       z     vdW  Elec       q    Type
REMARK                         _______ _______ _______ _____ _____    ______ ____
ROOT
ATOM      1  C   UNL A   1     -24.531  -1.217  29.700  0.00  0.00    +0.053 C 
ENDROOT
BRANCH   1   4
ATOM      2  C   UNL A   1     -23.828  -3.486  28.727  0.00  0.00    -0.004 A 
ATOM      3  C   UNL A   1     -24.070  -4.506  28.625  0.00  0.00    -0.000 A 
ATOM      4  C   UNL A   1     -24.763  -2.650  29.378  0.00  0.00    -0.018 A 
ATOM      5  C   UNL A   1     -25.261  -5.270  29.037  0.00  0.00    -0.000 A 
ATOM      6  C   UNL A   1     -26.231  -4.506  29.685  0.00  0.00    -0.000 A 
ATOM      7  C   UNL A   1     -25.992  -3.189  29.916  0.00  0.00    -0.004 A 
ENDBRANCH   1   4
BRANCH   1   8
ATOM      8  C   UNL A   1     -23.957  -0.398  28.680  0.00  0.00    -0.018 A 
ATOM      9  C   UNL A   1     -22.819   0.168  28.842  0.00  0.00    -0.004 A 
ATOM     10  C   UNL A   1     -22.372   1.196  27.775  0.00  0.00    -0.000 A 
ATOM     11  C   UNL A   1     -23.222   1.428  26.677  0.00  0.00    -0.000 A 
ATOM     12  C   UNL A   1     -24.378   0.718  26.560  0.00  0.00    -0.000 A 
ATOM     13  C   UNL A   1     -24.842  -0.108  27.594  0.00  0.00    -0.004 A 
ENDBRANCH   1   8
TORSDOF 2
ENDMDL
ENDMDL
