REMARK  Name = No_1732-gen_results/8p0m/2024-11-26-14-13-15/
REMARK  3 active torsions:
REMARK  status: ('A' for Active; 'I' for Inactive)
REMARK    1  A    between atoms: C_3  and  O_8
REMARK    2  A    between atoms: O_8  and  C_9
REMARK    3  A    between atoms: C_10  and  C_11
REMARK                            x       y       z     vdW  Elec       q    Type
REMARK                         _______ _______ _______ _____ _____    ______ ____
ROOT
ATOM      1  C   UNL A   1     -28.016  -0.814  28.878  0.00  0.00    +0.033 A 
ATOM      2  C   UNL A   1     -27.064  -0.119  28.608  0.00  0.00    +0.040 A 
ATOM      3  C   UNL A   1     -25.792  -0.430  29.076  0.00  0.00    +0.146 A 
ATOM      4  C   UNL A   1     -25.576  -1.565  29.936  0.00  0.00    +0.040 A 
ATOM      5  C   UNL A   1     -26.735  -2.300  30.217  0.00  0.00    +0.033 A 
ATOM      6  C   UNL A   1     -27.918  -1.954  29.763  0.00  0.00    +0.140 A 
ATOM      7  F   UNL A   1     -28.965  -2.696  30.072  0.00  0.00    -0.204 F 
ENDROOT
BRANCH   3   8
ATOM      8  O   UNL A   1     -24.644   0.331  28.833  0.00  0.00    -0.450 OA
BRANCH   8   9
ATOM      9  C   UNL A   1     -24.595   1.325  27.961  0.00  0.00    +0.179 C 
ATOM     10  C   UNL A   1     -23.263   1.726  27.693  0.00  0.00    +0.041 C 
BRANCH  10  11
ATOM     11  C   UNL A   1     -22.245   1.414  28.568  0.00  0.00    +0.003 C 
ATOM     12  C   UNL A   1     -22.415   0.360  29.494  0.00  0.00    +0.000 C 
ENDBRANCH  10  11
ENDBRANCH   8   9
ENDBRANCH   3   8
TORSDOF 3
