MODEL 1732
MODEL 1
REMARK VINA RESULT:    -5.320      0.000      0.000
REMARK INTER + INTRA:          -6.578
REMARK INTER:                  -6.253
REMARK INTRA:                  -0.324
REMARK UNBOUND:                -0.324
REMARK  Name = No_1732-gen_results/8p0m/2024-11-26-14-13-15/
REMARK  3 active torsions:
REMARK  status: ('A' for Active; 'I' for Inactive)
REMARK    1  A    between atoms: C_3  and  O_8
REMARK    2  A    between atoms: O_8  and  C_9
REMARK    3  A    between atoms: C_10  and  C_11
REMARK                            x       y       z     vdW  Elec       q    Type
REMARK                         _______ _______ _______ _____ _____    ______ ____
ROOT
ATOM      1  C   UNL A   1     -26.096  -4.506  29.613  0.00  0.00    +0.033 A 
ATOM      2  C   UNL A   1     -26.075  -3.357  29.988  0.00  0.00    +0.040 A 
ATOM      3  C   UNL A   1     -25.002  -2.524  29.689  0.00  0.00    +0.146 A 
ATOM      4  C   UNL A   1     -23.860  -3.019  28.963  0.00  0.00    +0.040 A 
ATOM      5  C   UNL A   1     -23.958  -4.365  28.589  0.00  0.00    +0.033 A 
ATOM      6  C   UNL A   1     -24.987  -5.114  28.911  0.00  0.00    +0.140 A 
ATOM      7  F   UNL A   1     -25.007  -6.376  28.525  0.00  0.00    -0.204 F 
ENDROOT
BRANCH   3   8
ATOM      8  O   UNL A   1     -24.885  -1.193  30.103  0.00  0.00    -0.450 OA
BRANCH   8   9
ATOM      9  C   UNL A   1     -23.730  -0.615  30.391  0.00  0.00    +0.179 C 
ATOM     10  C   UNL A   1     -23.478  -0.603  31.785  0.00  0.00    +0.041 C 
BRANCH  10  11
ATOM     11  C   UNL A   1     -24.508  -0.765  32.686  0.00  0.00    +0.003 C 
ATOM     12  C   UNL A   1     -24.216  -1.061  34.037  0.00  0.00    +0.000 C 
ENDBRANCH  10  11
ENDBRANCH   8   9
ENDBRANCH   3   8
TORSDOF 3
ENDMDL
ENDMDL
