MODEL 1734
MODEL 1
REMARK VINA RESULT:    -5.268      0.000      0.000
REMARK INTER + INTRA:          -5.731
REMARK INTER:                  -5.576
REMARK INTRA:                  -0.155
REMARK UNBOUND:                -0.155
REMARK  Name = No_1734-gen_results/8p0m/2024-11-26-14-13-15/
REMARK  1 active torsions:
REMARK  status: ('A' for Active; 'I' for Inactive)
REMARK    1  A    between atoms: C_2  and  C_5
REMARK                            x       y       z     vdW  Elec       q    Type
REMARK                         _______ _______ _______ _____ _____    ______ ____
ROOT
ATOM      1  C   UNL A   1     -24.369  -2.726  29.001  0.00  0.00    +0.071 A 
ATOM      2  C   UNL A   1     -24.010  -3.880  28.728  0.00  0.00    +0.004 A 
ATOM      3  C   UNL A   1     -25.789  -2.614  29.537  0.00  0.00    +0.004 A 
ATOM      4  C   UNL A   1     -26.480  -3.635  29.877  0.00  0.00    -0.000 A 
ATOM      5  C   UNL A   1     -24.767  -5.121  29.068  0.00  0.00    -0.000 A 
ATOM      6  C   UNL A   1     -26.043  -4.933  29.566  0.00  0.00    -0.000 A 
ENDROOT
BRANCH   1   8
ATOM      7  F   UNL A   1     -23.738  -0.794  28.142  0.00  0.00    -0.166 F 
ATOM      8  C   UNL A   1     -23.506  -1.459  29.045  0.00  0.00    +0.419 C 
ATOM      9  F   UNL A   1     -22.385  -1.737  28.910  0.00  0.00    -0.166 F 
ATOM     10  F   UNL A   1     -23.689  -0.845  30.227  0.00  0.00    -0.166 F 
ENDBRANCH   1   8
TORSDOF 1
ENDMDL
ENDMDL
