REMARK  Name = No_1734-gen_results/8p0m/2024-11-26-14-13-15/
REMARK  1 active torsions:
REMARK  status: ('A' for Active; 'I' for Inactive)
REMARK    1  A    between atoms: C_2  and  C_5
REMARK                            x       y       z     vdW  Elec       q    Type
REMARK                         _______ _______ _______ _____ _____    ______ ____
ROOT
ATOM      1  C   UNL A   1     -26.186  -0.837  29.597  0.00  0.00    +0.071 A 
ATOM      2  C   UNL A   1     -25.720  -1.980  29.704  0.00  0.00    +0.004 A 
ATOM      3  C   UNL A   1     -25.361   0.250  30.270  0.00  0.00    +0.004 A 
ATOM      4  C   UNL A   1     -24.185   0.039  30.726  0.00  0.00    -0.000 A 
ATOM      5  C   UNL A   1     -24.369  -2.313  30.245  0.00  0.00    -0.000 A 
ATOM      6  C   UNL A   1     -23.677  -1.266  30.825  0.00  0.00    -0.000 A 
ENDROOT
BRANCH   1   8
ATOM      7  F   UNL A   1     -28.073  -1.254  28.532  0.00  0.00    -0.166 F 
ATOM      8  C   UNL A   1     -27.359  -0.379  28.722  0.00  0.00    +0.419 C 
ATOM      9  F   UNL A   1     -26.976  -0.093  27.662  0.00  0.00    -0.166 F 
ATOM     10  F   UNL A   1     -27.949   0.682  29.300  0.00  0.00    -0.166 F 
ENDBRANCH   1   8
TORSDOF 1
