MODEL 1735
MODEL 1
REMARK VINA RESULT:    -6.993      0.000      0.000
REMARK INTER + INTRA:          -9.976
REMARK INTER:                  -9.037
REMARK INTRA:                  -0.939
REMARK UNBOUND:                -0.939
REMARK  Name = No_1735-gen_results/8p0m/2024-11-26-14-13-15/
REMARK  5 active torsions:
REMARK  status: ('A' for Active; 'I' for Inactive)
REMARK    1  A    between atoms: C_3  and  C_4
REMARK    2  A    between atoms: C_6  and  O_13
REMARK    3  A    between atoms: C_12  and  O_22
REMARK    4  A    between atoms: O_13  and  C_14
REMARK    5  A    between atoms: C_14  and  C_15
REMARK                            x       y       z     vdW  Elec       q    Type
REMARK                         _______ _______ _______ _____ _____    ______ ____
ROOT
ATOM      1  C   UNL A   1     -25.124   0.413  25.278  0.00  0.00    +0.038 A 
ATOM      2  C   UNL A   1     -26.122  -0.086  24.812  0.00  0.00    +0.003 A 
ATOM      3  C   UNL A   1     -27.255   0.679  24.555  0.00  0.00    +0.000 A 
ATOM      4  C   UNL A   1     -25.150   1.803  25.759  0.00  0.00    +0.149 A 
ATOM      5  C   UNL A   1     -26.200   2.643  25.478  0.00  0.00    +0.038 A 
ATOM      6  C   UNL A   1     -27.359   2.110  24.890  0.00  0.00    +0.003 A 
ENDROOT
BRANCH   3   7
ATOM      7  C   UNL A   1     -28.544   0.182  23.995  0.00  0.00    +0.003 A 
ATOM      8  C   UNL A   1     -28.943  -1.198  23.917  0.00  0.00    +0.000 A 
ATOM      9  C   UNL A   1     -30.199  -1.503  23.442  0.00  0.00    +0.003 A 
ATOM     10  C   UNL A   1     -31.224  -0.651  23.193  0.00  0.00    +0.037 A 
ATOM     11  C   UNL A   1     -29.629   1.112  23.721  0.00  0.00    +0.037 A 
ATOM     12  C   UNL A   1     -30.904   0.674  23.321  0.00  0.00    +0.139 A 
BRANCH  12  13
ATOM     13  O   UNL A   1     -31.709   1.726  22.994  0.00  0.00    -0.471 OA
ATOM     14  C   UNL A   1     -31.852   2.112  21.661  0.00  0.00    +0.253 C 
ENDBRANCH  12  13
ENDBRANCH   3   7
BRANCH   4  15
ATOM     15  O   UNL A   1     -24.053   2.372  26.353  0.00  0.00    -0.421 OA
BRANCH  15  16
ATOM     16  C   UNL A   1     -23.933   2.406  27.675  0.00  0.00    +0.346 C 
ATOM     17  O   UNL A   1     -24.525   3.115  28.398  0.00  0.00    -0.244 OA
BRANCH  16  18
ATOM     18  C   UNL A   1     -23.003   1.459  28.107  0.00  0.00    +0.076 A 
ATOM     19  C   UNL A   1     -23.490   0.484  28.865  0.00  0.00    +0.006 A 
ATOM     20  C   UNL A   1     -21.638   1.412  27.735  0.00  0.00    +0.006 A 
ATOM     21  C   UNL A   1     -22.609  -0.616  29.350  0.00  0.00    +0.000 A 
ATOM     22  C   UNL A   1     -20.769   0.381  28.182  0.00  0.00    +0.000 A 
ATOM     23  C   UNL A   1     -21.263  -0.606  28.982  0.00  0.00    +0.000 A 
ENDBRANCH  16  18
ENDBRANCH  15  16
ENDBRANCH   4  15
TORSDOF 5
ENDMDL
ENDMDL
