MODEL 1736
MODEL 1
REMARK VINA RESULT:    -7.918      0.000      0.000
REMARK INTER + INTRA:          -8.925
REMARK INTER:                  -8.844
REMARK INTRA:                  -0.081
REMARK UNBOUND:                -0.081
REMARK  Name = No_1736-gen_results/8p0m/2024-11-26-14-13-15/
REMARK  2 active torsions:
REMARK  status: ('A' for Active; 'I' for Inactive)
REMARK    1  A    between atoms: C_2  and  C_7
REMARK    2  A    between atoms: C_6  and  C_13
REMARK                            x       y       z     vdW  Elec       q    Type
REMARK                         _______ _______ _______ _____ _____    ______ ____
ROOT
ATOM      1  C   UNL A   1     -24.208  -2.850  28.890  0.00  0.00    +0.018 A 
ATOM      2  C   UNL A   1     -23.833  -3.753  28.593  0.00  0.00    +0.002 A 
ATOM      3  C   UNL A   1     -24.397  -5.147  28.733  0.00  0.00    -0.000 A 
ATOM      4  C   UNL A   1     -25.651  -5.263  29.300  0.00  0.00    -0.001 A 
ATOM      5  C   UNL A   1     -26.325  -4.102  29.686  0.00  0.00    +0.018 A 
ATOM      6  C   UNL A   1     -25.704  -2.896  29.540  0.00  0.00    +0.088 A 
ATOM      7  C   UNL A   1     -27.646  -4.202  30.282  0.00  0.00    +0.141 C 
ATOM      8  N   UNL A   1     -28.374  -3.024  30.313  0.00  0.00    -0.222 NA
ATOM      9  C   UNL A   1     -27.924  -1.931  30.886  0.00  0.00    +0.142 C 
ATOM     10  C   UNL A   1     -26.740  -1.312  30.600  0.00  0.00    +0.016 C 
ATOM     11  N   UNL A   1     -25.930  -1.573  30.074  0.00  0.00    -0.202 NA
ENDROOT
BRANCH   1  13
ATOM     12  C   UNL A   1     -24.198  -0.663  27.907  0.00  0.00    +0.005 A 
ATOM     13  C   UNL A   1     -23.727  -1.457  28.688  0.00  0.00    +0.002 A 
ATOM     14  C   UNL A   1     -22.661  -1.109  29.510  0.00  0.00    +0.000 A 
ATOM     15  C   UNL A   1     -22.054   0.194  29.424  0.00  0.00    +0.000 A 
ATOM     16  C   UNL A   1     -22.645   1.041  28.478  0.00  0.00    +0.005 A 
ATOM     17  C   UNL A   1     -23.642   0.658  27.713  0.00  0.00    +0.055 A 
BRANCH  17  18
ATOM     18  C   UNL A   1     -24.112   1.617  26.684  0.00  0.00    +0.265 C 
ATOM     19  N   UNL A   1     -24.205   2.800  26.915  0.00  0.00    -0.200 NA
ATOM     20  O   UNL A   1     -24.400   1.166  25.519  0.00  0.00    -0.268 OA
ATOM     21  C   UNL A   1     -24.587   3.838  25.924  0.00  0.00    +0.139 C 
ENDBRANCH  17  18
ENDBRANCH   1  13
TORSDOF 2
ENDMDL
ENDMDL
