REMARK  Name = No_1736-gen_results/8p0m/2024-11-26-14-13-15/
REMARK  2 active torsions:
REMARK  status: ('A' for Active; 'I' for Inactive)
REMARK    1  A    between atoms: C_2  and  C_7
REMARK    2  A    between atoms: C_6  and  C_13
REMARK                            x       y       z     vdW  Elec       q    Type
REMARK                         _______ _______ _______ _____ _____    ______ ____
ROOT
ATOM      1  C   UNL A   1     -27.106   1.102  27.759  0.00  0.00    +0.018 A 
ATOM      2  C   UNL A   1     -27.858   1.531  27.216  0.00  0.00    +0.002 A 
ATOM      3  C   UNL A   1     -27.843   2.721  26.286  0.00  0.00    -0.000 A 
ATOM      4  C   UNL A   1     -26.622   3.325  26.057  0.00  0.00    -0.001 A 
ATOM      5  C   UNL A   1     -25.485   2.796  26.672  0.00  0.00    +0.018 A 
ATOM      6  C   UNL A   1     -25.622   1.736  27.519  0.00  0.00    +0.088 A 
ATOM      7  C   UNL A   1     -24.191   3.415  26.443  0.00  0.00    +0.141 C 
ATOM      8  N   UNL A   1     -23.094   2.645  26.795  0.00  0.00    -0.222 NA
ATOM      9  C   UNL A   1     -22.929   2.164  28.006  0.00  0.00    +0.142 C 
ATOM     10  C   UNL A   1     -23.824   1.381  28.680  0.00  0.00    +0.016 C 
ATOM     11  N   UNL A   1     -24.782   1.135  28.529  0.00  0.00    -0.202 NA
ENDROOT
BRANCH   1  13
ATOM     12  C   UNL A   1     -28.016  -0.814  28.878  0.00  0.00    +0.005 A 
ATOM     13  C   UNL A   1     -27.064  -0.119  28.608  0.00  0.00    +0.002 A 
ATOM     14  C   UNL A   1     -25.792  -0.430  29.076  0.00  0.00    +0.000 A 
ATOM     15  C   UNL A   1     -25.576  -1.565  29.936  0.00  0.00    +0.000 A 
ATOM     16  C   UNL A   1     -26.735  -2.300  30.217  0.00  0.00    +0.005 A 
ATOM     17  C   UNL A   1     -27.918  -1.954  29.763  0.00  0.00    +0.055 A 
BRANCH  17  18
ATOM     18  C   UNL A   1     -29.078  -2.760  30.215  0.00  0.00    +0.265 C 
ATOM     19  N   UNL A   1     -30.190  -2.291  30.279  0.00  0.00    -0.200 NA
ATOM     20  O   UNL A   1     -28.881  -3.990  30.520  0.00  0.00    -0.268 OA
ATOM     21  C   UNL A   1     -31.417  -3.045  30.641  0.00  0.00    +0.139 C 
ENDBRANCH  17  18
ENDBRANCH   1  13
TORSDOF 2
