MODEL 1737
MODEL 1
REMARK VINA RESULT:    -4.260      0.000      0.000
REMARK INTER + INTRA:          -4.573
REMARK INTER:                  -4.510
REMARK INTRA:                  -0.063
REMARK UNBOUND:                -0.063
REMARK  Name = No_1737-gen_results/8p0m/2024-11-26-14-13-15/
REMARK  1 active torsions:
REMARK  status: ('A' for Active; 'I' for Inactive)
REMARK    1  A    between atoms: C_3  and  O_9
REMARK                            x       y       z     vdW  Elec       q    Type
REMARK                         _______ _______ _______ _____ _____    ______ ____
ROOT
ATOM      1  C   UNL A   1     -23.928  -3.255  28.793  0.00  0.00    +0.049 A 
ATOM      2  C   UNL A   1     -24.784  -3.824  29.026  0.00  0.00    +0.061 A 
ATOM      3  C   UNL A   1     -24.052  -1.795  28.927  0.00  0.00    +0.150 A 
ATOM      4  C   UNL A   1     -25.230  -1.215  29.481  0.00  0.00    +0.092 A 
ATOM      5  C   UNL A   1     -26.085  -3.482  29.663  0.00  0.00    +0.013 A 
ATOM      6  C   UNL A   1     -26.241  -2.135  29.795  0.00  0.00    +0.015 A 
ATOM      7 CL   UNL A   1     -24.645  -5.627  28.881  0.00  0.00    -0.082 Cl
ATOM      8 CL   UNL A   1     -25.402   0.445  29.669  0.00  0.00    -0.079 Cl
ENDROOT
BRANCH   3   9
ATOM      9  O   UNL A   1     -23.074  -0.873  28.602  0.00  0.00    -0.470 OA
ATOM     10  C   UNL A   1     -21.972  -0.718  29.385  0.00  0.00    +0.253 C 
ENDBRANCH   3   9
TORSDOF 1
ENDMDL
ENDMDL
