REMARK  Name = No_1737-gen_results/8p0m/2024-11-26-14-13-15/
REMARK  1 active torsions:
REMARK  status: ('A' for Active; 'I' for Inactive)
REMARK    1  A    between atoms: C_3  and  O_9
REMARK                            x       y       z     vdW  Elec       q    Type
REMARK                         _______ _______ _______ _____ _____    ______ ____
ROOT
ATOM      1  C   UNL A   1     -28.016  -0.814  28.878  0.00  0.00    +0.049 A 
ATOM      2  C   UNL A   1     -28.469  -0.785  29.829  0.00  0.00    +0.061 A 
ATOM      3  C   UNL A   1     -26.546  -0.876  28.850  0.00  0.00    +0.150 A 
ATOM      4  C   UNL A   1     -25.804  -1.032  30.057  0.00  0.00    +0.092 A 
ATOM      5  C   UNL A   1     -27.944  -0.987  31.207  0.00  0.00    +0.013 A 
ATOM      6  C   UNL A   1     -26.582  -1.039  31.223  0.00  0.00    +0.015 A 
ATOM      7 CL   UNL A   1     -30.281  -0.723  29.883  0.00  0.00    -0.082 Cl
ATOM      8 CL   UNL A   1     -24.127  -1.127  30.065  0.00  0.00    -0.079 Cl
ENDROOT
BRANCH   3   9
ATOM      9  O   UNL A   1     -25.763  -0.848  27.711  0.00  0.00    -0.470 OA
ATOM     10  C   UNL A   1     -24.674  -0.035  27.631  0.00  0.00    +0.253 C 
ENDBRANCH   3   9
TORSDOF 1
