MODEL 1738
MODEL 1
REMARK VINA RESULT:    -4.590      0.000      0.000
REMARK INTER + INTRA:          -4.590
REMARK INTER:                  -4.590
REMARK INTRA:                   0.000
REMARK UNBOUND:                 0.000
REMARK  Name = No_1738-gen_results/8p0m/2024-11-26-14-13-15/
REMARK  0 active torsions:
REMARK  status: ('A' for Active; 'I' for Inactive)
REMARK                            x       y       z     vdW  Elec       q    Type
REMARK                         _______ _______ _______ _____ _____    ______ ____
ROOT
ATOM      1  C   UNL A   1     -10.147  -9.762  18.344  0.00  0.00    +0.030 A 
ATOM      2  C   UNL A   1      -9.168 -10.398  18.029  0.00  0.00    +0.140 A 
ATOM      3  C   UNL A   1      -8.051 -10.498  18.793  0.00  0.00    +0.030 A 
ATOM      4  C   UNL A   1      -8.022  -9.823  20.028  0.00  0.00    +0.002 A 
ATOM      5  C   UNL A   1     -10.225  -9.126  19.635  0.00  0.00    +0.002 A 
ATOM      6  C   UNL A   1      -9.117  -9.172  20.427  0.00  0.00    +0.000 A 
ATOM      7  F   UNL A   1      -9.121 -11.075  16.853  0.00  0.00    -0.204 F 
ENDROOT
TORSDOF 0
ENDMDL
ENDMDL
