REMARK  Name = No_1739-gen_results/8p0m/2024-11-26-14-13-15/
REMARK  5 active torsions:
REMARK  status: ('A' for Active; 'I' for Inactive)
REMARK    1  A    between atoms: C_2  and  C_7
REMARK    2  A    between atoms: C_6  and  C_21
REMARK    3  A    between atoms: C_7  and  C_8
REMARK    4  A    between atoms: C_11  and  C_12
REMARK    5  A    between atoms: C_12  and  C_15
REMARK                            x       y       z     vdW  Elec       q    Type
REMARK                         _______ _______ _______ _____ _____    ______ ____
ROOT
ATOM      1  C   UNL A   1     -24.697  -1.057  28.624  0.00  0.00    +0.035 A 
ATOM      2  C   UNL A   1     -23.581  -0.273  28.825  0.00  0.00    +0.003 A 
ATOM      3  C   UNL A   1     -22.497  -0.789  29.569  0.00  0.00    +0.000 A 
ATOM      4  C   UNL A   1     -24.736  -2.340  29.231  0.00  0.00    -0.015 A 
ATOM      5  C   UNL A   1     -22.602  -2.027  30.157  0.00  0.00    -0.000 A 
ATOM      6  C   UNL A   1     -23.678  -2.772  29.954  0.00  0.00    -0.004 A 
ENDROOT
BRANCH   1   7
ATOM      7  C   UNL A   1     -25.881  -0.626  27.794  0.00  0.00    +0.195 C 
ATOM      8  O   UNL A   1     -25.847  -0.540  26.582  0.00  0.00    -0.287 OA
BRANCH   7  10
ATOM      9  C   UNL A   1     -28.016  -0.814  28.878  0.00  0.00    +0.003 A 
ATOM     10  C   UNL A   1     -27.064  -0.119  28.608  0.00  0.00    +0.039 A 
ATOM     11  C   UNL A   1     -26.929   1.171  29.008  0.00  0.00    +0.003 A 
ATOM     12  C   UNL A   1     -27.956   1.741  29.784  0.00  0.00    +0.007 A 
ATOM     13  C   UNL A   1     -29.057  -0.327  29.747  0.00  0.00    +0.007 A 
ATOM     14  C   UNL A   1     -28.983   0.972  30.152  0.00  0.00    +0.080 A 
BRANCH  14  15
ATOM     15  C   UNL A   1     -30.146   1.500  31.008  0.00  0.00    +0.388 C 
ATOM     16  O   UNL A   1     -30.033   1.877  32.002  0.00  0.00    -0.241 OA
ATOM     17  O   UNL A   1     -31.386   1.089  30.482  0.00  0.00    -0.241 OA
ENDBRANCH  14  15
ENDBRANCH   7  10
ENDBRANCH   1   7
BRANCH   4  18
ATOM     18  C   UNL A   1     -25.866  -3.213  29.066  0.00  0.00    +0.053 C 
BRANCH  18  19
ATOM     19  C   UNL A   1     -26.718  -3.317  30.370  0.00  0.00    -0.018 A 
ATOM     20  C   UNL A   1     -27.671  -4.376  30.360  0.00  0.00    -0.004 A 
ATOM     21  C   UNL A   1     -29.026  -3.978  30.529  0.00  0.00    -0.000 A 
ATOM     22  C   UNL A   1     -29.381  -3.389  31.761  0.00  0.00    -0.000 A 
ATOM     23  C   UNL A   1     -28.328  -2.485  32.144  0.00  0.00    -0.000 A 
ATOM     24  C   UNL A   1     -27.032  -2.246  31.275  0.00  0.00    -0.004 A 
ENDBRANCH  18  19
ENDBRANCH   4  18
TORSDOF 5
