MODEL 173
MODEL 1
REMARK VINA RESULT:    -7.020      0.000      0.000
REMARK INTER + INTRA:          -8.196
REMARK INTER:                  -7.841
REMARK INTRA:                  -0.355
REMARK UNBOUND:                -0.355
REMARK  Name = No_173-gen_results/8p0m/2024-11-26-14-13-15/
REMARK  2 active torsions:
REMARK  status: ('A' for Active; 'I' for Inactive)
REMARK    1  A    between atoms: C_4  and  O_7
REMARK    2  A    between atoms: O_7  and  C_8
REMARK                            x       y       z     vdW  Elec       q    Type
REMARK                         _______ _______ _______ _____ _____    ______ ____
ROOT
ATOM      1  O   UNL A   1     -23.994  -1.083  29.472  0.00  0.00    -0.457 OA
ENDROOT
BRANCH   1   2
ATOM      2  C   UNL A   1     -24.404  -2.251  28.985  0.00  0.00    +0.127 C 
ATOM      3  C   UNL A   1     -23.761  -3.405  28.931  0.00  0.00    +0.033 C 
ATOM      4  C   UNL A   1     -24.294  -4.607  28.593  0.00  0.00    +0.003 C 
ATOM      5  C   UNL A   1     -24.875  -5.290  29.082  0.00  0.00    -0.000 C 
ATOM      6  C   UNL A   1     -26.149  -4.588  29.716  0.00  0.00    -0.004 C 
ATOM      7  C   UNL A   1     -26.474  -3.273  29.826  0.00  0.00    -0.018 C 
ATOM      8  C   UNL A   1     -25.695  -2.404  30.024  0.00  0.00    +0.090 C 
ENDBRANCH   1   2
BRANCH   1  12
ATOM      9  C   UNL A   1     -22.760   1.578  27.271  0.00  0.00    +0.003 A 
ATOM     10  C   UNL A   1     -21.725   1.450  27.420  0.00  0.00    +0.000 A 
ATOM     11  C   UNL A   1     -23.651   0.694  28.040  0.00  0.00    +0.037 A 
ATOM     12  C   UNL A   1     -23.192  -0.186  28.760  0.00  0.00    +0.145 A 
ATOM     13  C   UNL A   1     -21.803  -0.362  28.976  0.00  0.00    +0.037 A 
ATOM     14  C   UNL A   1     -21.005   0.484  28.261  0.00  0.00    +0.003 A 
ENDBRANCH   1  12
TORSDOF 2
ENDMDL
ENDMDL
