REMARK  Name = No_174-gen_results/8p0m/2024-11-26-14-13-15/
REMARK  1 active torsions:
REMARK  status: ('A' for Active; 'I' for Inactive)
REMARK    1  A    between atoms: C_5  and  N_8
REMARK                            x       y       z     vdW  Elec       q    Type
REMARK                         _______ _______ _______ _____ _____    ______ ____
ROOT
ATOM      1  O   UNL A   1     -28.123  -1.335  28.487  0.00  0.00    -0.273 OA
ATOM      2  C   UNL A   1     -27.481  -0.404  28.709  0.00  0.00    +0.243 C 
ATOM      3  C   UNL A   1     -27.190   0.246  29.527  0.00  0.00    +0.087 C 
ATOM      4  N   UNL A   1     -26.602  -0.158  27.552  0.00  0.00    -0.183 NA
ATOM      5  C   UNL A   1     -25.642   0.903  27.582  0.00  0.00    +0.199 C 
ATOM      6  C   UNL A   1     -25.500   1.614  28.737  0.00  0.00    +0.047 C 
ATOM      7  C   UNL A   1     -26.267   1.289  29.809  0.00  0.00    +0.013 C 
ENDROOT
BRANCH   5   8
ATOM      8  N   UNL A   1     -24.885   1.149  26.488  0.00  0.00    -0.231 NA
ATOM      9  C   UNL A   1     -23.889   2.136  26.660  0.00  0.00    +0.202 C 
ATOM     10  N   UNL A   1     -23.544   2.507  27.578  0.00  0.00    -0.104 NA
ENDBRANCH   5   8
TORSDOF 1
