REMARK  Name = No_1740-gen_results/8p0m/2024-11-26-14-13-15/
REMARK  1 active torsions:
REMARK  status: ('A' for Active; 'I' for Inactive)
REMARK    1  A    between atoms: C_5  and  C_7
REMARK                            x       y       z     vdW  Elec       q    Type
REMARK                         _______ _______ _______ _____ _____    ______ ____
ROOT
ATOM      1  C   UNL A   1     -28.016  -0.814  28.878  0.00  0.00    +0.000 A 
ATOM      2  C   UNL A   1     -27.064  -0.119  28.608  0.00  0.00    +0.000 A 
ATOM      3  C   UNL A   1     -26.972   0.714  27.506  0.00  0.00    +0.000 A 
ATOM      4  C   UNL A   1     -28.105   0.774  26.642  0.00  0.00    +0.007 A 
ATOM      5  C   UNL A   1     -29.204   0.118  27.048  0.00  0.00    +0.080 A 
ATOM      6  C   UNL A   1     -29.213  -0.609  28.128  0.00  0.00    +0.007 A 
ATOM      7  C   UNL A   1     -25.670   1.416  27.131  0.00  0.00    +0.000 A 
ATOM      8  C   UNL A   1     -24.530   1.058  27.717  0.00  0.00    +0.000 A 
ATOM      9  C   UNL A   1     -23.311   1.815  27.358  0.00  0.00    +0.000 A 
ATOM     10  C   UNL A   1     -22.080   1.591  28.026  0.00  0.00    +0.000 A 
ATOM     11  C   UNL A   1     -21.993   0.560  28.974  0.00  0.00    +0.000 A 
ATOM     12  C   UNL A   1     -23.107  -0.243  29.309  0.00  0.00    +0.000 A 
ATOM     13  C   UNL A   1     -24.300   0.025  28.659  0.00  0.00    +0.000 A 
ATOM     14  C   UNL A   1     -25.657  -0.434  29.307  0.00  0.00    +0.000 A 
ENDROOT
BRANCH   5  15
ATOM     15  C   UNL A   1     -30.371   0.233  26.138  0.00  0.00    +0.388 C 
ATOM     16  O   UNL A   1     -30.963   1.227  26.081  0.00  0.00    -0.241 OA
ATOM     17  O   UNL A   1     -30.700  -0.863  25.465  0.00  0.00    -0.241 OA
ENDBRANCH   5  15
TORSDOF 1
