MODEL 1740
MODEL 1
REMARK VINA RESULT:    -7.172      0.000      0.000
REMARK INTER + INTRA:          -7.665
REMARK INTER:                  -7.592
REMARK INTRA:                  -0.074
REMARK UNBOUND:                -0.074
REMARK  Name = No_1740-gen_results/8p0m/2024-11-26-14-13-15/
REMARK  1 active torsions:
REMARK  status: ('A' for Active; 'I' for Inactive)
REMARK    1  A    between atoms: C_5  and  C_7
REMARK                            x       y       z     vdW  Elec       q    Type
REMARK                         _______ _______ _______ _____ _____    ______ ____
ROOT
ATOM      1  C   UNL A   1     -29.854  -9.777  32.016  0.00  0.00    +0.000 A 
ATOM      2  C   UNL A   1     -29.853 -10.475  31.028  0.00  0.00    +0.000 A 
ATOM      3  C   UNL A   1     -28.983 -11.527  30.796  0.00  0.00    +0.000 A 
ATOM      4  C   UNL A   1     -28.035 -11.823  31.820  0.00  0.00    +0.007 A 
ATOM      5  C   UNL A   1     -28.160 -11.139  32.969  0.00  0.00    +0.080 A 
ATOM      6  C   UNL A   1     -29.042 -10.192  33.114  0.00  0.00    +0.007 A 
ATOM      7  C   UNL A   1     -28.921 -12.241  29.449  0.00  0.00    +0.000 A 
ATOM      8  C   UNL A   1     -29.533 -11.716  28.390  0.00  0.00    +0.000 A 
ATOM      9  C   UNL A   1     -29.489 -12.483  27.126  0.00  0.00    +0.000 A 
ATOM     10  C   UNL A   1     -30.221 -12.066  25.985  0.00  0.00    +0.000 A 
ATOM     11  C   UNL A   1     -30.917 -10.848  26.025  0.00  0.00    +0.000 A 
ATOM     12  C   UNL A   1     -30.939 -10.037  27.182  0.00  0.00    +0.000 A 
ATOM     13  C   UNL A   1     -30.239 -10.491  28.287  0.00  0.00    +0.000 A 
ATOM     14  C   UNL A   1     -30.614  -9.956  29.717  0.00  0.00    +0.000 A 
ENDROOT
BRANCH   5  15
ATOM     15  C   UNL A   1     -27.177 -11.500  34.020  0.00  0.00    +0.388 C 
ATOM     16  O   UNL A   1     -26.807 -12.594  34.113  0.00  0.00    -0.241 OA
ATOM     17  O   UNL A   1     -26.812 -10.524  34.842  0.00  0.00    -0.241 OA
ENDBRANCH   5  15
TORSDOF 1
ENDMDL
ENDMDL
