REMARK  Name = No_1741-gen_results/8p0m/2024-11-26-14-13-15/
REMARK  6 active torsions:
REMARK  status: ('A' for Active; 'I' for Inactive)
REMARK    1  A    between atoms: C_2  and  C_22
REMARK    2  A    between atoms: C_3  and  C_7
REMARK    3  A    between atoms: C_6  and  C_19
REMARK    4  A    between atoms: C_7  and  C_8
REMARK    5  A    between atoms: C_7  and  C_15
REMARK    6  A    between atoms: C_8  and  C_9
REMARK                            x       y       z     vdW  Elec       q    Type
REMARK                         _______ _______ _______ _____ _____    ______ ____
ROOT
ATOM      1  C   UNL A   1     -28.016  -0.814  28.878  0.00  0.00    +0.003 A 
ATOM      2  C   UNL A   1     -28.469  -0.785  29.829  0.00  0.00    +0.080 A 
ATOM      3  C   UNL A   1     -27.136   0.236  28.535  0.00  0.00    -0.014 A 
ATOM      4  C   UNL A   1     -26.875   1.282  29.398  0.00  0.00    +0.003 A 
ATOM      5  C   UNL A   1     -28.361   0.199  30.924  0.00  0.00    +0.013 A 
ATOM      6  C   UNL A   1     -27.528   1.223  30.636  0.00  0.00    +0.080 A 
ENDROOT
BRANCH   6   7
ATOM      7  C   UNL A   1     -27.275   2.338  31.637  0.00  0.00    +0.388 C 
ATOM      8  O   UNL A   1     -27.883   3.323  31.732  0.00  0.00    -0.241 OA
ATOM      9  O   UNL A   1     -26.134   2.068  32.379  0.00  0.00    -0.241 OA
ENDBRANCH   6   7
BRANCH   2  10
ATOM     10  C   UNL A   1     -29.509  -1.914  30.314  0.00  0.00    +0.388 C 
ATOM     11  O   UNL A   1     -29.087  -2.918  30.556  0.00  0.00    -0.241 OA
ATOM     12  O   UNL A   1     -30.673  -1.571  30.639  0.00  0.00    -0.241 OA
ENDBRANCH   2  10
BRANCH   3  13
ATOM     13  C   UNL A   1     -26.388   0.291  27.233  0.00  0.00    +0.122 C 
BRANCH  13  14
ATOM     14  C   UNL A   1     -27.196   0.367  26.073  0.00  0.00    +0.401 C 
ATOM     15  F   UNL A   1     -26.564   0.174  25.028  0.00  0.00    -0.170 F 
ATOM     16  F   UNL A   1     -27.674   1.666  25.968  0.00  0.00    -0.170 F 
ATOM     17  F   UNL A   1     -28.308  -0.391  26.102  0.00  0.00    -0.170 F 
ENDBRANCH  13  14
BRANCH  13  18
ATOM     18  C   UNL A   1     -25.151   0.303  27.256  0.00  0.00    +0.039 C 
BRANCH  18  19
ATOM     19  C   UNL A   1     -24.276   0.044  28.345  0.00  0.00    -0.022 A 
ATOM     20  C   UNL A   1     -22.964   0.570  28.399  0.00  0.00    -0.004 A 
ATOM     21  C   UNL A   1     -22.041   0.138  29.391  0.00  0.00    -0.000 A 
ATOM     22  C   UNL A   1     -22.497  -0.634  30.438  0.00  0.00    -0.000 A 
ATOM     23  C   UNL A   1     -24.530  -0.881  29.437  0.00  0.00    -0.004 A 
ATOM     24  C   UNL A   1     -23.656  -1.226  30.370  0.00  0.00    -0.000 A 
ENDBRANCH  18  19
ENDBRANCH  13  18
ENDBRANCH   3  13
TORSDOF 6
