MODEL 1741
MODEL 1
REMARK VINA RESULT:    -7.127      0.000      0.000
REMARK INTER + INTRA:         -11.457
REMARK INTER:                  -9.627
REMARK INTRA:                  -1.830
REMARK UNBOUND:                -1.830
REMARK  Name = No_1741-gen_results/8p0m/2024-11-26-14-13-15/
REMARK  6 active torsions:
REMARK  status: ('A' for Active; 'I' for Inactive)
REMARK    1  A    between atoms: C_2  and  C_22
REMARK    2  A    between atoms: C_3  and  C_7
REMARK    3  A    between atoms: C_6  and  C_19
REMARK    4  A    between atoms: C_7  and  C_8
REMARK    5  A    between atoms: C_7  and  C_15
REMARK    6  A    between atoms: C_8  and  C_9
REMARK                            x       y       z     vdW  Elec       q    Type
REMARK                         _______ _______ _______ _____ _____    ______ ____
ROOT
ATOM      1  C   UNL A   1     -11.869   1.417  34.741  0.00  0.00    +0.003 A 
ATOM      2  C   UNL A   1     -12.788   1.854  34.468  0.00  0.00    +0.080 A 
ATOM      3  C   UNL A   1     -11.472   1.506  36.093  0.00  0.00    -0.014 A 
ATOM      4  C   UNL A   1     -12.243   2.152  37.040  0.00  0.00    +0.003 A 
ATOM      5  C   UNL A   1     -13.788   2.588  35.270  0.00  0.00    +0.013 A 
ATOM      6  C   UNL A   1     -13.446   2.697  36.572  0.00  0.00    +0.080 A 
ENDROOT
BRANCH   6   7
ATOM      7  C   UNL A   1     -14.347   3.411  37.566  0.00  0.00    +0.388 C 
ATOM      8  O   UNL A   1     -15.421   3.091  37.868  0.00  0.00    -0.241 OA
ATOM      9  O   UNL A   1     -13.745   4.582  38.005  0.00  0.00    -0.241 OA
ENDBRANCH   6   7
BRANCH   2  10
ATOM     10  C   UNL A   1     -13.325   1.836  32.951  0.00  0.00    +0.388 C 
ATOM     11  O   UNL A   1     -14.102   2.591  32.682  0.00  0.00    -0.241 OA
ATOM     12  O   UNL A   1     -12.695   1.175  32.089  0.00  0.00    -0.241 OA
ENDBRANCH   2  10
BRANCH   3  13
ATOM     13  C   UNL A   1     -10.211   0.885  36.624  0.00  0.00    +0.122 C 
BRANCH  13  14
ATOM     14  C   UNL A   1      -9.156   1.790  36.893  0.00  0.00    +0.401 C 
ATOM     15  F   UNL A   1      -9.119   2.740  36.102  0.00  0.00    -0.170 F 
ATOM     16  F   UNL A   1      -7.956   1.119  36.703  0.00  0.00    -0.170 F 
ATOM     17  F   UNL A   1      -9.091   2.229  38.164  0.00  0.00    -0.170 F 
ENDBRANCH  13  14
BRANCH  13  18
ATOM     18  C   UNL A   1     -10.185  -0.336  36.822  0.00  0.00    +0.039 C 
BRANCH  18  19
ATOM     19  C   UNL A   1     -10.758  -1.080  37.888  0.00  0.00    -0.022 A 
ATOM     20  C   UNL A   1     -11.598  -2.196  37.663  0.00  0.00    -0.004 A 
ATOM     21  C   UNL A   1     -12.318  -2.799  38.731  0.00  0.00    -0.000 A 
ATOM     22  C   UNL A   1     -12.026  -2.431  40.027  0.00  0.00    -0.000 A 
ATOM     23  C   UNL A   1     -10.696  -0.729  39.298  0.00  0.00    -0.004 A 
ATOM     24  C   UNL A   1     -11.349  -1.344  40.271  0.00  0.00    -0.000 A 
ENDBRANCH  18  19
ENDBRANCH  13  18
ENDBRANCH   3  13
TORSDOF 6
ENDMDL
ENDMDL
