MODEL 1742
MODEL 1
REMARK VINA RESULT:    -8.533      0.000      0.000
REMARK INTER + INTRA:         -13.351
REMARK INTER:                 -11.526
REMARK INTRA:                  -1.825
REMARK UNBOUND:                -1.825
REMARK  Name = No_1742-gen_results/8p0m/2024-11-26-14-13-15/
REMARK  6 active torsions:
REMARK  status: ('A' for Active; 'I' for Inactive)
REMARK    1  A    between atoms: C_3  and  C_7
REMARK    2  A    between atoms: C_5  and  C_17
REMARK    3  A    between atoms: C_7  and  C_9
REMARK    4  A    between atoms: C_10  and  C_11
REMARK    5  A    between atoms: C_15  and  C_20
REMARK    6  A    between atoms: N_21  and  C_22
REMARK                            x       y       z     vdW  Elec       q    Type
REMARK                         _______ _______ _______ _____ _____    ______ ____
ROOT
ATOM      1  C   UNL A   1     -23.835   0.485  30.214  0.00  0.00    -0.004 A 
ATOM      2  C   UNL A   1     -23.015  -0.088  30.284  0.00  0.00    -0.000 A 
ATOM      3  C   UNL A   1     -21.899  -0.302  29.648  0.00  0.00    +0.000 A 
ATOM      4  C   UNL A   1     -21.746   0.391  28.358  0.00  0.00    +0.005 A 
ATOM      5  C   UNL A   1     -22.852   1.141  28.008  0.00  0.00    +0.055 A 
ATOM      6  C   UNL A   1     -23.939   1.334  28.934  0.00  0.00    +0.004 A 
ENDROOT
BRANCH   1   8
ATOM      7  C   UNL A   1     -26.083   0.325  30.931  0.00  0.00    -0.010 C 
ATOM      8  C   UNL A   1     -24.999   0.793  31.120  0.00  0.00    -0.025 C 
ATOM      9  C   UNL A   1     -24.661   1.523  32.319  0.00  0.00    +0.031 C 
BRANCH   7  10
ATOM     10  C   UNL A   1     -26.240  -0.387  29.648  0.00  0.00    +0.124 C 
ATOM     11 CL   UNL A   1     -26.922   0.395  28.557  0.00  0.00    -0.105 Cl
BRANCH  10  14
ATOM     12  C   UNL A   1     -27.585  -2.400  30.418  0.00  0.00    -0.003 A 
ATOM     13  C   UNL A   1     -27.715  -3.446  30.424  0.00  0.00    -0.000 A 
ATOM     14  C   UNL A   1     -26.404  -1.912  29.765  0.00  0.00    -0.003 A 
ATOM     15  C   UNL A   1     -25.429  -2.714  29.328  0.00  0.00    +0.004 A 
ATOM     16  C   UNL A   1     -25.649  -4.058  29.444  0.00  0.00    +0.080 A 
ATOM     17  C   UNL A   1     -26.817  -4.501  30.008  0.00  0.00    +0.007 A 
BRANCH  16  18
ATOM     18  C   UNL A   1     -24.645  -5.085  28.925  0.00  0.00    +0.388 C 
ATOM     19  O   UNL A   1     -24.975  -6.055  28.553  0.00  0.00    -0.241 OA
ATOM     20  O   UNL A   1     -23.475  -4.459  28.506  0.00  0.00    -0.241 OA
ENDBRANCH  16  18
ENDBRANCH  10  14
ENDBRANCH   7  10
ENDBRANCH   1   8
BRANCH   5  21
ATOM     21  C   UNL A   1     -22.782   1.953  26.745  0.00  0.00    +0.270 C 
ATOM     22  N   UNL A   1     -23.908   2.507  26.274  0.00  0.00    -0.157 NA
ATOM     23  O   UNL A   1     -21.796   1.898  25.992  0.00  0.00    -0.268 OA
BRANCH  22  24
ATOM     24  C   UNL A   1     -24.945   2.074  25.622  0.00  0.00    +0.154 A 
ATOM     25  C   UNL A   1     -25.118   0.737  25.247  0.00  0.00    +0.036 A 
ATOM     26  C   UNL A   1     -26.419   0.384  24.710  0.00  0.00    +0.009 A 
ATOM     27  C   UNL A   1     -27.453   1.260  24.584  0.00  0.00    +0.069 A 
ATOM     28  C   UNL A   1     -28.604   0.887  23.946  0.00  0.00    +0.266 C 
ATOM     29  N   UNL A   1     -26.056   2.853  25.734  0.00  0.00    -0.233 NA
ATOM     30  C   UNL A   1     -27.265   2.501  25.168  0.00  0.00    +0.066 A 
ATOM     31  N   UNL A   1     -29.646   1.680  24.023  0.00  0.00    -0.201 NA
ATOM     32  O   UNL A   1     -28.609  -0.028  23.069  0.00  0.00    -0.268 OA
ATOM     33  C   UNL A   1     -29.875   2.804  24.879  0.00  0.00    +0.121 C 
ATOM     34  C   UNL A   1     -28.509   3.310  25.323  0.00  0.00    +0.062 C 
ATOM     35  C   UNL A   1     -28.518   4.570  26.072  0.00  0.00    +0.008 C 
ENDBRANCH  22  24
ENDBRANCH   5  21
TORSDOF 6
ENDMDL
ENDMDL
