REMARK  Name = No_1742-gen_results/8p0m/2024-11-26-14-13-15/
REMARK  6 active torsions:
REMARK  status: ('A' for Active; 'I' for Inactive)
REMARK    1  A    between atoms: C_3  and  C_7
REMARK    2  A    between atoms: C_5  and  C_17
REMARK    3  A    between atoms: C_7  and  C_9
REMARK    4  A    between atoms: C_10  and  C_11
REMARK    5  A    between atoms: C_15  and  C_20
REMARK    6  A    between atoms: N_21  and  C_22
REMARK                            x       y       z     vdW  Elec       q    Type
REMARK                         _______ _______ _______ _____ _____    ______ ____
ROOT
ATOM      1  C   UNL A   1     -28.752   2.358  25.576  0.00  0.00    -0.004 A 
ATOM      2  C   UNL A   1     -29.421   3.095  25.701  0.00  0.00    -0.000 A 
ATOM      3  C   UNL A   1     -29.461   4.349  26.048  0.00  0.00    +0.000 A 
ATOM      4  C   UNL A   1     -28.192   4.930  26.519  0.00  0.00    +0.005 A 
ATOM      5  C   UNL A   1     -27.155   4.019  26.553  0.00  0.00    +0.055 A 
ATOM      6  C   UNL A   1     -27.312   2.697  25.999  0.00  0.00    +0.004 A 
ENDROOT
BRANCH   1   8
ATOM      7  C   UNL A   1     -28.288   0.040  25.532  0.00  0.00    -0.010 C 
ATOM      8  C   UNL A   1     -28.791   0.974  24.981  0.00  0.00    -0.025 C 
ATOM      9  C   UNL A   1     -29.635   0.834  23.818  0.00  0.00    +0.031 C 
BRANCH   7  10
ATOM     10  C   UNL A   1     -27.459   0.379  26.705  0.00  0.00    +0.124 C 
ATOM     11 CL   UNL A   1     -26.005   0.005  26.595  0.00  0.00    -0.105 Cl
BRANCH  10  14
ATOM     12  C   UNL A   1     -28.016  -0.814  28.878  0.00  0.00    -0.003 A 
ATOM     13  C   UNL A   1     -28.469  -0.785  29.829  0.00  0.00    -0.000 A 
ATOM     14  C   UNL A   1     -28.196   0.348  28.055  0.00  0.00    -0.003 A 
ATOM     15  C   UNL A   1     -29.019   1.350  28.378  0.00  0.00    +0.004 A 
ATOM     16  C   UNL A   1     -29.625   1.268  29.601  0.00  0.00    +0.080 A 
ATOM     17  C   UNL A   1     -29.382   0.182  30.400  0.00  0.00    +0.007 A 
BRANCH  16  18
ATOM     18  C   UNL A   1     -30.538   2.376  30.121  0.00  0.00    +0.388 C 
ATOM     19  O   UNL A   1     -30.127   3.316  30.489  0.00  0.00    -0.241 OA
ATOM     20  O   UNL A   1     -31.814   2.256  29.578  0.00  0.00    -0.241 OA
ENDBRANCH  16  18
ENDBRANCH  10  14
ENDBRANCH   7  10
ENDBRANCH   1   8
BRANCH   5  21
ATOM     21  C   UNL A   1     -25.792   4.516  26.947  0.00  0.00    +0.270 C 
ATOM     22  N   UNL A   1     -24.732   3.725  26.728  0.00  0.00    -0.157 NA
ATOM     23  O   UNL A   1     -25.651   5.491  27.703  0.00  0.00    -0.268 OA
BRANCH  22  24
ATOM     24  C   UNL A   1     -24.226   2.680  27.311  0.00  0.00    +0.154 A 
ATOM     25  C   UNL A   1     -22.983   2.133  26.972  0.00  0.00    +0.036 A 
ATOM     26  C   UNL A   1     -22.475   1.099  27.855  0.00  0.00    +0.009 A 
ATOM     27  C   UNL A   1     -23.119   0.671  28.975  0.00  0.00    +0.069 A 
ATOM     28  C   UNL A   1     -22.643  -0.399  29.682  0.00  0.00    +0.266 C 
ATOM     29  N   UNL A   1     -24.714   2.430  28.557  0.00  0.00    -0.233 NA
ATOM     30  C   UNL A   1     -24.232   1.405  29.347  0.00  0.00    +0.066 A 
ATOM     31  N   UNL A   1     -23.166  -0.653  30.857  0.00  0.00    -0.201 NA
ATOM     32  O   UNL A   1     -21.939  -1.297  29.131  0.00  0.00    -0.268 OA
ATOM     33  C   UNL A   1     -24.025   0.156  31.668  0.00  0.00    +0.121 C 
ATOM     34  C   UNL A   1     -24.712   1.146  30.736  0.00  0.00    +0.062 C 
ATOM     35  C   UNL A   1     -25.768   1.956  31.348  0.00  0.00    +0.008 C 
ENDBRANCH  22  24
ENDBRANCH   5  21
TORSDOF 6
