REMARK  Name = No_1743-gen_results/8p0m/2024-11-26-14-13-15/
REMARK  4 active torsions:
REMARK  status: ('A' for Active; 'I' for Inactive)
REMARK    1  A    between atoms: C_2  and  C_11
REMARK    2  A    between atoms: C_4  and  C_5
REMARK    3  A    between atoms: C_12  and  C_13
REMARK    4  A    between atoms: C_17  and  C_18
REMARK                            x       y       z     vdW  Elec       q    Type
REMARK                         _______ _______ _______ _____ _____    ______ ____
ROOT
ATOM      1  C   UNL A   1     -27.084   1.031  27.648  0.00  0.00    +0.000 C 
ATOM      2  C   UNL A   1     -26.272   2.082  27.771  0.00  0.00    +0.002 C 
ENDROOT
BRANCH   2   3
ATOM      3  C   UNL A   1     -25.353   2.113  28.879  0.00  0.00    +0.027 A 
ATOM      4  C   UNL A   1     -24.701   2.928  29.380  0.00  0.00    +0.002 A 
ATOM      5  C   UNL A   1     -23.684   2.712  30.474  0.00  0.00    +0.000 A 
ATOM      6  C   UNL A   1     -24.271   2.174  31.549  0.00  0.00    +0.006 A 
ATOM      7  C   UNL A   1     -25.422   1.289  31.374  0.00  0.00    +0.099 A 
ATOM      8  C   UNL A   1     -26.083   1.436  30.115  0.00  0.00    +0.144 A 
ATOM      9  F   UNL A   1     -27.194   1.654  30.240  0.00  0.00    -0.204 F 
BRANCH   7  10
ATOM     10  C   UNL A   1     -26.033   0.755  32.538  0.00  0.00    +0.421 C 
ATOM     11  F   UNL A   1     -26.419   1.569  33.433  0.00  0.00    -0.166 F 
ATOM     12  F   UNL A   1     -25.110  -0.160  33.086  0.00  0.00    -0.166 F 
ATOM     13  F   UNL A   1     -27.046  -0.086  32.152  0.00  0.00    -0.166 F 
ENDBRANCH   7  10
ENDBRANCH   2   3
BRANCH   1  15
ATOM     14  C   UNL A   1     -28.016  -0.814  28.878  0.00  0.00    -0.000 A 
ATOM     15  C   UNL A   1     -27.064  -0.119  28.608  0.00  0.00    -0.000 A 
ATOM     16  C   UNL A   1     -25.792  -0.430  29.076  0.00  0.00    +0.004 A 
ATOM     17  C   UNL A   1     -25.576  -1.565  29.936  0.00  0.00    +0.071 A 
ATOM     18  C   UNL A   1     -27.961  -1.913  29.818  0.00  0.00    -0.000 A 
ATOM     19  C   UNL A   1     -26.739  -2.305  30.320  0.00  0.00    +0.004 A 
BRANCH  17  20
ATOM     20  C   UNL A   1     -24.372  -1.942  30.447  0.00  0.00    +0.419 C 
ATOM     21  F   UNL A   1     -23.735  -2.829  29.842  0.00  0.00    -0.166 F 
ATOM     22  F   UNL A   1     -23.368  -0.872  30.459  0.00  0.00    -0.166 F 
ATOM     23  F   UNL A   1     -24.450  -2.098  31.794  0.00  0.00    -0.166 F 
ENDBRANCH  17  20
ENDBRANCH   1  15
TORSDOF 4
