MODEL 1743
MODEL 1
REMARK VINA RESULT:    -7.468      0.000      0.000
REMARK INTER + INTRA:         -10.462
REMARK INTER:                  -9.215
REMARK INTRA:                  -1.247
REMARK UNBOUND:                -1.247
REMARK  Name = No_1743-gen_results/8p0m/2024-11-26-14-13-15/
REMARK  4 active torsions:
REMARK  status: ('A' for Active; 'I' for Inactive)
REMARK    1  A    between atoms: C_2  and  C_11
REMARK    2  A    between atoms: C_4  and  C_5
REMARK    3  A    between atoms: C_12  and  C_13
REMARK    4  A    between atoms: C_17  and  C_18
REMARK                            x       y       z     vdW  Elec       q    Type
REMARK                         _______ _______ _______ _____ _____    ______ ____
ROOT
ATOM      1  C   UNL A   1      -9.493   1.160  36.511  0.00  0.00    +0.000 C 
ATOM      2  C   UNL A   1      -9.236   0.011  37.138  0.00  0.00    +0.002 C 
ENDROOT
BRANCH   2   3
ATOM      3  C   UNL A   1     -10.342  -0.836  37.500  0.00  0.00    +0.027 A 
ATOM      4  C   UNL A   1     -10.618  -1.946  37.319  0.00  0.00    +0.002 A 
ATOM      5  C   UNL A   1     -11.921  -2.614  37.682  0.00  0.00    +0.000 A 
ATOM      6  C   UNL A   1     -12.134  -2.522  39.000  0.00  0.00    +0.006 A 
ATOM      7  C   UNL A   1     -11.626  -1.363  39.732  0.00  0.00    +0.099 A 
ATOM      8  C   UNL A   1     -10.574  -0.666  39.061  0.00  0.00    +0.144 A 
ATOM      9  F   UNL A   1      -9.645  -0.567  39.712  0.00  0.00    -0.204 F 
BRANCH   7  10
ATOM     10  C   UNL A   1     -11.851  -1.310  41.132  0.00  0.00    +0.421 C 
ATOM     11  F   UNL A   1     -11.408  -2.266  41.842  0.00  0.00    -0.166 F 
ATOM     12  F   UNL A   1     -13.245  -1.189  41.305  0.00  0.00    -0.166 F 
ATOM     13  F   UNL A   1     -11.417  -0.095  41.598  0.00  0.00    -0.166 F 
ENDBRANCH   7  10
ENDBRANCH   2   3
BRANCH   1  15
ATOM     14  C   UNL A   1     -11.579   2.312  36.839  0.00  0.00    -0.000 A 
ATOM     15  C   UNL A   1     -10.885   1.592  36.161  0.00  0.00    -0.000 A 
ATOM     16  C   UNL A   1     -11.281   1.205  34.885  0.00  0.00    +0.004 A 
ATOM     17  C   UNL A   1     -12.554   1.614  34.349  0.00  0.00    +0.071 A 
ATOM     18  C   UNL A   1     -12.924   2.702  36.471  0.00  0.00    -0.000 A 
ATOM     19  C   UNL A   1     -13.396   2.379  35.217  0.00  0.00    +0.004 A 
BRANCH  17  20
ATOM     20  C   UNL A   1     -13.029   1.280  33.118  0.00  0.00    +0.419 C 
ATOM     21  F   UNL A   1     -12.214   0.844  32.279  0.00  0.00    -0.166 F 
ATOM     22  F   UNL A   1     -13.995   0.176  33.131  0.00  0.00    -0.166 F 
ATOM     23  F   UNL A   1     -13.883   2.231  32.659  0.00  0.00    -0.166 F 
ENDBRANCH  17  20
ENDBRANCH   1  15
TORSDOF 4
ENDMDL
ENDMDL
