MODEL 1744
MODEL 1
REMARK VINA RESULT:    -6.526      0.000      0.000
REMARK INTER + INTRA:          -7.597
REMARK INTER:                  -7.289
REMARK INTRA:                  -0.309
REMARK UNBOUND:                -0.309
REMARK  Name = No_1744-gen_results/8p0m/2024-11-26-14-13-15/
REMARK  2 active torsions:
REMARK  status: ('A' for Active; 'I' for Inactive)
REMARK    1  A    between atoms: C_6  and  C_8
REMARK    2  A    between atoms: N_9  and  C_11
REMARK                            x       y       z     vdW  Elec       q    Type
REMARK                         _______ _______ _______ _____ _____    ______ ____
ROOT
ATOM      1  C   UNL A   1     -24.865  -1.102  28.759  0.00  0.00    +0.269 C 
ATOM      2  N   UNL A   1     -24.836  -0.566  27.562  0.00  0.00    -0.175 NA
ATOM      3  O   UNL A   1     -24.754  -0.349  29.745  0.00  0.00    -0.268 OA
ENDROOT
BRANCH   1   9
ATOM      4  C   UNL A   1     -26.100  -3.200  29.673  0.00  0.00    +0.034 A 
ATOM      5  C   UNL A   1     -26.202  -4.401  29.769  0.00  0.00    +0.140 A 
ATOM      6  C   UNL A   1     -25.219  -5.248  29.270  0.00  0.00    +0.030 A 
ATOM      7  C   UNL A   1     -24.068  -4.722  28.582  0.00  0.00    +0.003 A 
ATOM      8  C   UNL A   1     -24.041  -3.324  28.496  0.00  0.00    +0.005 A 
ATOM      9  C   UNL A   1     -25.005  -2.568  28.969  0.00  0.00    +0.058 A 
ATOM     10  F   UNL A   1     -27.245  -5.020  30.325  0.00  0.00    -0.204 F 
ENDBRANCH   1   9
BRANCH   2  11
ATOM     11  C   UNL A   1     -24.609   0.827  27.241  0.00  0.00    +0.074 A 
ATOM     12  C   UNL A   1     -25.703   1.501  26.862  0.00  0.00    +0.017 A 
ATOM     13  C   UNL A   1     -25.498   2.695  26.085  0.00  0.00    +0.001 A 
ATOM     14  C   UNL A   1     -24.190   3.197  25.925  0.00  0.00    +0.000 A 
ATOM     15  C   UNL A   1     -23.118   2.414  26.402  0.00  0.00    +0.001 A 
ATOM     16  C   UNL A   1     -23.365   1.128  26.953  0.00  0.00    +0.017 A 
ENDBRANCH   2  11
TORSDOF 2
ENDMDL
ENDMDL
