REMARK  Name = No_1744-gen_results/8p0m/2024-11-26-14-13-15/
REMARK  2 active torsions:
REMARK  status: ('A' for Active; 'I' for Inactive)
REMARK    1  A    between atoms: C_6  and  C_8
REMARK    2  A    between atoms: N_9  and  C_11
REMARK                            x       y       z     vdW  Elec       q    Type
REMARK                         _______ _______ _______ _____ _____    ______ ____
ROOT
ATOM      1  C   UNL A   1     -29.066  -2.801  30.186  0.00  0.00    +0.269 C 
ATOM      2  N   UNL A   1     -28.933  -4.080  30.449  0.00  0.00    -0.175 NA
ATOM      3  O   UNL A   1     -30.200  -2.294  30.282  0.00  0.00    -0.268 OA
ENDROOT
BRANCH   1   9
ATOM      4  C   UNL A   1     -28.016  -0.814  28.878  0.00  0.00    +0.034 A 
ATOM      5  C   UNL A   1     -27.064  -0.119  28.608  0.00  0.00    +0.140 A 
ATOM      6  C   UNL A   1     -25.792  -0.430  29.076  0.00  0.00    +0.030 A 
ATOM      7  C   UNL A   1     -25.576  -1.565  29.936  0.00  0.00    +0.003 A 
ATOM      8  C   UNL A   1     -26.735  -2.300  30.217  0.00  0.00    +0.005 A 
ATOM      9  C   UNL A   1     -27.918  -1.954  29.763  0.00  0.00    +0.058 A 
ATOM     10  F   UNL A   1     -27.135   0.993  27.875  0.00  0.00    -0.204 F 
ENDBRANCH   1   9
BRANCH   2  11
ATOM     11  C   UNL A   1     -29.991  -5.013  30.773  0.00  0.00    +0.074 A 
ATOM     12  C   UNL A   1     -29.838  -5.650  31.941  0.00  0.00    +0.017 A 
ATOM     13  C   UNL A   1     -30.543  -6.895  32.103  0.00  0.00    +0.001 A 
ATOM     14  C   UNL A   1     -31.489  -7.282  31.132  0.00  0.00    +0.000 A 
ATOM     15  C   UNL A   1     -31.587  -6.507  29.958  0.00  0.00    +0.001 A 
ATOM     16  C   UNL A   1     -30.698  -5.419  29.745  0.00  0.00    +0.017 A 
ENDBRANCH   2  11
TORSDOF 2
