MODEL 1745
MODEL 1
REMARK VINA RESULT:    -4.855      0.000      0.000
REMARK INTER + INTRA:          -5.649
REMARK INTER:                  -5.423
REMARK INTRA:                  -0.226
REMARK UNBOUND:                -0.226
REMARK  Name = No_1745-gen_results/8p0m/2024-11-26-14-13-15/
REMARK  2 active torsions:
REMARK  status: ('A' for Active; 'I' for Inactive)
REMARK    1  A    between atoms: C_3  and  C_7
REMARK    2  A    between atoms: C_7  and  C_8
REMARK                            x       y       z     vdW  Elec       q    Type
REMARK                         _______ _______ _______ _____ _____    ______ ____
ROOT
ATOM      1  C   UNL A   1     -23.841  -3.817  28.542  0.00  0.00    -0.004 A 
ATOM      2  C   UNL A   1     -24.214  -4.789  28.705  0.00  0.00    -0.000 A 
ATOM      3  C   UNL A   1     -24.645  -2.727  28.942  0.00  0.00    -0.018 A 
ATOM      4  C   UNL A   1     -25.888  -2.908  29.517  0.00  0.00    -0.004 A 
ATOM      5  C   UNL A   1     -25.486  -5.252  29.294  0.00  0.00    -0.000 A 
ATOM      6  C   UNL A   1     -26.287  -4.239  29.689  0.00  0.00    -0.000 A 
ENDROOT
BRANCH   3   7
ATOM      7  C   UNL A   1     -24.217  -1.295  28.799  0.00  0.00    +0.052 C 
BRANCH   7   8
ATOM      8  C   UNL A   1     -22.839  -1.019  28.927  0.00  0.00    -0.021 C 
ATOM      9  C   UNL A   1     -22.340  -0.380  30.045  0.00  0.00    -0.005 C 
ENDBRANCH   7   8
ENDBRANCH   3   7
TORSDOF 2
ENDMDL
ENDMDL
