MODEL 1746
MODEL 1
REMARK VINA RESULT:    -5.177      0.000      0.000
REMARK INTER + INTRA:          -5.787
REMARK INTER:                  -5.782
REMARK INTRA:                  -0.004
REMARK UNBOUND:                -0.004
REMARK  Name = No_1746-gen_results/8p0m/2024-11-26-14-13-15/
REMARK  2 active torsions:
REMARK  status: ('A' for Active; 'I' for Inactive)
REMARK    1  A    between atoms: C_2  and  C_7
REMARK    2  A    between atoms: C_7  and  N_8
REMARK                            x       y       z     vdW  Elec       q    Type
REMARK                         _______ _______ _______ _____ _____    ______ ____
ROOT
ATOM      1  C   UNL A   1     -23.854  -3.421  28.553  0.00  0.00    +0.005 A 
ATOM      2  C   UNL A   1     -24.519  -2.747  29.016  0.00  0.00    +0.055 A 
ATOM      3  C   UNL A   1     -24.218  -4.884  28.679  0.00  0.00    +0.000 A 
ATOM      4  C   UNL A   1     -25.454  -5.241  29.258  0.00  0.00    +0.000 A 
ATOM      5  C   UNL A   1     -25.859  -2.851  29.637  0.00  0.00    +0.005 A 
ATOM      6  C   UNL A   1     -26.231  -4.182  29.764  0.00  0.00    +0.000 A 
ENDROOT
BRANCH   2   7
ATOM      7  C   UNL A   1     -24.165  -1.186  28.887  0.00  0.00    +0.269 C 
ATOM      8  O   UNL A   1     -25.047  -0.419  28.773  0.00  0.00    -0.268 OA
BRANCH   7   9
ATOM      9  N   UNL A   1     -22.931  -0.818  28.948  0.00  0.00    -0.179 NA
ATOM     10  C   UNL A   1     -22.322  -0.485  29.981  0.00  0.00    +0.063 C 
ATOM     11  C   UNL A   1     -23.077  -0.429  31.185  0.00  0.00    +0.050 C 
ENDBRANCH   7   9
ENDBRANCH   2   7
TORSDOF 2
ENDMDL
ENDMDL
