REMARK  Name = No_1747-gen_results/8p0m/2024-11-26-14-13-15/
REMARK  7 active torsions:
REMARK  status: ('A' for Active; 'I' for Inactive)
REMARK    1  A    between atoms: C_3  and  C_4
REMARK    2  A    between atoms: C_4  and  C_8
REMARK    3  A    between atoms: C_9  and  C_10
REMARK    4  A    between atoms: C_10  and  C_11
REMARK    5  A    between atoms: C_11  and  C_12
REMARK    6  A    between atoms: N_14  and  C_16
REMARK    7  A    between atoms: C_16  and  C_17
REMARK                            x       y       z     vdW  Elec       q    Type
REMARK                         _______ _______ _______ _____ _____    ______ ____
ROOT
ATOM      1  C   UNL A   1     -24.451   2.700  27.273  0.00  0.00    +0.083 C 
ATOM      2  C   UNL A   1     -25.201   3.911  27.113  0.00  0.00    +0.010 C 
ENDROOT
BRANCH   1   3
ATOM      3  C   UNL A   1     -24.017   2.270  28.503  0.00  0.00    +0.241 C 
ATOM      4  N   UNL A   1     -24.683   2.762  29.643  0.00  0.00    -0.201 NA
ATOM      5  O   UNL A   1     -23.156   1.459  28.672  0.00  0.00    -0.273 OA
BRANCH   4   6
ATOM      6  C   UNL A   1     -24.510   2.325  30.973  0.00  0.00    +0.141 C 
BRANCH   6   7
ATOM      7  C   UNL A   1     -25.403   2.932  31.873  0.00  0.00    -0.001 A 
ATOM      8  C   UNL A   1     -26.189   2.112  32.673  0.00  0.00    -0.003 A 
ATOM      9  C   UNL A   1     -27.086   2.692  33.623  0.00  0.00    -0.000 A 
ATOM     10  C   UNL A   1     -27.150   4.086  33.740  0.00  0.00    -0.000 A 
ATOM     11  C   UNL A   1     -26.295   4.888  33.026  0.00  0.00    -0.000 A 
ATOM     12  C   UNL A   1     -25.429   4.314  32.118  0.00  0.00    -0.003 A 
ENDBRANCH   6   7
ENDBRANCH   4   6
ENDBRANCH   1   3
BRANCH   1  13
ATOM     13  C   UNL A   1     -24.247   1.800  26.160  0.00  0.00    +0.035 C 
BRANCH  13  15
ATOM     14  C   UNL A   1     -25.898   0.239  26.745  0.00  0.00    -0.026 C 
ATOM     15  C   UNL A   1     -24.926   0.763  26.032  0.00  0.00    -0.030 C 
BRANCH  14  16
ATOM     16  C   UNL A   1     -25.683  -0.777  27.683  0.00  0.00    +0.052 C 
BRANCH  16  19
ATOM     17  C   UNL A   1     -28.016  -0.814  28.878  0.00  0.00    -0.004 A 
ATOM     18  C   UNL A   1     -28.469  -0.785  29.829  0.00  0.00    -0.000 A 
ATOM     19  C   UNL A   1     -26.546  -0.876  28.850  0.00  0.00    -0.018 A 
ATOM     20  C   UNL A   1     -27.918  -1.003  31.188  0.00  0.00    -0.000 A 
ATOM     21  C   UNL A   1     -26.531  -1.079  31.246  0.00  0.00    -0.000 A 
ATOM     22  C   UNL A   1     -25.780  -1.046  30.090  0.00  0.00    -0.004 A 
ENDBRANCH  16  19
ENDBRANCH  14  16
ENDBRANCH  13  15
ENDBRANCH   1  13
TORSDOF 7
