MODEL 1747
MODEL 1
REMARK VINA RESULT:    -7.144      0.000      0.000
REMARK INTER + INTRA:         -11.073
REMARK INTER:                 -10.067
REMARK INTRA:                  -1.006
REMARK UNBOUND:                -1.006
REMARK  Name = No_1747-gen_results/8p0m/2024-11-26-14-13-15/
REMARK  7 active torsions:
REMARK  status: ('A' for Active; 'I' for Inactive)
REMARK    1  A    between atoms: C_3  and  C_4
REMARK    2  A    between atoms: C_4  and  C_8
REMARK    3  A    between atoms: C_9  and  C_10
REMARK    4  A    between atoms: C_10  and  C_11
REMARK    5  A    between atoms: C_11  and  C_12
REMARK    6  A    between atoms: N_14  and  C_16
REMARK    7  A    between atoms: C_16  and  C_17
REMARK                            x       y       z     vdW  Elec       q    Type
REMARK                         _______ _______ _______ _____ _____    ______ ____
ROOT
ATOM      1  C   UNL A   1     -24.214   1.290  27.170  0.00  0.00    +0.083 C 
ATOM      2  C   UNL A   1     -24.527   2.681  27.319  0.00  0.00    +0.010 C 
ENDROOT
BRANCH   1   3
ATOM      3  C   UNL A   1     -23.738   0.535  28.214  0.00  0.00    +0.241 C 
ATOM      4  N   UNL A   1     -24.679  -0.109  29.041  0.00  0.00    -0.201 NA
ATOM      5  O   UNL A   1     -22.581   0.335  28.432  0.00  0.00    -0.273 OA
BRANCH   4   6
ATOM      6  C   UNL A   1     -24.405  -1.055  30.051  0.00  0.00    +0.141 C 
BRANCH   6   7
ATOM      7  C   UNL A   1     -24.751  -2.367  29.685  0.00  0.00    -0.001 A 
ATOM      8  C   UNL A   1     -23.801  -3.139  29.027  0.00  0.00    -0.003 A 
ATOM      9  C   UNL A   1     -24.105  -4.489  28.668  0.00  0.00    -0.000 A 
ATOM     10  C   UNL A   1     -25.359  -5.018  28.997  0.00  0.00    -0.000 A 
ATOM     11  C   UNL A   1     -26.252  -4.290  29.742  0.00  0.00    -0.000 A 
ATOM     12  C   UNL A   1     -25.943  -2.990  30.089  0.00  0.00    -0.003 A 
ENDBRANCH   6   7
ENDBRANCH   4   6
ENDBRANCH   1   3
BRANCH   1  13
ATOM     13  C   UNL A   1     -24.529   0.584  25.947  0.00  0.00    +0.035 C 
BRANCH  13  15
ATOM     14  C   UNL A   1     -26.352  -0.033  24.606  0.00  0.00    -0.026 C 
ATOM     15  C   UNL A   1     -25.680   0.167  25.718  0.00  0.00    -0.030 C 
BRANCH  14  16
ATOM     16  C   UNL A   1     -27.272   0.894  24.102  0.00  0.00    +0.052 C 
BRANCH  16  19
ATOM     17  C   UNL A   1     -29.785   1.333  23.502  0.00  0.00    -0.004 A 
ATOM     18  C   UNL A   1     -30.722   0.856  23.423  0.00  0.00    -0.000 A 
ATOM     19  C   UNL A   1     -28.630   0.471  23.800  0.00  0.00    -0.018 A 
ATOM     20  C   UNL A   1     -31.093  -0.577  23.350  0.00  0.00    -0.000 A 
ATOM     21  C   UNL A   1     -30.051  -1.460  23.615  0.00  0.00    -0.000 A 
ATOM     22  C   UNL A   1     -28.772  -0.989  23.826  0.00  0.00    -0.004 A 
ENDBRANCH  16  19
ENDBRANCH  14  16
ENDBRANCH  13  15
ENDBRANCH   1  13
TORSDOF 7
ENDMDL
ENDMDL
