MODEL 1748
MODEL 1
REMARK VINA RESULT:    -5.208      0.000      0.000
REMARK INTER + INTRA:          -5.476
REMARK INTER:                  -5.665
REMARK INTRA:                   0.189
REMARK UNBOUND:                 0.189
REMARK  Name = No_1748-gen_results/8p0m/2024-11-26-14-13-15/
REMARK  3 active torsions:
REMARK  status: ('A' for Active; 'I' for Inactive)
REMARK    1  A    between atoms: C_3  and  C_8
REMARK    2  A    between atoms: C_8  and  C_10
REMARK    3  A    between atoms: C_10  and  O_11
REMARK                            x       y       z     vdW  Elec       q    Type
REMARK                         _______ _______ _______ _____ _____    ______ ____
ROOT
ATOM      1  C   UNL A   1     -23.953   0.518  27.574  0.00  0.00    +0.042 A 
ATOM      2  C   UNL A   1     -24.329  -0.584  27.902  0.00  0.00    +0.000 A 
ATOM      3  C   UNL A   1     -23.709  -1.449  28.654  0.00  0.00    -0.005 A 
ATOM      4  C   UNL A   1     -22.422  -1.096  29.162  0.00  0.00    +0.000 A 
ATOM      5  C   UNL A   1     -22.707   0.992  28.146  0.00  0.00    +0.196 A 
ATOM      6  C   UNL A   1     -21.999   0.161  28.912  0.00  0.00    +0.042 A 
ATOM      7  O   UNL A   1     -22.353   2.274  27.844  0.00  0.00    -0.287 OA
ENDROOT
BRANCH   3   8
ATOM      8  C   UNL A   1     -24.243  -2.847  28.937  0.00  0.00    +0.132 C 
ATOM      9 CL   UNL A   1     -24.100  -3.892  28.580  0.00  0.00    -0.107 Cl
BRANCH   8  10
ATOM     10  C   UNL A   1     -25.412  -2.683  30.032  0.00  0.00    +0.163 C 
BRANCH  10  11
ATOM     11  O   UNL A   1     -24.706  -2.870  29.979  0.00  0.00    -0.349 OA
ATOM     12  C   UNL A   1     -24.557  -4.097  29.150  0.00  0.00    +0.174 C 
ENDBRANCH  10  11
ENDBRANCH   8  10
ENDBRANCH   3   8
TORSDOF 3
ENDMDL
ENDMDL
