REMARK  Name = No_1748-gen_results/8p0m/2024-11-26-14-13-15/
REMARK  3 active torsions:
REMARK  status: ('A' for Active; 'I' for Inactive)
REMARK    1  A    between atoms: C_3  and  C_8
REMARK    2  A    between atoms: C_8  and  C_10
REMARK    3  A    between atoms: C_10  and  O_11
REMARK                            x       y       z     vdW  Elec       q    Type
REMARK                         _______ _______ _______ _____ _____    ______ ____
ROOT
ATOM      1  C   UNL A   1     -28.016  -0.814  28.878  0.00  0.00    +0.042 A 
ATOM      2  C   UNL A   1     -27.064  -0.119  28.608  0.00  0.00    +0.000 A 
ATOM      3  C   UNL A   1     -26.876   1.133  28.913  0.00  0.00    -0.005 A 
ATOM      4  C   UNL A   1     -27.901   1.807  29.644  0.00  0.00    +0.000 A 
ATOM      5  C   UNL A   1     -29.046  -0.232  29.718  0.00  0.00    +0.196 A 
ATOM      6  C   UNL A   1     -28.940   1.052  30.060  0.00  0.00    +0.042 A 
ATOM      7  O   UNL A   1     -30.059  -1.063  30.095  0.00  0.00    -0.287 OA
ENDROOT
BRANCH   3   8
ATOM      8  C   UNL A   1     -25.668   1.936  28.448  0.00  0.00    +0.132 C 
ATOM      9 CL   UNL A   1     -24.904   1.917  27.638  0.00  0.00    -0.107 Cl
BRANCH   8  10
ATOM     10  C   UNL A   1     -25.438   3.098  29.538  0.00  0.00    +0.163 C 
BRANCH  10  11
ATOM     11  O   UNL A   1     -25.795   2.465  29.451  0.00  0.00    -0.349 OA
ATOM     12  C   UNL A   1     -25.687   1.637  30.683  0.00  0.00    +0.174 C 
ENDBRANCH  10  11
ENDBRANCH   8  10
ENDBRANCH   3   8
TORSDOF 3
