MODEL 1749
MODEL 1
REMARK VINA RESULT:    -6.426      0.000      0.000
REMARK INTER + INTRA:          -7.671
REMARK INTER:                  -7.178
REMARK INTRA:                  -0.493
REMARK UNBOUND:                -0.493
REMARK  Name = No_1749-gen_results/8p0m/2024-11-26-14-13-15/
REMARK  2 active torsions:
REMARK  status: ('A' for Active; 'I' for Inactive)
REMARK    1  A    between atoms: C_3  and  C_4
REMARK    2  A    between atoms: C_4  and  C_8
REMARK                            x       y       z     vdW  Elec       q    Type
REMARK                         _______ _______ _______ _____ _____    ______ ____
ROOT
ATOM      1  C   UNL A   1     -23.668  -1.280  29.471  0.00  0.00    +0.053 C 
ENDROOT
BRANCH   1   4
ATOM      2  C   UNL A   1     -24.672  -0.144  27.333  0.00  0.00    -0.004 A 
ATOM      3  C   UNL A   1     -24.457   0.563  26.582  0.00  0.00    -0.000 A 
ATOM      4  C   UNL A   1     -23.680  -0.285  28.410  0.00  0.00    -0.018 A 
ATOM      5  C   UNL A   1     -23.421   1.620  26.495  0.00  0.00    -0.000 A 
ATOM      6  C   UNL A   1     -22.446   1.560  27.484  0.00  0.00    -0.000 A 
ATOM      7  C   UNL A   1     -22.536   0.630  28.499  0.00  0.00    -0.004 A 
ENDBRANCH   1   4
BRANCH   1   8
ATOM      8  C   UNL A   1     -24.410  -2.457  29.327  0.00  0.00    -0.018 A 
ATOM      9  C   UNL A   1     -23.836  -3.572  28.724  0.00  0.00    -0.004 A 
ATOM     10  C   UNL A   1     -25.718  -2.550  29.819  0.00  0.00    -0.004 A 
ATOM     11  C   UNL A   1     -26.334  -3.822  29.849  0.00  0.00    -0.000 A 
ATOM     12  C   UNL A   1     -25.712  -4.913  29.313  0.00  0.00    -0.000 A 
ATOM     13  C   UNL A   1     -24.425  -4.797  28.840  0.00  0.00    -0.000 A 
ENDBRANCH   1   8
TORSDOF 2
ENDMDL
ENDMDL
