MODEL 174
MODEL 1
REMARK VINA RESULT:    -4.704      0.000      0.000
REMARK INTER + INTRA:          -4.863
REMARK INTER:                  -4.979
REMARK INTRA:                   0.116
REMARK UNBOUND:                 0.116
REMARK  Name = No_174-gen_results/8p0m/2024-11-26-14-13-15/
REMARK  1 active torsions:
REMARK  status: ('A' for Active; 'I' for Inactive)
REMARK    1  A    between atoms: C_5  and  N_8
REMARK                            x       y       z     vdW  Elec       q    Type
REMARK                         _______ _______ _______ _____ _____    ______ ____
ROOT
ATOM      1  O   UNL A   1     -27.735  -3.675  30.116  0.00  0.00    -0.273 OA
ATOM      2  C   UNL A   1     -26.664  -3.987  29.826  0.00  0.00    +0.243 C 
ATOM      3  C   UNL A   1     -26.084  -4.860  29.551  0.00  0.00    +0.087 C 
ATOM      4  N   UNL A   1     -25.894  -2.769  29.514  0.00  0.00    -0.183 NA
ATOM      5  C   UNL A   1     -24.542  -2.863  29.055  0.00  0.00    +0.199 C 
ATOM      6  C   UNL A   1     -24.021  -4.103  28.826  0.00  0.00    +0.047 C 
ATOM      7  C   UNL A   1     -24.801  -5.194  29.038  0.00  0.00    +0.013 C 
ENDROOT
BRANCH   5   8
ATOM      8  N   UNL A   1     -23.833  -1.733  28.831  0.00  0.00    -0.231 NA
ATOM      9  C   UNL A   1     -23.458  -1.022  29.992  0.00  0.00    +0.202 C 
ATOM     10  N   UNL A   1     -23.471  -1.395  30.972  0.00  0.00    -0.104 NA
ENDBRANCH   5   8
TORSDOF 1
ENDMDL
ENDMDL
