REMARK  Name = No_175-gen_results/8p0m/2024-11-26-14-13-15/
REMARK  12 active torsions:
REMARK  status: ('A' for Active; 'I' for Inactive)
REMARK    1  A    between atoms: C_4  and  C_7
REMARK    2  A    between atoms: C_6  and  C_12
REMARK    3  A    between atoms: C_7  and  C_9
REMARK    4  A    between atoms: C_9  and  C_10
REMARK    5  A    between atoms: C_10  and  C_15
REMARK    6  A    between atoms: C_16  and  C_17
REMARK    7  A    between atoms: N_18  and  C_20
REMARK    8  A    between atoms: C_20  and  C_21
REMARK    9  A    between atoms: C_21  and  C_23
REMARK   10  A    between atoms: C_23  and  C_24
REMARK   11  A    between atoms: C_24  and  C_26
REMARK   12  A    between atoms: C_26  and  C_27
REMARK                            x       y       z     vdW  Elec       q    Type
REMARK                         _______ _______ _______ _____ _____    ______ ____
ROOT
ATOM      1  C   UNL A   1     -24.646   1.467  31.625  0.00  0.00    -0.021 C 
ATOM      2  C   UNL A   1     -25.245   2.466  32.430  0.00  0.00    +0.055 C 
ENDROOT
BRANCH   2   3
ATOM      3  C   UNL A   1     -25.575   3.766  31.950  0.00  0.00    +0.265 C 
ATOM      4  N   UNL A   1     -25.934   4.742  32.736  0.00  0.00    -0.200 NA
ATOM      5  O   UNL A   1     -25.497   4.011  30.719  0.00  0.00    -0.268 OA
BRANCH   4   6
ATOM      6  C   UNL A   1     -26.281   6.088  32.311  0.00  0.00    +0.132 C 
BRANCH   6   7
ATOM      7  C   UNL A   1     -26.338   6.410  31.140  0.00  0.00    +0.102 C 
ATOM      8 CL   UNL A   1     -27.419   6.525  30.659  0.00  0.00    -0.113 Cl
BRANCH   7   9
ATOM      9  C   UNL A   1     -25.030   6.728  30.502  0.00  0.00    +0.018 C 
BRANCH   9  10
ATOM     10  C   UNL A   1     -24.964   8.070  29.876  0.00  0.00    +0.006 C 
ATOM     11  C   UNL A   1     -24.455   8.080  28.529  0.00  0.00    +0.000 C 
BRANCH  10  12
ATOM     12  C   UNL A   1     -25.284   9.210  30.487  0.00  0.00    +0.026 C 
BRANCH  12  13
ATOM     13  C   UNL A   1     -25.497   9.274  31.864  0.00  0.00    -0.031 C 
ATOM     14  C   UNL A   1     -25.914  10.463  32.366  0.00  0.00    -0.030 C 
ATOM     15  C   UNL A   1     -26.021  11.558  31.548  0.00  0.00    +0.030 C 
ENDBRANCH  12  13
ENDBRANCH  10  12
ENDBRANCH   9  10
ENDBRANCH   7   9
ENDBRANCH   6   7
ENDBRANCH   4   6
ENDBRANCH   2   3
BRANCH   1  16
ATOM     16  C   UNL A   1     -24.164   0.234  32.028  0.00  0.00    +0.026 C 
BRANCH  16  17
ATOM     17  C   UNL A   1     -23.665  -0.727  31.193  0.00  0.00    +0.009 C 
BRANCH  17  18
ATOM     18  C   UNL A   1     -24.469  -1.372  30.180  0.00  0.00    +0.024 C 
ATOM     19  C   UNL A   1     -23.805  -2.067  29.218  0.00  0.00    +0.005 C 
BRANCH  18  23
ATOM     20  C   UNL A   1     -28.016  -0.814  28.878  0.00  0.00    +0.011 A 
ATOM     21  C   UNL A   1     -28.469  -0.785  29.829  0.00  0.00    +0.007 A 
ATOM     22  C   UNL A   1     -26.546  -0.876  28.850  0.00  0.00    +0.054 A 
ATOM     23  C   UNL A   1     -25.804  -1.032  30.057  0.00  0.00    -0.012 A 
ATOM     24  C   UNL A   1     -26.537  -1.039  31.217  0.00  0.00    +0.003 A 
ATOM     25  C   UNL A   1     -27.884  -0.953  31.186  0.00  0.00    +0.080 A 
ATOM     26 CL   UNL A   1     -25.573  -0.847  27.407  0.00  0.00    -0.083 Cl
BRANCH  25  27
ATOM     27  C   UNL A   1     -28.738  -0.960  32.435  0.00  0.00    +0.388 C 
ATOM     28  O   UNL A   1     -28.335  -0.435  33.390  0.00  0.00    -0.241 OA
ATOM     29  O   UNL A   1     -29.817  -1.654  32.390  0.00  0.00    -0.241 OA
ENDBRANCH  25  27
ENDBRANCH  18  23
ENDBRANCH  17  18
ENDBRANCH  16  17
ENDBRANCH   1  16
TORSDOF 12
