REMARK  Name = No_1750-gen_results/8p0m/2024-11-26-14-13-15/
REMARK  4 active torsions:
REMARK  status: ('A' for Active; 'I' for Inactive)
REMARK    1  A    between atoms: C_2  and  C_3
REMARK    2  A    between atoms: N_4  and  C_10
REMARK    3  A    between atoms: C_8  and  C_11
REMARK    4  A    between atoms: C_10  and  C_14
REMARK                            x       y       z     vdW  Elec       q    Type
REMARK                         _______ _______ _______ _____ _____    ______ ____
ROOT
ATOM      1  O   UNL A   1     -28.123  -1.335  28.487  0.00  0.00    -0.268 OA
ATOM      2  C   UNL A   1     -27.481  -0.404  28.709  0.00  0.00    +0.265 C 
ATOM      3  N   UNL A   1     -27.423   0.175  30.055  0.00  0.00    -0.197 NA
ENDROOT
BRANCH   2   4
ATOM      4  C   UNL A   1     -26.380  -0.087  27.939  0.00  0.00    +0.055 A 
ATOM      5  C   UNL A   1     -26.156   0.116  26.968  0.00  0.00    +0.005 A 
ATOM      6  C   UNL A   1     -24.923   0.576  26.259  0.00  0.00    +0.000 A 
ATOM      7  C   UNL A   1     -23.832   0.780  27.068  0.00  0.00    +0.007 A 
ATOM      8  C   UNL A   1     -23.967   0.580  28.435  0.00  0.00    +0.080 A 
ATOM      9  C   UNL A   1     -25.092   0.240  28.972  0.00  0.00    +0.011 A 
BRANCH   8  10
ATOM     10  C   UNL A   1     -22.792   0.944  29.308  0.00  0.00    +0.388 C 
ATOM     11  O   UNL A   1     -23.034   1.017  30.535  0.00  0.00    -0.241 OA
ATOM     12  O   UNL A   1     -21.616   0.713  28.873  0.00  0.00    -0.241 OA
ENDBRANCH   8  10
ENDBRANCH   2   4
BRANCH   3  13
ATOM     13  C   UNL A   1     -28.596  -0.206  30.919  0.00  0.00    +0.142 C 
BRANCH  13  14
ATOM     14  C   UNL A   1     -29.363   0.845  31.163  0.00  0.00    -0.001 A 
ATOM     15  C   UNL A   1     -30.417   0.674  31.779  0.00  0.00    -0.003 A 
ATOM     16  C   UNL A   1     -31.383   1.741  32.047  0.00  0.00    -0.000 A 
ATOM     17  C   UNL A   1     -31.024   3.028  31.579  0.00  0.00    -0.000 A 
ATOM     18  C   UNL A   1     -29.865   3.212  30.881  0.00  0.00    -0.000 A 
ATOM     19  C   UNL A   1     -29.026   2.162  30.660  0.00  0.00    -0.003 A 
ENDBRANCH  13  14
ENDBRANCH   3  13
TORSDOF 4
