MODEL 1750
MODEL 1
REMARK VINA RESULT:    -6.981      0.000      0.000
REMARK INTER + INTRA:          -9.081
REMARK INTER:                  -8.614
REMARK INTRA:                  -0.467
REMARK UNBOUND:                -0.467
REMARK  Name = No_1750-gen_results/8p0m/2024-11-26-14-13-15/
REMARK  4 active torsions:
REMARK  status: ('A' for Active; 'I' for Inactive)
REMARK    1  A    between atoms: C_2  and  C_3
REMARK    2  A    between atoms: N_4  and  C_10
REMARK    3  A    between atoms: C_8  and  C_11
REMARK    4  A    between atoms: C_10  and  C_14
REMARK                            x       y       z     vdW  Elec       q    Type
REMARK                         _______ _______ _______ _____ _____    ______ ____
ROOT
ATOM      1  O   UNL A   1     -23.982  -0.576  30.428  0.00  0.00    -0.268 OA
ATOM      2  C   UNL A   1     -23.959  -1.066  29.385  0.00  0.00    +0.265 C 
ATOM      3  N   UNL A   1     -23.080  -0.557  28.327  0.00  0.00    -0.197 NA
ENDROOT
BRANCH   2   4
ATOM      4  C   UNL A   1     -24.315  -2.386  29.200  0.00  0.00    +0.055 A 
ATOM      5  C   UNL A   1     -23.887  -3.263  28.913  0.00  0.00    +0.005 A 
ATOM      6  C   UNL A   1     -24.353  -4.683  28.869  0.00  0.00    +0.000 A 
ATOM      7  C   UNL A   1     -25.639  -4.884  29.307  0.00  0.00    +0.007 A 
ATOM      8  C   UNL A   1     -26.366  -3.795  29.769  0.00  0.00    +0.080 A 
ATOM      9  C   UNL A   1     -25.861  -2.607  29.829  0.00  0.00    +0.011 A 
BRANCH   8  10
ATOM     10  C   UNL A   1     -27.722  -4.071  30.369  0.00  0.00    +0.388 C 
ATOM     11  O   UNL A   1     -28.613  -3.233  30.097  0.00  0.00    -0.241 OA
ATOM     12  O   UNL A   1     -28.011  -5.269  30.694  0.00  0.00    -0.241 OA
ENDBRANCH   8  10
ENDBRANCH   2   4
BRANCH   3  13
ATOM     13  C   UNL A   1     -22.646   0.868  28.545  0.00  0.00    +0.142 C 
BRANCH  13  14
ATOM     14  C   UNL A   1     -23.131   1.659  27.601  0.00  0.00    -0.001 A 
ATOM     15  C   UNL A   1     -22.527   1.732  26.528  0.00  0.00    -0.003 A 
ATOM     16  C   UNL A   1     -22.921   2.623  25.435  0.00  0.00    -0.000 A 
ATOM     17  C   UNL A   1     -24.084   3.398  25.661  0.00  0.00    -0.000 A 
ATOM     18  C   UNL A   1     -24.740   3.329  26.856  0.00  0.00    -0.000 A 
ATOM     19  C   UNL A   1     -24.300   2.484  27.830  0.00  0.00    -0.003 A 
ENDBRANCH  13  14
ENDBRANCH   3  13
TORSDOF 4
ENDMDL
ENDMDL
