MODEL 1751
MODEL 1
REMARK VINA RESULT:    -4.385      0.000      0.000
REMARK INTER + INTRA:          -4.763
REMARK INTER:                  -4.642
REMARK INTRA:                  -0.122
REMARK UNBOUND:                -0.122
REMARK  Name = No_1751-gen_results/8p0m/2024-11-26-14-13-15/
REMARK  1 active torsions:
REMARK  status: ('A' for Active; 'I' for Inactive)
REMARK    1  A    between atoms: N_4  and  C_8
REMARK                            x       y       z     vdW  Elec       q    Type
REMARK                         _______ _______ _______ _____ _____    ______ ____
ROOT
ATOM      1  O   UNL A   1     -23.170  -2.386  28.868  0.00  0.00    -0.275 OA
ATOM      2  C   UNL A   1     -24.060  -3.093  29.021  0.00  0.00    +0.229 C 
ATOM      3  C   UNL A   1     -24.043  -4.355  28.822  0.00  0.00    +0.086 C 
ATOM      4  N   UNL A   1     -25.162  -2.529  29.715  0.00  0.00    -0.258 N 
ATOM      5  C   UNL A   1     -26.356  -3.275  29.977  0.00  0.00    +0.098 C 
ATOM      6  C   UNL A   1     -25.221  -5.196  29.087  0.00  0.00    +0.011 C 
ATOM      7  C   UNL A   1     -26.340  -4.587  29.692  0.00  0.00    +0.022 C 
ENDROOT
BRANCH   4   8
ATOM      8  C   UNL A   1     -25.202  -1.103  30.026  0.00  0.00    +0.068 C 
ATOM      9  C   UNL A   1     -26.217  -0.527  30.467  0.00  0.00    +0.018 C 
ENDBRANCH   4   8
TORSDOF 1
ENDMDL
ENDMDL
