REMARK  Name = No_1751-gen_results/8p0m/2024-11-26-14-13-15/
REMARK  1 active torsions:
REMARK  status: ('A' for Active; 'I' for Inactive)
REMARK    1  A    between atoms: N_4  and  C_8
REMARK                            x       y       z     vdW  Elec       q    Type
REMARK                         _______ _______ _______ _____ _____    ______ ____
ROOT
ATOM      1  O   UNL A   1     -28.123  -1.335  28.487  0.00  0.00    -0.275 OA
ATOM      2  C   UNL A   1     -28.521  -0.436  29.078  0.00  0.00    +0.229 C 
ATOM      3  C   UNL A   1     -29.698   0.051  28.976  0.00  0.00    +0.086 C 
ATOM      4  N   UNL A   1     -27.706  -0.022  30.163  0.00  0.00    -0.258 N 
ATOM      5  C   UNL A   1     -28.055   1.091  30.993  0.00  0.00    +0.098 C 
ATOM      6  C   UNL A   1     -30.142   1.181  29.808  0.00  0.00    +0.011 C 
ATOM      7  C   UNL A   1     -29.270   1.635  30.819  0.00  0.00    +0.022 C 
ENDROOT
BRANCH   4   8
ATOM      8  C   UNL A   1     -26.378  -0.595  30.364  0.00  0.00    +0.068 C 
ATOM      9  C   UNL A   1     -25.888  -1.466  29.616  0.00  0.00    +0.018 C 
ENDBRANCH   4   8
TORSDOF 1
