MODEL 1752
MODEL 1
REMARK VINA RESULT:    -6.998      0.000      0.000
REMARK INTER + INTRA:         -10.108
REMARK INTER:                  -9.043
REMARK INTRA:                  -1.065
REMARK UNBOUND:                -1.065
REMARK  Name = No_1752-gen_results/8p0m/2024-11-26-14-13-15/
REMARK  5 active torsions:
REMARK  status: ('A' for Active; 'I' for Inactive)
REMARK    1  A    between atoms: C_3  and  N_8
REMARK    2  A    between atoms: C_6  and  O_7
REMARK    3  A    between atoms: O_7  and  C_13
REMARK    4  A    between atoms: C_17  and  C_19
REMARK    5  A    between atoms: C_24  and  C_25
REMARK                            x       y       z     vdW  Elec       q    Type
REMARK                         _______ _______ _______ _____ _____    ______ ____
ROOT
ATOM      1  C   UNL A   1     -30.493   0.518  24.043  0.00  0.00    +0.145 A 
ATOM      2  C   UNL A   1     -30.638  -0.726  23.414  0.00  0.00    +0.037 A 
ATOM      3  C   UNL A   1     -29.445  -1.503  23.352  0.00  0.00    +0.003 A 
ATOM      4  C   UNL A   1     -28.327  -1.034  24.021  0.00  0.00    +0.000 A 
ATOM      5  C   UNL A   1     -28.318   0.172  24.607  0.00  0.00    +0.003 A 
ATOM      6  C   UNL A   1     -29.397   0.973  24.598  0.00  0.00    +0.037 A 
ENDROOT
BRANCH   5   7
ATOM      7  C   UNL A   1     -27.011   0.724  24.939  0.00  0.00    +0.000 A 
ATOM      8  C   UNL A   1     -26.917   1.893  25.536  0.00  0.00    +0.000 A 
ATOM      9  C   UNL A   1     -25.882  -0.153  24.784  0.00  0.00    +0.000 A 
ATOM     10  C   UNL A   1     -25.673   2.475  25.911  0.00  0.00    -0.000 A 
ATOM     11  C   UNL A   1     -24.592   0.423  25.110  0.00  0.00    -0.000 A 
ATOM     12  C   UNL A   1     -24.537   1.696  25.670  0.00  0.00    -0.000 A 
BRANCH  12  13
ATOM     13  C   UNL A   1     -23.197   2.247  26.004  0.00  0.00    -0.005 C 
ATOM     14  C   UNL A   1     -22.630   1.846  27.107  0.00  0.00    -0.026 C 
ATOM     15  C   UNL A   1     -23.396   1.017  28.048  0.00  0.00    +0.031 C 
ENDBRANCH  12  13
ENDBRANCH   5   7
BRANCH   1  16
ATOM     16  O   UNL A   1     -31.614   1.185  23.984  0.00  0.00    -0.454 OA
BRANCH  16  22
ATOM     17  C   UNL A   1     -31.268   2.568  21.983  0.00  0.00    +0.039 A 
ATOM     18  C   UNL A   1     -31.704   3.008  20.945  0.00  0.00    +0.018 A 
ATOM     19  C   UNL A   1     -33.020   2.826  20.522  0.00  0.00    +0.052 A 
ATOM     20  C   UNL A   1     -33.916   2.019  21.329  0.00  0.00    +0.018 A 
ATOM     21  C   UNL A   1     -33.334   1.532  22.521  0.00  0.00    +0.039 A 
ATOM     22  C   UNL A   1     -32.082   1.751  22.832  0.00  0.00    +0.145 A 
BRANCH  19  23
ATOM     23  N   UNL A   1     -33.586   3.308  19.326  0.00  0.00    -0.286 N 
ATOM     24  C   UNL A   1     -33.687   2.622  18.221  0.00  0.00    +0.061 C 
ATOM     25  C   UNL A   1     -34.162   3.282  17.026  0.00  0.00    -0.008 C 
ATOM     26  C   UNL A   1     -34.341   4.708  17.313  0.00  0.00    +0.049 C 
ATOM     27  C   UNL A   1     -33.898   4.708  18.953  0.00  0.00    +0.100 C 
ENDBRANCH  19  23
ENDBRANCH  16  22
ENDBRANCH   1  16
TORSDOF 5
ENDMDL
ENDMDL
