REMARK  Name = No_1752-gen_results/8p0m/2024-11-26-14-13-15/
REMARK  5 active torsions:
REMARK  status: ('A' for Active; 'I' for Inactive)
REMARK    1  A    between atoms: C_3  and  N_8
REMARK    2  A    between atoms: C_6  and  O_7
REMARK    3  A    between atoms: O_7  and  C_13
REMARK    4  A    between atoms: C_17  and  C_19
REMARK    5  A    between atoms: C_24  and  C_25
REMARK                            x       y       z     vdW  Elec       q    Type
REMARK                         _______ _______ _______ _____ _____    ______ ____
ROOT
ATOM      1  C   UNL A   1     -30.050  -2.235  30.568  0.00  0.00    +0.145 A 
ATOM      2  C   UNL A   1     -30.462  -2.937  31.709  0.00  0.00    +0.037 A 
ATOM      3  C   UNL A   1     -31.637  -2.423  32.331  0.00  0.00    +0.003 A 
ATOM      4  C   UNL A   1     -32.318  -1.402  31.691  0.00  0.00    +0.000 A 
ATOM      5  C   UNL A   1     -31.830  -0.821  30.585  0.00  0.00    +0.003 A 
ATOM      6  C   UNL A   1     -30.672  -1.216  30.029  0.00  0.00    +0.037 A 
ENDROOT
BRANCH   5   7
ATOM      7  C   UNL A   1     -32.406   0.466  30.218  0.00  0.00    +0.000 A 
ATOM      8  C   UNL A   1     -32.149   1.537  30.938  0.00  0.00    +0.000 A 
ATOM      9  C   UNL A   1     -33.066   0.537  28.942  0.00  0.00    +0.000 A 
ATOM     10  C   UNL A   1     -32.658   2.828  30.618  0.00  0.00    -0.000 A 
ATOM     11  C   UNL A   1     -33.640   1.826  28.605  0.00  0.00    -0.000 A 
ATOM     12  C   UNL A   1     -33.404   2.915  29.439  0.00  0.00    -0.000 A 
BRANCH  12  13
ATOM     13  C   UNL A   1     -33.998   4.222  29.053  0.00  0.00    -0.005 C 
ATOM     14  C   UNL A   1     -33.671   5.272  29.754  0.00  0.00    -0.026 C 
ATOM     15  C   UNL A   1     -32.883   5.098  30.982  0.00  0.00    +0.031 C 
ENDBRANCH  12  13
ENDBRANCH   5   7
BRANCH   1  16
ATOM     16  O   UNL A   1     -28.930  -2.730  30.115  0.00  0.00    -0.454 OA
BRANCH  16  22
ATOM     17  C   UNL A   1     -28.016  -0.814  28.878  0.00  0.00    +0.039 A 
ATOM     18  C   UNL A   1     -27.064  -0.119  28.608  0.00  0.00    +0.018 A 
ATOM     19  C   UNL A   1     -25.765  -0.390  29.036  0.00  0.00    +0.052 A 
ATOM     20  C   UNL A   1     -25.530  -1.530  29.901  0.00  0.00    +0.018 A 
ATOM     21  C   UNL A   1     -26.689  -2.289  30.181  0.00  0.00    +0.039 A 
ATOM     22  C   UNL A   1     -27.873  -1.951  29.737  0.00  0.00    +0.145 A 
BRANCH  19  23
ATOM     23  N   UNL A   1     -24.619   0.380  28.759  0.00  0.00    -0.286 N 
ATOM     24  C   UNL A   1     -24.526   1.256  27.796  0.00  0.00    +0.061 C 
ATOM     25  C   UNL A   1     -23.248   1.878  27.535  0.00  0.00    -0.008 C 
ATOM     26  C   UNL A   1     -22.238   1.267  28.405  0.00  0.00    +0.049 C 
ATOM     27  C   UNL A   1     -23.235   0.183  29.250  0.00  0.00    +0.100 C 
ENDBRANCH  19  23
ENDBRANCH  16  22
ENDBRANCH   1  16
TORSDOF 5
