REMARK  Name = No_1753-gen_results/8p0m/2024-11-26-14-13-15/
REMARK  2 active torsions:
REMARK  status: ('A' for Active; 'I' for Inactive)
REMARK    1  A    between atoms: C_1  and  C_8
REMARK    2  A    between atoms: C_5  and  C_11
REMARK                            x       y       z     vdW  Elec       q    Type
REMARK                         _______ _______ _______ _____ _____    ______ ____
ROOT
ATOM      1  C   UNL A   1     -28.016  -0.814  28.878  0.00  0.00    +0.078 C 
ATOM      2  C   UNL A   1     -27.064  -0.119  28.608  0.00  0.00    -0.038 C 
ATOM      3  C   UNL A   1     -26.876   1.133  28.913  0.00  0.00    +0.023 C 
ATOM      4  C   UNL A   1     -25.688   1.952  28.567  0.00  0.00    +0.010 C 
ATOM      5  C   UNL A   1     -24.639   1.283  27.875  0.00  0.00    +0.042 C 
ATOM      6  C   UNL A   1     -24.807  -0.051  27.604  0.00  0.00    +0.010 C 
ATOM      7  C   UNL A   1     -25.902  -0.767  27.951  0.00  0.00    +0.023 C 
ENDROOT
BRANCH   5   8
ATOM      8  C   UNL A   1     -23.416   1.970  27.508  0.00  0.00    +0.074 C 
ATOM      9  N   UNL A   1     -23.063   2.692  26.701  0.00  0.00    -0.247 NA
ATOM     10  C   UNL A   1     -22.169   1.577  28.384  0.00  0.00    +0.110 C 
ATOM     11  N   UNL A   1     -21.135   2.147  27.618  0.00  0.00    -0.241 NA
ATOM     12  C   UNL A   1     -21.697   2.609  26.518  0.00  0.00    +0.251 C 
ENDBRANCH   5   8
BRANCH   1  13
ATOM     13  C   UNL A   1     -28.061  -1.429  30.283  0.00  0.00    +0.387 C 
ATOM     14  O   UNL A   1     -28.955  -2.324  30.504  0.00  0.00    -0.241 OA
ATOM     15  O   UNL A   1     -27.182  -1.170  31.115  0.00  0.00    -0.241 OA
ENDBRANCH   1  13
TORSDOF 2
