MODEL 1753
MODEL 1
REMARK VINA RESULT:    -6.217      0.000      0.000
REMARK INTER + INTRA:          -7.094
REMARK INTER:                  -6.944
REMARK INTRA:                  -0.150
REMARK UNBOUND:                -0.150
REMARK  Name = No_1753-gen_results/8p0m/2024-11-26-14-13-15/
REMARK  2 active torsions:
REMARK  status: ('A' for Active; 'I' for Inactive)
REMARK    1  A    between atoms: C_1  and  C_8
REMARK    2  A    between atoms: C_5  and  C_11
REMARK                            x       y       z     vdW  Elec       q    Type
REMARK                         _______ _______ _______ _____ _____    ______ ____
ROOT
ATOM      1  C   UNL A   1     -16.273 -22.884   8.009  0.00  0.00    +0.078 C 
ATOM      2  C   UNL A   1     -17.168 -22.136   7.689  0.00  0.00    -0.038 C 
ATOM      3  C   UNL A   1     -18.384 -22.100   8.154  0.00  0.00    +0.023 C 
ATOM      4  C   UNL A   1     -19.455 -21.160   7.739  0.00  0.00    +0.010 C 
ATOM      5  C   UNL A   1     -19.095 -20.179   6.772  0.00  0.00    +0.042 C 
ATOM      6  C   UNL A   1     -17.799 -20.176   6.323  0.00  0.00    +0.010 C 
ATOM      7  C   UNL A   1     -16.846 -21.042   6.740  0.00  0.00    +0.023 C 
ENDROOT
BRANCH   5   8
ATOM      8  C   UNL A   1     -20.047 -19.189   6.309  0.00  0.00    +0.074 C 
ATOM      9  N   UNL A   1     -20.037 -18.236   5.685  0.00  0.00    -0.247 NA
ATOM     10  C   UNL A   1     -21.505 -19.386   6.868  0.00  0.00    +0.110 C 
ATOM     11  N   UNL A   1     -22.081 -18.154   6.504  0.00  0.00    -0.241 NA
ATOM     12  C   UNL A   1     -21.108 -17.422   5.997  0.00  0.00    +0.251 C 
ENDBRANCH   5   8
BRANCH   1  13
ATOM     13  C   UNL A   1     -15.488 -22.537   9.281  0.00  0.00    +0.387 C 
ATOM     14  O   UNL A   1     -14.276 -22.141   9.134  0.00  0.00    -0.241 OA
ATOM     15  O   UNL A   1     -16.051 -22.509  10.383  0.00  0.00    -0.241 OA
ENDBRANCH   1  13
TORSDOF 2
ENDMDL
ENDMDL
