REMARK  Name = No_1754-gen_results/8p0m/2024-11-26-14-13-15/
REMARK  2 active torsions:
REMARK  status: ('A' for Active; 'I' for Inactive)
REMARK    1  A    between atoms: C_3  and  C_4
REMARK    2  A    between atoms: C_9  and  C_13
REMARK                            x       y       z     vdW  Elec       q    Type
REMARK                         _______ _______ _______ _____ _____    ______ ____
ROOT
ATOM      1  C   UNL A   1     -27.028   0.934  27.528  0.00  0.00    -0.023 A 
ATOM      2  C   UNL A   1     -26.890   1.494  26.539  0.00  0.00    -0.004 A 
ATOM      3  C   UNL A   1     -25.569   1.977  25.911  0.00  0.00    -0.001 A 
ATOM      4  C   UNL A   1     -24.407   1.675  26.683  0.00  0.00    -0.004 A 
ATOM      5  C   UNL A   1     -24.548   1.054  27.916  0.00  0.00    -0.023 A 
ATOM      6  C   UNL A   1     -25.782   0.632  28.355  0.00  0.00    -0.009 A 
ENDROOT
BRANCH   1   9
ATOM      7  C   UNL A   1     -28.016  -0.814  28.878  0.00  0.00    +0.022 C 
ATOM      8  C   UNL A   1     -28.469  -0.785  29.829  0.00  0.00    +0.072 C 
ATOM      9  C   UNL A   1     -28.182   0.428  28.113  0.00  0.00    +0.025 C 
ATOM     10  N   UNL A   1     -29.790  -0.775  30.088  0.00  0.00    -0.272 NA
ATOM     11  C   UNL A   1     -30.437   0.178  29.306  0.00  0.00    +0.072 C 
ATOM     12  C   UNL A   1     -29.508   0.893  28.272  0.00  0.00    +0.022 C 
ATOM     13  C   UNL A   1     -30.565  -1.368  31.116  0.00  0.00    +0.090 C 
ENDBRANCH   1   9
BRANCH   5  14
ATOM     14  C   UNL A   1     -23.278   0.792  28.646  0.00  0.00    +0.019 C 
ATOM     15  C   UNL A   1     -23.074  -0.543  29.090  0.00  0.00    +0.004 C 
ATOM     16  C   UNL A   1     -22.074   1.337  27.887  0.00  0.00    +0.004 C 
ATOM     17  C   UNL A   1     -23.439   1.684  30.006  0.00  0.00    +0.004 C 
ENDBRANCH   5  14
TORSDOF 2
