MODEL 1754
MODEL 1
REMARK VINA RESULT:    -7.350      0.000      0.000
REMARK INTER + INTRA:          -8.769
REMARK INTER:                  -8.209
REMARK INTRA:                  -0.560
REMARK UNBOUND:                -0.560
REMARK  Name = No_1754-gen_results/8p0m/2024-11-26-14-13-15/
REMARK  2 active torsions:
REMARK  status: ('A' for Active; 'I' for Inactive)
REMARK    1  A    between atoms: C_3  and  C_4
REMARK    2  A    between atoms: C_9  and  C_13
REMARK                            x       y       z     vdW  Elec       q    Type
REMARK                         _______ _______ _______ _____ _____    ______ ____
ROOT
ATOM      1  C   UNL A   1     -23.324  -1.319  28.912  0.00  0.00    -0.023 A 
ATOM      2  C   UNL A   1     -22.270  -1.030  29.252  0.00  0.00    -0.004 A 
ATOM      3  C   UNL A   1     -21.459   0.213  28.840  0.00  0.00    -0.001 A 
ATOM      4  C   UNL A   1     -22.133   1.077  27.925  0.00  0.00    -0.004 A 
ATOM      5  C   UNL A   1     -23.386   0.720  27.445  0.00  0.00    -0.023 A 
ATOM      6  C   UNL A   1     -24.029  -0.400  27.920  0.00  0.00    -0.009 A 
ENDROOT
BRANCH   1   9
ATOM      7  C   UNL A   1     -25.211  -2.077  30.222  0.00  0.00    +0.022 C 
ATOM      8  C   UNL A   1     -26.140  -2.482  29.932  0.00  0.00    +0.072 C 
ATOM      9  C   UNL A   1     -24.120  -2.392  29.291  0.00  0.00    +0.025 C 
ATOM     10  N   UNL A   1     -26.483  -3.784  29.935  0.00  0.00    -0.272 NA
ATOM     11  C   UNL A   1     -25.500  -4.552  29.317  0.00  0.00    +0.072 C 
ATOM     12  C   UNL A   1     -24.231  -3.745  28.893  0.00  0.00    +0.022 C 
ATOM     13  C   UNL A   1     -27.698  -4.450  30.234  0.00  0.00    +0.090 C 
ENDBRANCH   1   9
BRANCH   5  14
ATOM     14  C   UNL A   1     -23.999   1.682  26.489  0.00  0.00    +0.019 C 
ATOM     15  C   UNL A   1     -24.891   2.639  27.048  0.00  0.00    +0.004 C 
ATOM     16  C   UNL A   1     -22.949   2.328  25.594  0.00  0.00    +0.004 C 
ATOM     17  C   UNL A   1     -24.925   0.726  25.541  0.00  0.00    +0.004 C 
ENDBRANCH   5  14
TORSDOF 2
ENDMDL
ENDMDL
