MODEL 1755
MODEL 1
REMARK VINA RESULT:    -5.297      0.000      0.000
REMARK INTER + INTRA:          -5.635
REMARK INTER:                  -5.606
REMARK INTRA:                  -0.028
REMARK UNBOUND:                -0.028
REMARK  Name = No_1755-gen_results/8p0m/2024-11-26-14-13-15/
REMARK  1 active torsions:
REMARK  status: ('A' for Active; 'I' for Inactive)
REMARK    1  A    between atoms: C_4  and  P_7
REMARK                            x       y       z     vdW  Elec       q    Type
REMARK                         _______ _______ _______ _____ _____    ______ ____
ROOT
ATOM      1  C   UNL A   1     -29.994  -9.899  31.240  0.00  0.00    +0.000 A 
ATOM      2  C   UNL A   1     -29.798 -10.491  30.391  0.00  0.00    +0.000 A 
ATOM      3  C   UNL A   1     -29.306 -10.338  32.513  0.00  0.00    +0.003 A 
ATOM      4  C   UNL A   1     -28.362 -11.386  32.462  0.00  0.00    +0.029 A 
ATOM      5  C   UNL A   1     -28.854 -11.585  30.067  0.00  0.00    +0.000 A 
ATOM      6  C   UNL A   1     -28.198 -12.012  31.212  0.00  0.00    +0.003 A 
ENDROOT
BRANCH   4   7
ATOM      7  P   UNL A   1     -27.549 -11.947  33.873  0.00  0.00    +0.140 P 
ATOM      8  O   UNL A   1     -26.579 -12.848  33.475  0.00  0.00    -0.354 OA
ATOM      9  O   UNL A   1     -28.524 -12.635  34.807  0.00  0.00    -0.354 OA
ATOM     10  O   UNL A   1     -26.958 -10.712  34.539  0.00  0.00    -0.456 OA
ENDBRANCH   4   7
TORSDOF 1
ENDMDL
ENDMDL
