REMARK  Name = No_1755-gen_results/8p0m/2024-11-26-14-13-15/
REMARK  1 active torsions:
REMARK  status: ('A' for Active; 'I' for Inactive)
REMARK    1  A    between atoms: C_4  and  P_7
REMARK                            x       y       z     vdW  Elec       q    Type
REMARK                         _______ _______ _______ _____ _____    ______ ____
ROOT
ATOM      1  C   UNL A   1     -28.016  -0.814  28.878  0.00  0.00    +0.000 A 
ATOM      2  C   UNL A   1     -28.469  -0.785  29.829  0.00  0.00    +0.000 A 
ATOM      3  C   UNL A   1     -26.504  -0.778  28.877  0.00  0.00    +0.003 A 
ATOM      4  C   UNL A   1     -25.810  -0.853  30.103  0.00  0.00    +0.029 A 
ATOM      5  C   UNL A   1     -27.991  -0.892  31.226  0.00  0.00    +0.000 A 
ATOM      6  C   UNL A   1     -26.604  -0.868  31.265  0.00  0.00    +0.003 A 
ENDROOT
BRANCH   4   7
ATOM      7  P   UNL A   1     -24.090  -0.806  30.179  0.00  0.00    +0.140 P 
ATOM      8  O   UNL A   1     -23.605  -1.940  29.555  0.00  0.00    -0.354 OA
ATOM      9  O   UNL A   1     -23.625  -0.787  31.622  0.00  0.00    -0.354 OA
ATOM     10  O   UNL A   1     -23.670   0.474  29.470  0.00  0.00    -0.456 OA
ENDBRANCH   4   7
TORSDOF 1
