MODEL 1756
MODEL 1
REMARK VINA RESULT:    -7.411      0.000      0.000
REMARK INTER + INTRA:         -10.017
REMARK INTER:                  -9.143
REMARK INTRA:                  -0.874
REMARK UNBOUND:                -0.874
REMARK  Name = No_1756-gen_results/8p0m/2024-11-26-14-13-15/
REMARK  4 active torsions:
REMARK  status: ('A' for Active; 'I' for Inactive)
REMARK    1  A    between atoms: C_10  and  C_12
REMARK    2  A    between atoms: N_14  and  C_15
REMARK    3  A    between atoms: C_15  and  C_24
REMARK    4  A    between atoms: C_16  and  C_17
REMARK                            x       y       z     vdW  Elec       q    Type
REMARK                         _______ _______ _______ _____ _____    ______ ____
ROOT
ATOM      1  C   UNL A   1     -24.258   1.249  30.312  0.00  0.00    +0.237 C 
ATOM      2  O   UNL A   1     -23.612   1.823  31.178  0.00  0.00    -0.274 OA
ATOM      3  N   UNL A   1     -24.905   0.047  30.492  0.00  0.00    -0.222 N 
ATOM      4  C   UNL A   1     -25.646  -0.637  29.490  0.00  0.00    +0.255 C 
ATOM      5  O   UNL A   1     -26.417  -0.052  28.826  0.00  0.00    -0.270 OA
ENDROOT
BRANCH   1  15
ATOM      6  C   UNL A   1     -24.945   3.863  26.040  0.00  0.00    +0.004 A 
ATOM      7  C   UNL A   1     -25.749   4.309  26.555  0.00  0.00    +0.000 A 
ATOM      8  C   UNL A   1     -24.209   2.884  26.838  0.00  0.00    +0.052 A 
ATOM      9  C   UNL A   1     -24.566   2.577  28.128  0.00  0.00    -0.008 A 
ATOM     10  C   UNL A   1     -26.348   4.182  27.883  0.00  0.00    -0.000 A 
ATOM     11  C   UNL A   1     -25.643   3.235  28.664  0.00  0.00    -0.004 A 
ATOM     12  C   UNL A   1     -23.062   2.117  26.270  0.00  0.00    +0.265 C 
ATOM     13  N   UNL A   1     -22.492   1.232  27.061  0.00  0.00    -0.201 NA
ATOM     14  C   UNL A   1     -22.828   0.926  28.328  0.00  0.00    +0.129 C 
ATOM     15  C   UNL A   1     -23.916   1.602  28.895  0.00  0.00    +0.121 C 
ATOM     16  O   UNL A   1     -22.662   2.276  25.116  0.00  0.00    -0.268 OA
ENDBRANCH   1  15
BRANCH   4  17
ATOM     17  C   UNL A   1     -25.337  -1.979  29.408  0.00  0.00    +0.054 A 
ATOM     18  C   UNL A   1     -26.296  -2.758  29.738  0.00  0.00    +0.004 A 
ATOM     19  C   UNL A   1     -26.091  -4.184  29.630  0.00  0.00    +0.000 A 
ATOM     20  C   UNL A   1     -24.845  -4.674  29.175  0.00  0.00    +0.000 A 
ATOM     21  C   UNL A   1     -23.868  -3.792  28.799  0.00  0.00    +0.000 A 
ATOM     22  C   UNL A   1     -24.057  -2.464  28.911  0.00  0.00    +0.004 A 
ENDBRANCH   4  17
BRANCH   3  23
ATOM     23  C   UNL A   1     -25.126  -0.419  31.890  0.00  0.00    +0.128 C 
BRANCH  23  24
ATOM     24  C   UNL A   1     -24.213  -1.190  32.417  0.00  0.00    -0.004 C 
ATOM     25  C   UNL A   1     -23.111  -1.240  32.483  0.00  0.00    -0.003 C 
ENDBRANCH  23  24
ENDBRANCH   3  23
TORSDOF 4
ENDMDL
ENDMDL
