REMARK  Name = No_1756-gen_results/8p0m/2024-11-26-14-13-15/
REMARK  4 active torsions:
REMARK  status: ('A' for Active; 'I' for Inactive)
REMARK    1  A    between atoms: C_10  and  C_12
REMARK    2  A    between atoms: N_14  and  C_15
REMARK    3  A    between atoms: C_15  and  C_24
REMARK    4  A    between atoms: C_16  and  C_17
REMARK                            x       y       z     vdW  Elec       q    Type
REMARK                         _______ _______ _______ _____ _____    ______ ____
ROOT
ATOM      1  C   UNL A   1     -25.610   3.362  30.405  0.00  0.00    +0.237 C 
ATOM      2  O   UNL A   1     -24.779   3.088  31.260  0.00  0.00    -0.274 OA
ATOM      3  N   UNL A   1     -26.576   4.334  30.541  0.00  0.00    -0.222 N 
ATOM      4  C   UNL A   1     -27.555   4.652  29.561  0.00  0.00    +0.255 C 
ATOM      5  O   UNL A   1     -27.242   4.788  28.438  0.00  0.00    -0.270 OA
ENDROOT
BRANCH   1  15
ATOM      6  C   UNL A   1     -28.016  -0.814  28.878  0.00  0.00    +0.004 A 
ATOM      7  C   UNL A   1     -28.469  -0.785  29.829  0.00  0.00    +0.000 A 
ATOM      8  C   UNL A   1     -27.087   0.290  28.638  0.00  0.00    +0.052 A 
ATOM      9  C   UNL A   1     -26.832   1.249  29.587  0.00  0.00    -0.008 A 
ATOM     10  C   UNL A   1     -28.391   0.080  31.006  0.00  0.00    -0.000 A 
ATOM     11  C   UNL A   1     -27.494   1.152  30.784  0.00  0.00    -0.004 A 
ATOM     12  C   UNL A   1     -26.317   0.399  27.365  0.00  0.00    +0.265 C 
ATOM     13  N   UNL A   1     -25.479   1.410  27.265  0.00  0.00    -0.201 NA
ATOM     14  C   UNL A   1     -25.224   2.359  28.184  0.00  0.00    +0.129 C 
ATOM     15  C   UNL A   1     -25.905   2.283  29.406  0.00  0.00    +0.121 C 
ATOM     16  O   UNL A   1     -26.431  -0.414  26.446  0.00  0.00    -0.268 OA
ENDBRANCH   1  15
BRANCH   4  17
ATOM     17  C   UNL A   1     -28.829   4.753  30.080  0.00  0.00    +0.054 A 
ATOM     18  C   UNL A   1     -29.664   5.339  29.309  0.00  0.00    +0.004 A 
ATOM     19  C   UNL A   1     -31.040   5.443  29.738  0.00  0.00    +0.000 A 
ATOM     20  C   UNL A   1     -31.419   4.907  30.990  0.00  0.00    +0.000 A 
ATOM     21  C   UNL A   1     -30.490   4.258  31.757  0.00  0.00    +0.000 A 
ATOM     22  C   UNL A   1     -29.206   4.171  31.361  0.00  0.00    +0.004 A 
ENDBRANCH   4  17
BRANCH   3  23
ATOM     23  C   UNL A   1     -26.400   5.338  31.628  0.00  0.00    +0.128 C 
BRANCH  23  24
ATOM     24  C   UNL A   1     -26.135   4.886  32.825  0.00  0.00    -0.004 C 
ATOM     25  C   UNL A   1     -25.679   3.992  33.289  0.00  0.00    -0.003 C 
ENDBRANCH  23  24
ENDBRANCH   3  23
TORSDOF 4
