MODEL 1757
MODEL 1
REMARK VINA RESULT:    -6.208      0.000      0.000
REMARK INTER + INTRA:          -6.973
REMARK INTER:                  -6.934
REMARK INTRA:                  -0.039
REMARK UNBOUND:                -0.039
REMARK  Name = No_1757-gen_results/8p0m/2024-11-26-14-13-15/
REMARK  2 active torsions:
REMARK  status: ('A' for Active; 'I' for Inactive)
REMARK    1  A    between atoms: N_11  and  C_12
REMARK    2  A    between atoms: C_12  and  C_13
REMARK                            x       y       z     vdW  Elec       q    Type
REMARK                         _______ _______ _______ _____ _____    ______ ____
ROOT
ATOM      1  C   UNL A   1     -23.824   1.641  25.745  0.00  0.00    +0.031 A 
ATOM      2  C   UNL A   1     -22.831   1.988  25.819  0.00  0.00    +0.140 A 
ATOM      3  C   UNL A   1     -24.256   0.672  26.823  0.00  0.00    +0.021 A 
ATOM      4  C   UNL A   1     -25.500  -0.055  26.868  0.00  0.00    +0.100 A 
ATOM      5  C   UNL A   1     -21.836   1.887  26.894  0.00  0.00    +0.030 A 
ATOM      6  C   UNL A   1     -22.170   1.040  27.929  0.00  0.00    +0.002 A 
ATOM      7  C   UNL A   1     -23.396   0.427  27.953  0.00  0.00    +0.004 A 
ATOM      8  N   UNL A   1     -25.691  -0.966  27.788  0.00  0.00    -0.228 NA
ATOM      9  C   UNL A   1     -24.914  -1.148  28.884  0.00  0.00    +0.148 A 
ATOM     10  C   UNL A   1     -23.671  -0.524  28.948  0.00  0.00    +0.036 A 
ATOM     11  N   UNL A   1     -25.269  -2.105  29.788  0.00  0.00    -0.208 NA
ATOM     12  F   UNL A   1     -22.408   2.939  24.837  0.00  0.00    -0.204 F 
ENDROOT
BRANCH  11  13
ATOM     13  C   UNL A   1     -25.578  -3.428  29.683  0.00  0.00    +0.227 C 
BRANCH  13  14
ATOM     14  C   UNL A   1     -24.566  -4.374  29.140  0.00  0.00    +0.387 C 
ATOM     15  O   UNL A   1     -24.987  -5.590  28.893  0.00  0.00    -0.244 OA
ATOM     16  O   UNL A   1     -23.466  -3.944  28.726  0.00  0.00    -0.244 OA
ENDBRANCH  13  14
ENDBRANCH  11  13
TORSDOF 2
ENDMDL
ENDMDL
