REMARK  Name = No_1757-gen_results/8p0m/2024-11-26-14-13-15/
REMARK  2 active torsions:
REMARK  status: ('A' for Active; 'I' for Inactive)
REMARK    1  A    between atoms: N_11  and  C_12
REMARK    2  A    between atoms: C_12  and  C_13
REMARK                            x       y       z     vdW  Elec       q    Type
REMARK                         _______ _______ _______ _____ _____    ______ ____
ROOT
ATOM      1  C   UNL A   1     -28.016  -0.814  28.878  0.00  0.00    +0.031 A 
ATOM      2  C   UNL A   1     -28.469  -0.785  29.829  0.00  0.00    +0.140 A 
ATOM      3  C   UNL A   1     -26.504  -0.778  28.877  0.00  0.00    +0.021 A 
ATOM      4  C   UNL A   1     -25.654  -0.660  27.719  0.00  0.00    +0.100 A 
ATOM      5  C   UNL A   1     -27.918  -0.937  31.182  0.00  0.00    +0.030 A 
ATOM      6  C   UNL A   1     -26.542  -0.940  31.261  0.00  0.00    +0.002 A 
ATOM      7  C   UNL A   1     -25.783  -0.893  30.120  0.00  0.00    +0.004 A 
ATOM      8  N   UNL A   1     -24.363  -0.503  27.869  0.00  0.00    -0.228 NA
ATOM      9  C   UNL A   1     -23.682  -0.678  29.028  0.00  0.00    +0.148 A 
ATOM     10  C   UNL A   1     -24.389  -0.774  30.224  0.00  0.00    +0.036 A 
ATOM     11  N   UNL A   1     -22.327  -0.533  29.021  0.00  0.00    -0.208 NA
ATOM     12  F   UNL A   1     -29.898  -0.861  29.863  0.00  0.00    -0.204 F 
ENDROOT
BRANCH  11  13
ATOM     13  C   UNL A   1     -21.489   0.446  28.577  0.00  0.00    +0.227 C 
BRANCH  13  14
ATOM     14  C   UNL A   1     -22.060   1.732  28.093  0.00  0.00    +0.387 C 
ATOM     15  O   UNL A   1     -21.607   2.167  26.943  0.00  0.00    -0.244 OA
ATOM     16  O   UNL A   1     -23.076   2.212  28.643  0.00  0.00    -0.244 OA
ENDBRANCH  13  14
ENDBRANCH  11  13
TORSDOF 2
