REMARK  Name = No_1758-gen_results/8p0m/2024-11-26-14-13-15/
REMARK  2 active torsions:
REMARK  status: ('A' for Active; 'I' for Inactive)
REMARK    1  A    between atoms: C_4  and  C_10
REMARK    2  A    between atoms: C_6  and  O_8
REMARK                            x       y       z     vdW  Elec       q    Type
REMARK                         _______ _______ _______ _____ _____    ______ ____
ROOT
ATOM      1  C   UNL A   1     -28.016  -0.814  28.878  0.00  0.00    +0.033 A 
ATOM      2  C   UNL A   1     -28.469  -0.785  29.829  0.00  0.00    +0.039 A 
ATOM      3  C   UNL A   1     -26.546  -0.876  28.850  0.00  0.00    +0.140 A 
ATOM      4  C   UNL A   1     -25.804  -1.032  30.057  0.00  0.00    +0.026 A 
ATOM      5  C   UNL A   1     -26.537  -1.039  31.217  0.00  0.00    +0.039 A 
ATOM      6  C   UNL A   1     -27.893  -0.960  31.174  0.00  0.00    +0.139 A 
ATOM      7  F   UNL A   1     -25.827  -0.851  27.742  0.00  0.00    -0.204 F 
ENDROOT
BRANCH   4   8
ATOM      8  C   UNL A   1     -24.375  -1.308  30.136  0.00  0.00    -0.024 C 
ATOM      9  C   UNL A   1     -23.527  -1.113  30.758  0.00  0.00    -0.030 C 
ATOM     10  C   UNL A   1     -23.845  -0.146  31.930  0.00  0.00    +0.030 C 
ATOM     11  C   UNL A   1     -23.981  -1.813  28.849  0.00  0.00    +0.031 C 
ENDBRANCH   4   8
BRANCH   6  12
ATOM     12  O   UNL A   1     -28.621  -0.935  32.347  0.00  0.00    -0.471 OA
ATOM     13  C   UNL A   1     -29.303  -1.962  32.709  0.00  0.00    +0.253 C 
ENDBRANCH   6  12
TORSDOF 2
