MODEL 1758
MODEL 1
REMARK VINA RESULT:    -5.394      0.000      0.000
REMARK INTER + INTRA:          -6.326
REMARK INTER:                  -6.024
REMARK INTRA:                  -0.302
REMARK UNBOUND:                -0.302
REMARK  Name = No_1758-gen_results/8p0m/2024-11-26-14-13-15/
REMARK  2 active torsions:
REMARK  status: ('A' for Active; 'I' for Inactive)
REMARK    1  A    between atoms: C_4  and  C_10
REMARK    2  A    between atoms: C_6  and  O_8
REMARK                            x       y       z     vdW  Elec       q    Type
REMARK                         _______ _______ _______ _____ _____    ______ ____
ROOT
ATOM      1  C   UNL A   1     -21.707  -0.159  28.919  0.00  0.00    +0.033 A 
ATOM      2  C   UNL A   1     -22.419  -0.934  28.989  0.00  0.00    +0.039 A 
ATOM      3  C   UNL A   1     -22.052   0.976  28.048  0.00  0.00    +0.140 A 
ATOM      4  C   UNL A   1     -23.344   1.067  27.454  0.00  0.00    +0.026 A 
ATOM      5  C   UNL A   1     -24.188   0.010  27.684  0.00  0.00    +0.039 A 
ATOM      6  C   UNL A   1     -23.801  -1.017  28.485  0.00  0.00    +0.139 A 
ATOM      7  F   UNL A   1     -21.242   1.990  27.803  0.00  0.00    -0.204 F 
ENDROOT
BRANCH   4   8
ATOM      8  C   UNL A   1     -23.864   2.231  26.747  0.00  0.00    -0.024 C 
ATOM      9  C   UNL A   1     -23.742   2.765  25.829  0.00  0.00    -0.030 C 
ATOM     10  C   UNL A   1     -22.575   2.221  24.962  0.00  0.00    +0.030 C 
ATOM     11  C   UNL A   1     -24.613   2.995  27.707  0.00  0.00    +0.031 C 
ENDBRANCH   4   8
BRANCH   6  12
ATOM     12  O   UNL A   1     -24.644  -2.093  28.685  0.00  0.00    -0.471 OA
ATOM     13  C   UNL A   1     -24.192  -3.185  29.189  0.00  0.00    +0.253 C 
ENDBRANCH   6  12
TORSDOF 2
ENDMDL
ENDMDL
