REMARK  Name = No_1759-gen_results/8p0m/2024-11-26-14-13-15/
REMARK  2 active torsions:
REMARK  status: ('A' for Active; 'I' for Inactive)
REMARK    1  A    between atoms: C_3  and  C_14
REMARK    2  A    between atoms: C_5  and  C_11
REMARK                            x       y       z     vdW  Elec       q    Type
REMARK                         _______ _______ _______ _____ _____    ______ ____
ROOT
ATOM      1  C   UNL A   1     -28.016  -0.814  28.878  0.00  0.00    +0.000 A 
ATOM      2  C   UNL A   1     -27.064  -0.119  28.608  0.00  0.00    +0.004 A 
ATOM      3  C   UNL A   1     -26.972   0.714  27.506  0.00  0.00    +0.055 A 
ATOM      4  C   UNL A   1     -25.820   1.491  27.116  0.00  0.00    +0.013 A 
ATOM      5  C   UNL A   1     -24.656   1.424  27.918  0.00  0.00    +0.098 A 
ATOM      6  C   UNL A   1     -24.685   0.590  29.066  0.00  0.00    +0.008 A 
ATOM      7  C   UNL A   1     -25.810  -0.127  29.334  0.00  0.00    +0.000 A 
ATOM      8  C   UNL A   1     -28.044  -1.573  30.169  0.00  0.00    +0.000 A 
ATOM      9  C   UNL A   1     -26.817  -1.760  30.870  0.00  0.00    +0.000 A 
ATOM     10  C   UNL A   1     -25.748  -0.992  30.538  0.00  0.00    +0.000 A 
ENDROOT
BRANCH   3  11
ATOM     11  C   UNL A   1     -28.089   0.841  26.544  0.00  0.00    +0.265 C 
ATOM     12  N   UNL A   1     -27.973   0.824  25.316  0.00  0.00    -0.200 NA
ATOM     13  O   UNL A   1     -29.242   0.480  27.031  0.00  0.00    -0.268 OA
ATOM     14  C   UNL A   1     -28.950   0.799  24.293  0.00  0.00    +0.139 C 
ENDBRANCH   3  11
BRANCH   5  15
ATOM     15  C   UNL A   1     -23.350   1.841  27.543  0.00  0.00    +0.477 C 
ATOM     16  N   UNL A   1     -22.241   1.653  28.244  0.00  0.00    +0.205 NA
ATOM     17  N   UNL A   1     -23.236   2.692  26.427  0.00  0.00    +0.205 NA
ENDBRANCH   5  15
TORSDOF 2
