MODEL 175
MODEL 1
REMARK VINA RESULT:    -5.703      0.000      0.000
REMARK INTER + INTRA:         -12.433
REMARK INTER:                  -9.704
REMARK INTRA:                  -2.730
REMARK UNBOUND:                -2.730
REMARK  Name = No_175-gen_results/8p0m/2024-11-26-14-13-15/
REMARK  12 active torsions:
REMARK  status: ('A' for Active; 'I' for Inactive)
REMARK    1  A    between atoms: C_4  and  C_7
REMARK    2  A    between atoms: C_6  and  C_12
REMARK    3  A    between atoms: C_7  and  C_9
REMARK    4  A    between atoms: C_9  and  C_10
REMARK    5  A    between atoms: C_10  and  C_15
REMARK    6  A    between atoms: C_16  and  C_17
REMARK    7  A    between atoms: N_18  and  C_20
REMARK    8  A    between atoms: C_20  and  C_21
REMARK    9  A    between atoms: C_21  and  C_23
REMARK   10  A    between atoms: C_23  and  C_24
REMARK   11  A    between atoms: C_24  and  C_26
REMARK   12  A    between atoms: C_26  and  C_27
REMARK                            x       y       z     vdW  Elec       q    Type
REMARK                         _______ _______ _______ _____ _____    ______ ____
ROOT
ATOM      1  C   UNL A   1     -28.750 -12.498   7.057  0.00  0.00    -0.021 C 
ATOM      2  C   UNL A   1     -27.743 -12.100   7.970  0.00  0.00    +0.055 C 
ENDROOT
BRANCH   2   3
ATOM      3  C   UNL A   1     -27.393 -10.740   8.207  0.00  0.00    +0.265 C 
ATOM      4  N   UNL A   1     -27.868  -9.752   7.502  0.00  0.00    -0.200 NA
ATOM      5  O   UNL A   1     -26.614 -10.455   9.152  0.00  0.00    -0.268 OA
BRANCH   4   6
ATOM      6  C   UNL A   1     -27.554  -8.346   7.693  0.00  0.00    +0.132 C 
BRANCH   6   7
ATOM      7  C   UNL A   1     -28.408  -7.508   7.907  0.00  0.00    +0.102 C 
ATOM      8 CL   UNL A   1     -29.000  -7.081   6.969  0.00  0.00    -0.113 Cl
BRANCH   7   9
ATOM      9  C   UNL A   1     -28.670  -7.217   9.345  0.00  0.00    +0.018 C 
BRANCH   9  10
ATOM     10  C   UNL A   1     -30.015  -7.626   9.817  0.00  0.00    +0.006 C 
ATOM     11  C   UNL A   1     -30.763  -6.585  10.473  0.00  0.00    +0.000 C 
BRANCH  10  12
ATOM     12  C   UNL A   1     -30.513  -8.858   9.718  0.00  0.00    +0.026 C 
BRANCH  12  13
ATOM     13  C   UNL A   1     -31.444  -9.353  10.631  0.00  0.00    -0.031 C 
ATOM     14  C   UNL A   1     -31.202 -10.583  11.149  0.00  0.00    -0.030 C 
ATOM     15  C   UNL A   1     -30.134 -11.320  10.706  0.00  0.00    +0.030 C 
ENDBRANCH  12  13
ENDBRANCH  10  12
ENDBRANCH   9  10
ENDBRANCH   7   9
ENDBRANCH   6   7
ENDBRANCH   4   6
ENDBRANCH   2   3
BRANCH   1  16
ATOM     16  C   UNL A   1     -29.065 -13.784   6.656  0.00  0.00    +0.026 C 
BRANCH  16  17
ATOM     17  C   UNL A   1     -28.387 -14.913   7.025  0.00  0.00    +0.009 C 
BRANCH  17  18
ATOM     18  C   UNL A   1     -28.945 -15.897   7.924  0.00  0.00    +0.024 C 
ATOM     19  C   UNL A   1     -28.754 -17.204   7.600  0.00  0.00    +0.005 C 
BRANCH  18  23
ATOM     20  C   UNL A   1     -32.132 -15.351   9.957  0.00  0.00    +0.011 A 
ATOM     21  C   UNL A   1     -31.638 -15.127  10.860  0.00  0.00    +0.007 A 
ATOM     22  C   UNL A   1     -31.284 -15.511   8.765  0.00  0.00    +0.054 A 
ATOM     23  C   UNL A   1     -29.864 -15.499   8.878  0.00  0.00    -0.012 A 
ATOM     24  C   UNL A   1     -29.363 -15.255  10.132  0.00  0.00    +0.003 A 
ATOM     25  C   UNL A   1     -30.188 -15.090  11.188  0.00  0.00    +0.080 A 
ATOM     26 CL   UNL A   1     -31.874 -15.799   7.152  0.00  0.00    -0.083 Cl
BRANCH  25  27
ATOM     27  C   UNL A   1     -29.686 -14.823  12.590  0.00  0.00    +0.388 C 
ATOM     28  O   UNL A   1     -28.972 -15.594  13.085  0.00  0.00    -0.241 OA
ATOM     29  O   UNL A   1     -30.181 -13.803  13.193  0.00  0.00    -0.241 OA
ENDBRANCH  25  27
ENDBRANCH  18  23
ENDBRANCH  17  18
ENDBRANCH  16  17
ENDBRANCH   1  16
TORSDOF 12
ENDMDL
ENDMDL
