REMARK  Name = No_1760-gen_results/8p0m/2024-11-26-14-13-15/
REMARK  2 active torsions:
REMARK  status: ('A' for Active; 'I' for Inactive)
REMARK    1  A    between atoms: C_3  and  C_4
REMARK    2  A    between atoms: C_4  and  C_8
REMARK                            x       y       z     vdW  Elec       q    Type
REMARK                         _______ _______ _______ _____ _____    ______ ____
ROOT
ATOM      1  C   UNL A   1     -26.252   0.411  27.422  0.00  0.00    +0.053 C 
ENDROOT
BRANCH   1   4
ATOM      2  C   UNL A   1     -28.016  -0.814  28.878  0.00  0.00    -0.004 A 
ATOM      3  C   UNL A   1     -28.469  -0.785  29.829  0.00  0.00    -0.000 A 
ATOM      4  C   UNL A   1     -27.087   0.290  28.638  0.00  0.00    -0.018 A 
ATOM      5  C   UNL A   1     -28.391   0.104  30.980  0.00  0.00    -0.000 A 
ATOM      6  C   UNL A   1     -27.533   1.167  30.787  0.00  0.00    -0.000 A 
ATOM      7  C   UNL A   1     -26.828   1.256  29.645  0.00  0.00    -0.004 A 
ENDBRANCH   1   4
BRANCH   1   8
ATOM      8  C   UNL A   1     -25.138   0.675  27.231  0.00  0.00    -0.018 A 
ATOM      9  C   UNL A   1     -24.316   0.867  28.442  0.00  0.00    -0.004 A 
ATOM     10  C   UNL A   1     -22.939   1.296  28.077  0.00  0.00    -0.000 A 
ATOM     11  C   UNL A   1     -22.616   1.859  26.886  0.00  0.00    -0.000 A 
ATOM     12  C   UNL A   1     -23.521   1.827  25.860  0.00  0.00    -0.000 A 
ATOM     13  C   UNL A   1     -24.747   1.278  26.018  0.00  0.00    -0.004 A 
ENDBRANCH   1   8
TORSDOF 2
