REMARK  Name = No_1761-gen_results/8p0m/2024-11-26-14-13-15/
REMARK  5 active torsions:
REMARK  status: ('A' for Active; 'I' for Inactive)
REMARK    1  A    between atoms: C_2  and  C_7
REMARK    2  A    between atoms: C_6  and  C_13
REMARK    3  A    between atoms: N_14  and  C_15
REMARK    4  A    between atoms: C_15  and  C_17
REMARK    5  A    between atoms: C_16  and  C_18
REMARK                            x       y       z     vdW  Elec       q    Type
REMARK                         _______ _______ _______ _____ _____    ______ ____
ROOT
ATOM      1  C   UNL A   1     -29.062  -2.780  30.212  0.00  0.00    +0.099 C 
ATOM      2  N   UNL A   1     -28.959  -4.050  30.530  0.00  0.00    -0.240 NA
ENDROOT
BRANCH   1   8
ATOM      3  C   UNL A   1     -28.016  -0.814  28.878  0.00  0.00    +0.002 A 
ATOM      4  C   UNL A   1     -27.064  -0.119  28.608  0.00  0.00    +0.000 A 
ATOM      5  C   UNL A   1     -25.792  -0.430  29.076  0.00  0.00    +0.000 A 
ATOM      6  C   UNL A   1     -25.576  -1.565  29.936  0.00  0.00    +0.000 A 
ATOM      7  C   UNL A   1     -26.735  -2.300  30.217  0.00  0.00    +0.002 A 
ATOM      8  C   UNL A   1     -27.918  -1.954  29.763  0.00  0.00    +0.019 A 
BRANCH   4   9
ATOM      9  C   UNL A   1     -27.106   1.102  27.759  0.00  0.00    +0.000 A 
ATOM     10  C   UNL A   1     -26.716   2.235  27.994  0.00  0.00    +0.000 A 
ATOM     11  C   UNL A   1     -26.693   3.346  27.034  0.00  0.00    +0.000 A 
ATOM     12  C   UNL A   1     -27.196   3.078  25.744  0.00  0.00    +0.000 A 
ATOM     13  C   UNL A   1     -27.581   0.888  26.371  0.00  0.00    +0.000 A 
ATOM     14  C   UNL A   1     -27.613   1.844  25.465  0.00  0.00    +0.000 A 
ENDBRANCH   4   9
ENDBRANCH   1   8
BRANCH   2  15
ATOM     15  C   UNL A   1     -29.718  -4.799  30.554  0.00  0.00    +0.151 C 
ATOM     16  C   UNL A   1     -29.901  -5.782  31.550  0.00  0.00    +0.026 C 
BRANCH  16  17
ATOM     17  C   UNL A   1     -29.191  -5.678  32.784  0.00  0.00    +0.143 C 
ATOM     18  C   UNL A   1     -29.636  -6.517  33.859  0.00  0.00    +0.060 C 
ATOM     19  C   UNL A   1     -29.331  -6.222  35.119  0.00  0.00    -0.025 C 
ATOM     20  C   UNL A   1     -29.048  -4.861  35.414  0.00  0.00    +0.001 C 
ATOM     21  C   UNL A   1     -29.029  -3.915  34.359  0.00  0.00    +0.168 C 
ATOM     22  O   UNL A   1     -29.617  -4.241  33.158  0.00  0.00    -0.347 OA
ENDBRANCH  16  17
BRANCH  15  23
ATOM     23  C   UNL A   1     -30.609  -5.081  29.382  0.00  0.00    +0.435 C 
ATOM     24  F   UNL A   1     -30.999  -6.277  29.206  0.00  0.00    -0.164 F 
ATOM     25  F   UNL A   1     -29.869  -4.723  28.295  0.00  0.00    -0.164 F 
ATOM     26  F   UNL A   1     -31.634  -4.261  29.407  0.00  0.00    -0.164 F 
ENDBRANCH  15  23
ENDBRANCH   2  15
TORSDOF 5
