MODEL 1761
MODEL 1
REMARK VINA RESULT:    -8.019      0.000      0.000
REMARK INTER + INTRA:         -11.411
REMARK INTER:                 -10.363
REMARK INTRA:                  -1.048
REMARK UNBOUND:                -1.048
REMARK  Name = No_1761-gen_results/8p0m/2024-11-26-14-13-15/
REMARK  5 active torsions:
REMARK  status: ('A' for Active; 'I' for Inactive)
REMARK    1  A    between atoms: C_2  and  C_7
REMARK    2  A    between atoms: C_6  and  C_13
REMARK    3  A    between atoms: N_14  and  C_15
REMARK    4  A    between atoms: C_15  and  C_17
REMARK    5  A    between atoms: C_16  and  C_18
REMARK                            x       y       z     vdW  Elec       q    Type
REMARK                         _______ _______ _______ _____ _____    ______ ____
ROOT
ATOM      1  C   UNL A   1     -24.586   0.314  26.440  0.00  0.00    +0.099 C 
ATOM      2  N   UNL A   1     -24.487   0.032  27.719  0.00  0.00    -0.240 NA
ENDROOT
BRANCH   1   8
ATOM      3  C   UNL A   1     -26.782   0.760  25.130  0.00  0.00    +0.002 A 
ATOM      4  C   UNL A   1     -27.649   1.520  24.764  0.00  0.00    +0.000 A 
ATOM      5  C   UNL A   1     -27.539   2.890  24.974  0.00  0.00    +0.000 A 
ATOM      6  C   UNL A   1     -26.410   3.443  25.677  0.00  0.00    +0.000 A 
ATOM      7  C   UNL A   1     -25.467   2.492  26.086  0.00  0.00    +0.002 A 
ATOM      8  C   UNL A   1     -25.626   1.205  25.877  0.00  0.00    +0.019 A 
BRANCH   4   9
ATOM      9  C   UNL A   1     -28.892   1.123  24.050  0.00  0.00    +0.000 A 
ATOM     10  C   UNL A   1     -29.414   0.025  23.933  0.00  0.00    +0.000 A 
ATOM     11  C   UNL A   1     -30.716  -0.239  23.307  0.00  0.00    +0.000 A 
ATOM     12  C   UNL A   1     -31.397   0.873  22.770  0.00  0.00    +0.000 A 
ATOM     13  C   UNL A   1     -29.688   2.246  23.498  0.00  0.00    +0.000 A 
ATOM     14  C   UNL A   1     -30.850   2.081  22.901  0.00  0.00    +0.000 A 
ENDBRANCH   4   9
ENDBRANCH   1   8
BRANCH   2  15
ATOM     15  C   UNL A   1     -23.638  -0.313  28.265  0.00  0.00    +0.151 C 
ATOM     16  C   UNL A   1     -23.505  -1.558  28.916  0.00  0.00    +0.026 C 
BRANCH  16  17
ATOM     17  C   UNL A   1     -24.456  -2.593  28.664  0.00  0.00    +0.143 C 
ATOM     18  C   UNL A   1     -25.474  -2.792  29.654  0.00  0.00    +0.060 C 
ATOM     19  C   UNL A   1     -26.135  -3.943  29.724  0.00  0.00    -0.025 C 
ATOM     20  C   UNL A   1     -25.487  -5.094  29.200  0.00  0.00    +0.001 C 
ATOM     21  C   UNL A   1     -24.226  -4.949  28.570  0.00  0.00    +0.168 C 
ATOM     22  O   UNL A   1     -23.499  -3.800  28.784  0.00  0.00    -0.347 OA
ENDBRANCH  16  17
BRANCH  15  23
ATOM     23  C   UNL A   1     -22.497   0.586  28.634  0.00  0.00    +0.435 C 
ATOM     24  F   UNL A   1     -21.959   1.273  27.711  0.00  0.00    -0.164 F 
ATOM     25  F   UNL A   1     -21.546  -0.255  29.131  0.00  0.00    -0.164 F 
ATOM     26  F   UNL A   1     -22.855   1.357  29.634  0.00  0.00    -0.164 F 
ENDBRANCH  15  23
ENDBRANCH   2  15
TORSDOF 5
ENDMDL
ENDMDL
