MODEL 1762
MODEL 1
REMARK VINA RESULT:    -4.301      0.000      0.000
REMARK INTER + INTRA:          -4.301
REMARK INTER:                  -4.301
REMARK INTRA:                   0.000
REMARK UNBOUND:                 0.000
REMARK  Name = No_1762-gen_results/8p0m/2024-11-26-14-13-15/
REMARK  0 active torsions:
REMARK  status: ('A' for Active; 'I' for Inactive)
REMARK                            x       y       z     vdW  Elec       q    Type
REMARK                         _______ _______ _______ _____ _____    ______ ____
ROOT
ATOM      1  C   UNL A   1     -24.965  -5.394  28.984  0.00  0.00    +0.000 A 
ATOM      2  C   UNL A   1     -24.194  -4.720  28.735  0.00  0.00    +0.000 A 
ATOM      3  C   UNL A   1     -26.122  -4.755  29.610  0.00  0.00    +0.000 A 
ATOM      4  C   UNL A   1     -26.181  -3.400  29.822  0.00  0.00    +0.000 A 
ATOM      5  C   UNL A   1     -23.986  -3.276  28.834  0.00  0.00    +0.000 A 
ATOM      6  C   UNL A   1     -25.100  -2.647  29.439  0.00  0.00    +0.000 A 
ENDROOT
TORSDOF 0
ENDMDL
ENDMDL
