REMARK  Name = No_1763-gen_results/8p0m/2024-11-26-14-13-15/
REMARK  1 active torsions:
REMARK  status: ('A' for Active; 'I' for Inactive)
REMARK    1  A    between atoms: C_3  and  C_7
REMARK                            x       y       z     vdW  Elec       q    Type
REMARK                         _______ _______ _______ _____ _____    ______ ____
ROOT
ATOM      1  C   UNL A   1     -28.016  -0.814  28.878  0.00  0.00    +0.030 A 
ATOM      2  C   UNL A   1     -27.064  -0.119  28.608  0.00  0.00    +0.002 A 
ATOM      3  C   UNL A   1     -25.765  -0.390  29.036  0.00  0.00    +0.000 A 
ATOM      4  C   UNL A   1     -25.530  -1.530  29.901  0.00  0.00    +0.002 A 
ATOM      5  C   UNL A   1     -26.658  -2.292  30.203  0.00  0.00    +0.030 A 
ATOM      6  C   UNL A   1     -27.855  -1.956  29.763  0.00  0.00    +0.140 A 
ATOM      7  F   UNL A   1     -28.897  -2.726  30.077  0.00  0.00    -0.204 F 
ENDROOT
BRANCH   3   8
ATOM      8  C   UNL A   1     -24.705   0.577  28.794  0.00  0.00    +0.000 A 
ATOM      9  C   UNL A   1     -24.552   1.212  27.660  0.00  0.00    +0.000 A 
ATOM     10  C   UNL A   1     -23.404   2.025  27.384  0.00  0.00    +0.000 A 
ATOM     11  C   UNL A   1     -22.255   1.890  28.133  0.00  0.00    +0.000 A 
ATOM     12  C   UNL A   1     -23.419   0.449  29.557  0.00  0.00    +0.000 A 
ATOM     13  C   UNL A   1     -22.258   1.098  29.219  0.00  0.00    +0.000 A 
ENDBRANCH   3   8
TORSDOF 1
