MODEL 1763
MODEL 1
REMARK VINA RESULT:    -6.817      0.000      0.000
REMARK INTER + INTRA:          -7.563
REMARK INTER:                  -7.215
REMARK INTRA:                  -0.347
REMARK UNBOUND:                -0.347
REMARK  Name = No_1763-gen_results/8p0m/2024-11-26-14-13-15/
REMARK  1 active torsions:
REMARK  status: ('A' for Active; 'I' for Inactive)
REMARK    1  A    between atoms: C_3  and  C_7
REMARK                            x       y       z     vdW  Elec       q    Type
REMARK                         _______ _______ _______ _____ _____    ______ ____
ROOT
ATOM      1  C   UNL A   1     -23.820   0.690  27.828  0.00  0.00    +0.030 A 
ATOM      2  C   UNL A   1     -24.311  -0.335  28.242  0.00  0.00    +0.002 A 
ATOM      3  C   UNL A   1     -23.606  -1.285  28.981  0.00  0.00    +0.000 A 
ATOM      4  C   UNL A   1     -22.192  -1.079  29.228  0.00  0.00    +0.002 A 
ATOM      5  C   UNL A   1     -21.663   0.105  28.716  0.00  0.00    +0.030 A 
ATOM      6  C   UNL A   1     -22.402   0.945  28.017  0.00  0.00    +0.140 A 
ATOM      7  F   UNL A   1     -21.845   2.066  27.558  0.00  0.00    -0.204 F 
ENDROOT
BRANCH   3   8
ATOM      8  C   UNL A   1     -24.230  -2.557  29.310  0.00  0.00    +0.000 A 
ATOM      9  C   UNL A   1     -23.904  -3.690  28.741  0.00  0.00    +0.000 A 
ATOM     10  C   UNL A   1     -24.648  -4.897  28.952  0.00  0.00    +0.000 A 
ATOM     11  C   UNL A   1     -25.928  -4.850  29.459  0.00  0.00    +0.000 A 
ATOM     12  C   UNL A   1     -25.638  -2.561  29.829  0.00  0.00    +0.000 A 
ATOM     13  C   UNL A   1     -26.429  -3.681  29.895  0.00  0.00    +0.000 A 
ENDBRANCH   3   8
TORSDOF 1
ENDMDL
ENDMDL
