REMARK  Name = No_1764-gen_results/8p0m/2024-11-26-14-13-15/
REMARK  2 active torsions:
REMARK  status: ('A' for Active; 'I' for Inactive)
REMARK    1  A    between atoms: C_6  and  O_7
REMARK    2  A    between atoms: O_7  and  C_9
REMARK                            x       y       z     vdW  Elec       q    Type
REMARK                         _______ _______ _______ _____ _____    ______ ____
ROOT
ATOM      1  C   UNL A   1     -28.016  -0.814  28.878  0.00  0.00    +0.038 A 
ATOM      2  C   UNL A   1     -27.064  -0.119  28.608  0.00  0.00    +0.015 A 
ATOM      3  C   UNL A   1     -25.792  -0.430  29.076  0.00  0.00    +0.058 A 
ATOM      4  C   UNL A   1     -25.576  -1.565  29.936  0.00  0.00    +0.015 A 
ATOM      5  C   UNL A   1     -26.735  -2.300  30.217  0.00  0.00    +0.038 A 
ATOM      6  C   UNL A   1     -27.918  -1.954  29.763  0.00  0.00    +0.146 A 
ATOM      7 CL   UNL A   1     -24.487   0.653  28.723  0.00  0.00    -0.082 Cl
ENDROOT
BRANCH   6   8
ATOM      8  O   UNL A   1     -29.000  -2.701  30.115  0.00  0.00    -0.446 OA
BRANCH   8   9
ATOM      9  C   UNL A   1     -30.095  -2.093  30.618  0.00  0.00    +0.240 C 
ATOM     10  C   UNL A   1     -30.712  -2.875  31.579  0.00  0.00    +0.316 C 
ATOM     11  F   UNL A   1     -30.612  -3.954  31.723  0.00  0.00    -0.169 F 
ATOM     12  F   UNL A   1     -30.362  -2.316  32.859  0.00  0.00    -0.169 F 
ENDBRANCH   8   9
ENDBRANCH   6   8
TORSDOF 2
