MODEL 1764
MODEL 1
REMARK VINA RESULT:    -5.698      0.000      0.000
REMARK INTER + INTRA:          -6.526
REMARK INTER:                  -6.364
REMARK INTRA:                  -0.162
REMARK UNBOUND:                -0.162
REMARK  Name = No_1764-gen_results/8p0m/2024-11-26-14-13-15/
REMARK  2 active torsions:
REMARK  status: ('A' for Active; 'I' for Inactive)
REMARK    1  A    between atoms: C_6  and  O_7
REMARK    2  A    between atoms: O_7  and  C_9
REMARK                            x       y       z     vdW  Elec       q    Type
REMARK                         _______ _______ _______ _____ _____    ______ ____
ROOT
ATOM      1  C   UNL A   1     -24.115  -3.993  28.876  0.00  0.00    +0.038 A 
ATOM      2  C   UNL A   1     -25.145  -4.554  29.170  0.00  0.00    +0.015 A 
ATOM      3  C   UNL A   1     -26.216  -3.852  29.710  0.00  0.00    +0.058 A 
ATOM      4  C   UNL A   1     -26.116  -2.441  29.981  0.00  0.00    +0.015 A 
ATOM      5  C   UNL A   1     -24.882  -1.877  29.633  0.00  0.00    +0.038 A 
ATOM      6  C   UNL A   1     -23.894  -2.588  29.140  0.00  0.00    +0.146 A 
ATOM      7 CL   UNL A   1     -27.632  -4.730  30.187  0.00  0.00    -0.082 Cl
ENDROOT
BRANCH   6   8
ATOM      8  O   UNL A   1     -22.714  -1.969  28.864  0.00  0.00    -0.446 OA
BRANCH   8   9
ATOM      9  C   UNL A   1     -22.497  -0.716  29.315  0.00  0.00    +0.240 C 
ATOM     10  C   UNL A   1     -21.296  -0.211  28.849  0.00  0.00    +0.316 C 
ATOM     11  F   UNL A   1     -20.440  -0.774  28.467  0.00  0.00    -0.169 F 
ATOM     12  F   UNL A   1     -21.615   0.706  27.785  0.00  0.00    -0.169 F 
ENDBRANCH   8   9
ENDBRANCH   6   8
TORSDOF 2
ENDMDL
ENDMDL
