MODEL 1765
MODEL 1
REMARK VINA RESULT:    -6.463      0.000      0.000
REMARK INTER + INTRA:          -7.157
REMARK INTER:                  -6.841
REMARK INTRA:                  -0.316
REMARK UNBOUND:                -0.316
REMARK  Name = No_1765-gen_results/8p0m/2024-11-26-14-13-15/
REMARK  1 active torsions:
REMARK  status: ('A' for Active; 'I' for Inactive)
REMARK    1  A    between atoms: C_3  and  C_7
REMARK                            x       y       z     vdW  Elec       q    Type
REMARK                         _______ _______ _______ _____ _____    ______ ____
ROOT
ATOM      1  C   UNL A   1     -26.555  -3.555  29.957  0.00  0.00    +0.000 A 
ATOM      2  C   UNL A   1     -25.891  -2.576  29.706  0.00  0.00    +0.000 A 
ATOM      3  C   UNL A   1     -24.662  -2.625  29.049  0.00  0.00    +0.000 A 
ATOM      4  C   UNL A   1     -24.105  -3.915  28.689  0.00  0.00    +0.000 A 
ATOM      5  C   UNL A   1     -24.932  -5.012  29.021  0.00  0.00    +0.000 A 
ATOM      6  C   UNL A   1     -26.072  -4.867  29.647  0.00  0.00    +0.000 A 
ENDROOT
BRANCH   3   7
ATOM      7  C   UNL A   1     -23.799  -1.466  28.698  0.00  0.00    +0.000 A 
ATOM      8  C   UNL A   1     -22.657  -1.252  29.298  0.00  0.00    +0.000 A 
ATOM      9  C   UNL A   1     -21.872  -0.091  28.993  0.00  0.00    +0.000 A 
ATOM     10  C   UNL A   1     -22.316   0.914  28.196  0.00  0.00    +0.000 A 
ATOM     11  C   UNL A   1     -24.304  -0.410  27.842  0.00  0.00    +0.000 A 
ATOM     12  C   UNL A   1     -23.541   0.766  27.607  0.00  0.00    +0.000 A 
ENDBRANCH   3   7
TORSDOF 1
ENDMDL
ENDMDL
