REMARK  Name = No_1766-gen_results/8p0m/2024-11-26-14-13-15/
REMARK  8 active torsions:
REMARK  status: ('A' for Active; 'I' for Inactive)
REMARK    1  A    between atoms: C_5  and  O_13
REMARK    2  A    between atoms: C_7  and  C_8
REMARK    3  A    between atoms: C_8  and  C_10
REMARK    4  A    between atoms: C_10  and  C_11
REMARK    5  A    between atoms: O_13  and  C_15
REMARK    6  A    between atoms: C_15  and  C_16
REMARK    7  A    between atoms: C_16  and  C_17
REMARK    8  A    between atoms: C_18  and  C_19
REMARK                            x       y       z     vdW  Elec       q    Type
REMARK                         _______ _______ _______ _____ _____    ______ ____
ROOT
ATOM      1  C   UNL A   1     -28.016  -0.814  28.878  0.00  0.00    +0.024 C 
ATOM      2  C   UNL A   1     -28.469  -0.785  29.829  0.00  0.00    +0.031 C 
ATOM      3  C   UNL A   1     -26.504  -0.778  28.877  0.00  0.00    +0.094 C 
ATOM      4  N   UNL A   1     -25.855  -1.653  29.614  0.00  0.00    -0.277 N 
ATOM      5  C   UNL A   1     -28.138  -1.889  30.903  0.00  0.00    +0.111 C 
ATOM      6  C   UNL A   1     -26.596  -2.037  30.853  0.00  0.00    +0.120 C 
ATOM      7  C   UNL A   1     -24.619  -2.118  29.426  0.00  0.00    +0.226 C 
ATOM      8  O   UNL A   1     -24.391  -3.225  28.837  0.00  0.00    -0.275 OA
ATOM      9  C   UNL A   1     -28.462  -1.576  32.377  0.00  0.00    +0.031 C 
ENDROOT
BRANCH   7  10
ATOM     10  C   UNL A   1     -23.488  -1.474  30.092  0.00  0.00    +0.085 C 
BRANCH  10  11
ATOM     11  C   UNL A   1     -22.569  -0.816  29.164  0.00  0.00    +0.010 C 
BRANCH  11  12
ATOM     12  C   UNL A   1     -22.024   0.503  29.574  0.00  0.00    +0.001 C 
ATOM     13  C   UNL A   1     -21.826   1.225  28.326  0.00  0.00    +0.000 C 
ENDBRANCH  11  12
ENDBRANCH  10  11
ENDBRANCH   7  10
BRANCH   5  14
ATOM     14  O   UNL A   1     -28.671  -3.132  30.607  0.00  0.00    -0.356 OA
BRANCH  14  15
ATOM     15  C   UNL A   1     -28.505  -4.222  31.345  0.00  0.00    +0.147 C 
BRANCH  15  16
ATOM     16  C   UNL A   1     -29.842  -5.157  31.192  0.00  0.00    +0.058 C 
BRANCH  16  17
ATOM     17  C   UNL A   1     -30.087  -5.845  32.210  0.00  0.00    -0.024 C 
ATOM     18  C   UNL A   1     -30.146  -5.457  33.371  0.00  0.00    -0.004 C 
BRANCH  18  19
ATOM     19  C   UNL A   1     -30.468  -6.302  34.544  0.00  0.00    -0.000 C 
ATOM     20  C   UNL A   1     -30.796  -7.599  34.284  0.00  0.00    -0.000 C 
ENDBRANCH  18  19
ENDBRANCH  16  17
ENDBRANCH  15  16
ENDBRANCH  14  15
ENDBRANCH   5  14
TORSDOF 8
