REMARK  Name = No_1767-gen_results/8p0m/2024-11-26-14-13-15/
REMARK  6 active torsions:
REMARK  status: ('A' for Active; 'I' for Inactive)
REMARK    1  A    between atoms: C_1  and  C_2
REMARK    2  A    between atoms: C_1  and  N_8
REMARK    3  A    between atoms: C_4  and  C_21
REMARK    4  A    between atoms: C_5  and  C_12
REMARK    5  A    between atoms: C_9  and  C_10
REMARK    6  A    between atoms: N_13  and  C_18
REMARK                            x       y       z     vdW  Elec       q    Type
REMARK                         _______ _______ _______ _____ _____    ______ ____
ROOT
ATOM      1  C   UNL A   1     -27.064  -0.119  28.608  0.00  0.00    -0.000 A 
ATOM      2  C   UNL A   1     -26.929   1.171  29.008  0.00  0.00    +0.004 A 
ATOM      3  C   UNL A   1     -25.770   2.034  28.688  0.00  0.00    +0.081 A 
ATOM      4  C   UNL A   1     -24.714   1.443  27.919  0.00  0.00    +0.020 A 
ATOM      5  C   UNL A   1     -24.859   0.078  27.584  0.00  0.00    +0.001 A 
ATOM      6  C   UNL A   1     -25.965  -0.661  27.916  0.00  0.00    -0.003 A 
ENDROOT
BRANCH   4   7
ATOM      7  C   UNL A   1     -23.528   2.178  27.565  0.00  0.00    +0.059 C 
ATOM      8  N   UNL A   1     -22.380   2.195  27.766  0.00  0.00    -0.227 NA
ATOM      9  C   UNL A   1     -23.864   3.082  26.336  0.00  0.00    +0.052 C 
BRANCH   8  10
ATOM     10  C   UNL A   1     -21.944   1.282  28.749  0.00  0.00    +0.359 C 
ATOM     11  F   UNL A   1     -22.552   1.127  29.729  0.00  0.00    -0.188 F 
ATOM     12  N   UNL A   1     -21.560  -0.016  28.061  0.00  0.00    -0.070 NA
ENDBRANCH   8  10
ENDBRANCH   4   7
BRANCH   3  13
ATOM     13  C   UNL A   1     -25.676   3.412  29.099  0.00  0.00    +0.388 C 
ATOM     14  O   UNL A   1     -24.979   3.717  29.981  0.00  0.00    -0.241 OA
ATOM     15  O   UNL A   1     -26.578   4.182  28.624  0.00  0.00    -0.241 OA
ENDBRANCH   3  13
BRANCH   1  16
ATOM     16  C   UNL A   1     -28.016  -0.814  28.878  0.00  0.00    +0.142 C 
BRANCH  16  17
ATOM     17  N   UNL A   1     -28.703  -0.643  30.075  0.00  0.00    -0.194 NA
ATOM     18  C   UNL A   1     -29.572  -1.083  30.628  0.00  0.00    +0.337 C 
ATOM     19  O   UNL A   1     -30.113  -0.704  31.773  0.00  0.00    -0.264 OA
BRANCH  18  20
ATOM     20  C   UNL A   1     -30.249  -2.191  30.052  0.00  0.00    +0.471 C 
ATOM     21  F   UNL A   1     -31.246  -2.591  31.086  0.00  0.00    -0.162 F 
ATOM     22  F   UNL A   1     -30.904  -1.880  29.045  0.00  0.00    -0.162 F 
ATOM     23  F   UNL A   1     -29.505  -3.232  29.913  0.00  0.00    -0.162 F 
ENDBRANCH  18  20
ENDBRANCH  16  17
ENDBRANCH   1  16
TORSDOF 6
