MODEL 1767
MODEL 1
REMARK VINA RESULT:    -6.268      0.000      0.000
REMARK INTER + INTRA:          -9.298
REMARK INTER:                  -8.466
REMARK INTRA:                  -0.832
REMARK UNBOUND:                -0.832
REMARK  Name = No_1767-gen_results/8p0m/2024-11-26-14-13-15/
REMARK  6 active torsions:
REMARK  status: ('A' for Active; 'I' for Inactive)
REMARK    1  A    between atoms: C_1  and  C_2
REMARK    2  A    between atoms: C_1  and  N_8
REMARK    3  A    between atoms: C_4  and  C_21
REMARK    4  A    between atoms: C_5  and  C_12
REMARK    5  A    between atoms: C_9  and  C_10
REMARK    6  A    between atoms: N_13  and  C_18
REMARK                            x       y       z     vdW  Elec       q    Type
REMARK                         _______ _______ _______ _____ _____    ______ ____
ROOT
ATOM      1  C   UNL A   1     -23.909  -0.738  28.756  0.00  0.00    -0.000 A 
ATOM      2  C   UNL A   1     -24.748  -0.660  27.692  0.00  0.00    +0.004 A 
ATOM      3  C   UNL A   1     -24.720   0.414  26.675  0.00  0.00    +0.081 A 
ATOM      4  C   UNL A   1     -23.746   1.451  26.853  0.00  0.00    +0.020 A 
ATOM      5  C   UNL A   1     -22.940   1.373  28.011  0.00  0.00    +0.001 A 
ATOM      6  C   UNL A   1     -23.022   0.344  28.913  0.00  0.00    -0.003 A 
ENDROOT
BRANCH   4   7
ATOM      7  C   UNL A   1     -23.639   2.559  25.940  0.00  0.00    +0.059 C 
ATOM      8  N   UNL A   1     -23.990   3.663  25.811  0.00  0.00    -0.227 NA
ATOM      9  C   UNL A   1     -22.489   2.247  24.929  0.00  0.00    +0.052 C 
BRANCH   8  10
ATOM     10  C   UNL A   1     -24.910   4.102  26.786  0.00  0.00    +0.359 C 
ATOM     11  F   UNL A   1     -24.749   5.111  27.345  0.00  0.00    -0.188 F 
ATOM     12  N   UNL A   1     -26.313   3.932  26.233  0.00  0.00    -0.070 NA
ENDBRANCH   8  10
ENDBRANCH   4   7
BRANCH   3  13
ATOM     13  C   UNL A   1     -25.604   0.446  25.537  0.00  0.00    +0.388 C 
ATOM     14  O   UNL A   1     -26.744   0.637  25.682  0.00  0.00    -0.241 OA
ATOM     15  O   UNL A   1     -25.105  -0.003  24.450  0.00  0.00    -0.241 OA
ENDBRANCH   3  13
BRANCH   1  16
ATOM     16  C   UNL A   1     -23.943  -1.621  29.581  0.00  0.00    +0.142 C 
BRANCH  16  17
ATOM     17  N   UNL A   1     -25.130  -2.293  29.852  0.00  0.00    -0.194 NA
ATOM     18  C   UNL A   1     -25.603  -3.292  29.670  0.00  0.00    +0.337 C 
ATOM     19  O   UNL A   1     -26.820  -3.709  29.975  0.00  0.00    -0.264 OA
BRANCH  18  20
ATOM     20  C   UNL A   1     -24.847  -4.285  28.992  0.00  0.00    +0.471 C 
ATOM     21  F   UNL A   1     -25.763  -5.459  28.917  0.00  0.00    -0.162 F 
ATOM     22  F   UNL A   1     -24.591  -3.973  27.818  0.00  0.00    -0.162 F 
ATOM     23  F   UNL A   1     -23.840  -4.715  29.668  0.00  0.00    -0.162 F 
ENDBRANCH  18  20
ENDBRANCH  16  17
ENDBRANCH   1  16
TORSDOF 6
ENDMDL
ENDMDL
