REMARK  Name = No_1768-gen_results/8p0m/2024-11-26-14-13-15/
REMARK  5 active torsions:
REMARK  status: ('A' for Active; 'I' for Inactive)
REMARK    1  A    between atoms: C_3  and  C_7
REMARK    2  A    between atoms: C_6  and  C_19
REMARK    3  A    between atoms: C_10  and  C_13
REMARK    4  A    between atoms: N_20  and  C_21
REMARK    5  A    between atoms: C_21  and  C_22
REMARK                            x       y       z     vdW  Elec       q    Type
REMARK                         _______ _______ _______ _____ _____    ______ ____
ROOT
ATOM      1  C   UNL A   1     -28.016  -0.814  28.878  0.00  0.00    +0.000 A 
ATOM      2  C   UNL A   1     -28.469  -0.785  29.829  0.00  0.00    +0.000 A 
ATOM      3  C   UNL A   1     -27.087   0.290  28.638  0.00  0.00    +0.000 A 
ATOM      4  C   UNL A   1     -26.832   1.249  29.587  0.00  0.00    +0.005 A 
ATOM      5  C   UNL A   1     -28.391   0.080  31.006  0.00  0.00    +0.005 A 
ATOM      6  C   UNL A   1     -27.494   1.152  30.784  0.00  0.00    +0.055 A 
ENDROOT
BRANCH   3   7
ATOM      7  C   UNL A   1     -26.311   0.392  27.364  0.00  0.00    +0.000 A 
ATOM      8  C   UNL A   1     -26.767   1.025  26.372  0.00  0.00    +0.000 A 
ATOM      9  C   UNL A   1     -26.011   1.016  25.124  0.00  0.00    +0.000 A 
ATOM     10  C   UNL A   1     -25.072  -0.232  27.315  0.00  0.00    +0.000 A 
ATOM     11  C   UNL A   1     -24.224  -0.127  26.244  0.00  0.00    +0.000 A 
ATOM     12  C   UNL A   1     -24.741   0.487  25.067  0.00  0.00    +0.000 A 
BRANCH  10  13
ATOM     13  C   UNL A   1     -24.477  -0.930  28.502  0.00  0.00    +0.000 A 
ATOM     14  C   UNL A   1     -24.135  -1.910  28.936  0.00  0.00    +0.000 A 
ATOM     15  C   UNL A   1     -23.589  -2.242  30.164  0.00  0.00    +0.000 A 
ATOM     16  C   UNL A   1     -23.646  -1.196  31.152  0.00  0.00    +0.000 A 
ATOM     17  C   UNL A   1     -24.378   0.131  29.751  0.00  0.00    +0.000 A 
ATOM     18  C   UNL A   1     -23.886  -0.054  30.896  0.00  0.00    +0.000 A 
ENDBRANCH  10  13
ENDBRANCH   3   7
BRANCH   6  19
ATOM     19  C   UNL A   1     -27.334   2.197  31.867  0.00  0.00    +0.265 C 
ATOM     20  N   UNL A   1     -26.490   3.082  31.695  0.00  0.00    -0.197 NA
ATOM     21  O   UNL A   1     -28.230   2.342  32.716  0.00  0.00    -0.268 OA
BRANCH  20  22
ATOM     22  C   UNL A   1     -25.899   3.697  32.709  0.00  0.00    +0.142 C 
BRANCH  22  23
ATOM     23  C   UNL A   1     -25.641   5.051  32.689  0.00  0.00    -0.001 A 
ATOM     24  C   UNL A   1     -26.816   5.829  32.391  0.00  0.00    -0.003 A 
ATOM     25  C   UNL A   1     -26.593   7.176  32.106  0.00  0.00    -0.000 A 
ATOM     26  C   UNL A   1     -25.854   7.514  31.416  0.00  0.00    -0.000 A 
ATOM     27  C   UNL A   1     -24.463   6.806  31.454  0.00  0.00    -0.000 A 
ATOM     28  C   UNL A   1     -24.543   5.374  31.630  0.00  0.00    -0.003 A 
ENDBRANCH  22  23
ENDBRANCH  20  22
ENDBRANCH   6  19
TORSDOF 5
