MODEL 1768
MODEL 1
REMARK VINA RESULT:    -8.317      0.000      0.000
REMARK INTER + INTRA:         -12.867
REMARK INTER:                 -10.749
REMARK INTRA:                  -2.118
REMARK UNBOUND:                -2.118
REMARK  Name = No_1768-gen_results/8p0m/2024-11-26-14-13-15/
REMARK  5 active torsions:
REMARK  status: ('A' for Active; 'I' for Inactive)
REMARK    1  A    between atoms: C_3  and  C_7
REMARK    2  A    between atoms: C_6  and  C_19
REMARK    3  A    between atoms: C_10  and  C_13
REMARK    4  A    between atoms: N_20  and  C_21
REMARK    5  A    between atoms: C_21  and  C_22
REMARK                            x       y       z     vdW  Elec       q    Type
REMARK                         _______ _______ _______ _____ _____    ______ ____
ROOT
ATOM      1  C   UNL A   1     -22.412  -0.972  29.400  0.00  0.00    +0.000 A 
ATOM      2  C   UNL A   1     -21.981  -0.060  29.095  0.00  0.00    +0.000 A 
ATOM      3  C   UNL A   1     -23.678  -1.272  28.731  0.00  0.00    +0.000 A 
ATOM      4  C   UNL A   1     -24.221  -0.438  27.785  0.00  0.00    +0.005 A 
ATOM      5  C   UNL A   1     -22.316   0.996  28.140  0.00  0.00    +0.005 A 
ATOM      6  C   UNL A   1     -23.540   0.714  27.487  0.00  0.00    +0.055 A 
ENDROOT
BRANCH   3   7
ATOM      7  C   UNL A   1     -24.416  -2.546  28.996  0.00  0.00    +0.000 A 
ATOM      8  C   UNL A   1     -23.929  -3.662  28.665  0.00  0.00    +0.000 A 
ATOM      9  C   UNL A   1     -24.730  -4.865  28.863  0.00  0.00    +0.000 A 
ATOM     10  C   UNL A   1     -25.651  -2.454  29.622  0.00  0.00    +0.000 A 
ATOM     11  C   UNL A   1     -26.377  -3.550  30.009  0.00  0.00    +0.000 A 
ATOM     12  C   UNL A   1     -25.916  -4.822  29.561  0.00  0.00    +0.000 A 
BRANCH  10  13
ATOM     13  C   UNL A   1     -26.220  -1.147  30.089  0.00  0.00    +0.000 A 
ATOM     14  C   UNL A   1     -26.310  -0.417  30.941  0.00  0.00    +0.000 A 
ATOM     15  C   UNL A   1     -26.963   0.798  31.058  0.00  0.00    +0.000 A 
ATOM     16  C   UNL A   1     -27.860   1.107  29.975  0.00  0.00    +0.000 A 
ATOM     17  C   UNL A   1     -27.238  -0.566  28.939  0.00  0.00    +0.000 A 
ATOM     18  C   UNL A   1     -27.864   0.527  28.931  0.00  0.00    +0.000 A 
ENDBRANCH  10  13
ENDBRANCH   3   7
BRANCH   6  19
ATOM     19  C   UNL A   1     -24.089   1.731  26.510  0.00  0.00    +0.265 C 
ATOM     20  N   UNL A   1     -25.243   2.136  26.686  0.00  0.00    -0.197 NA
ATOM     21  O   UNL A   1     -23.308   2.364  25.780  0.00  0.00    -0.268 OA
BRANCH  20  22
ATOM     22  C   UNL A   1     -25.994   2.575  25.687  0.00  0.00    +0.142 C 
BRANCH  22  23
ATOM     23  C   UNL A   1     -27.166   1.945  25.325  0.00  0.00    -0.001 A 
ATOM     24  C   UNL A   1     -26.949   0.589  24.890  0.00  0.00    -0.003 A 
ATOM     25  C   UNL A   1     -28.037  -0.030  24.275  0.00  0.00    -0.000 A 
ATOM     26  C   UNL A   1     -28.605   0.424  23.496  0.00  0.00    -0.000 A 
ATOM     27  C   UNL A   1     -28.955   1.937  23.654  0.00  0.00    -0.000 A 
ATOM     28  C   UNL A   1     -27.869   2.734  24.179  0.00  0.00    -0.003 A 
ENDBRANCH  22  23
ENDBRANCH  20  22
ENDBRANCH   6  19
TORSDOF 5
ENDMDL
ENDMDL
