MODEL 1769
MODEL 1
REMARK VINA RESULT:    -8.541      0.000      0.000
REMARK INTER + INTRA:         -11.613
REMARK INTER:                 -10.538
REMARK INTRA:                  -1.075
REMARK UNBOUND:                -1.075
REMARK  Name = No_1769-gen_results/8p0m/2024-11-26-14-13-15/
REMARK  4 active torsions:
REMARK  status: ('A' for Active; 'I' for Inactive)
REMARK    1  A    between atoms: C_2  and  C_5
REMARK    2  A    between atoms: C_3  and  C_16
REMARK    3  A    between atoms: C_5  and  C_8
REMARK    4  A    between atoms: C_16  and  C_17
REMARK                            x       y       z     vdW  Elec       q    Type
REMARK                         _______ _______ _______ _____ _____    ______ ____
ROOT
ATOM      1  C   UNL A   1     -23.739   0.654  28.849  0.00  0.00    -0.001 A 
ATOM      2  C   UNL A   1     -22.996   0.016  29.239  0.00  0.00    -0.013 A 
ATOM      3  C   UNL A   1     -23.258   1.519  27.765  0.00  0.00    +0.039 A 
ATOM      4  C   UNL A   1     -21.967   1.612  27.443  0.00  0.00    +0.003 A 
ATOM      5  C   UNL A   1     -21.101   0.772  28.074  0.00  0.00    -0.000 A 
ATOM      6  C   UNL A   1     -21.600  -0.062  29.012  0.00  0.00    -0.004 A 
ENDROOT
BRANCH   3   7
ATOM      7  C   UNL A   1     -24.291   2.456  27.086  0.00  0.00    +0.196 C 
ATOM      8  O   UNL A   1     -23.944   3.680  27.141  0.00  0.00    -0.287 OA
BRANCH   7   9
ATOM      9  C   UNL A   1     -25.180   1.919  26.369  0.00  0.00    +0.039 A 
ATOM     10  C   UNL A   1     -26.247   2.361  25.871  0.00  0.00    +0.003 A 
ATOM     11  C   UNL A   1     -27.096   1.623  24.945  0.00  0.00    +0.000 A 
ATOM     12  C   UNL A   1     -26.632   0.380  24.506  0.00  0.00    +0.000 A 
ATOM     13  C   UNL A   1     -24.719   0.795  25.449  0.00  0.00    +0.003 A 
ATOM     14  C   UNL A   1     -25.411   0.004  24.698  0.00  0.00    +0.000 A 
ENDBRANCH   7   9
ENDBRANCH   3   7
BRANCH   2  15
ATOM     15  C   UNL A   1     -23.383  -1.007  30.393  0.00  0.00    +0.112 C 
BRANCH  15  16
ATOM     16  C   UNL A   1     -24.528  -1.754  30.385  0.00  0.00    +0.230 C 
ATOM     17  N   UNL A   1     -24.707  -2.755  29.946  0.00  0.00    -0.279 N 
ATOM     18  O   UNL A   1     -25.481  -1.312  31.315  0.00  0.00    -0.275 OA
ATOM     19  C   UNL A   1     -23.790  -3.320  28.911  0.00  0.00    +0.093 C 
ATOM     20  C   UNL A   1     -24.103  -4.691  28.556  0.00  0.00    +0.022 C 
ATOM     21  C   UNL A   1     -25.893  -3.584  29.805  0.00  0.00    +0.093 C 
ATOM     22  C   UNL A   1     -26.010  -4.873  29.634  0.00  0.00    +0.022 C 
ATOM     23  C   UNL A   1     -25.132  -5.399  28.810  0.00  0.00    +0.004 C 
ENDBRANCH  15  16
ENDBRANCH   2  15
TORSDOF 4
ENDMDL
ENDMDL
