REMARK  Name = No_1769-gen_results/8p0m/2024-11-26-14-13-15/
REMARK  4 active torsions:
REMARK  status: ('A' for Active; 'I' for Inactive)
REMARK    1  A    between atoms: C_2  and  C_5
REMARK    2  A    between atoms: C_3  and  C_16
REMARK    3  A    between atoms: C_5  and  C_8
REMARK    4  A    between atoms: C_16  and  C_17
REMARK                            x       y       z     vdW  Elec       q    Type
REMARK                         _______ _______ _______ _____ _____    ______ ____
ROOT
ATOM      1  C   UNL A   1     -28.016  -0.814  28.878  0.00  0.00    -0.001 A 
ATOM      2  C   UNL A   1     -28.469  -0.785  29.829  0.00  0.00    -0.013 A 
ATOM      3  C   UNL A   1     -28.182   0.428  28.113  0.00  0.00    +0.039 A 
ATOM      4  C   UNL A   1     -28.984   1.415  28.515  0.00  0.00    +0.003 A 
ATOM      5  C   UNL A   1     -29.561   1.293  29.742  0.00  0.00    -0.000 A 
ATOM      6  C   UNL A   1     -29.320   0.165  30.445  0.00  0.00    -0.004 A 
ENDROOT
BRANCH   3   7
ATOM      7  C   UNL A   1     -27.502   0.506  26.720  0.00  0.00    +0.196 C 
ATOM      8  O   UNL A   1     -28.254   0.070  25.790  0.00  0.00    -0.287 OA
BRANCH   7   9
ATOM      9  C   UNL A   1     -26.445   1.189  26.627  0.00  0.00    +0.039 A 
ATOM     10  C   UNL A   1     -25.833   1.916  27.451  0.00  0.00    +0.003 A 
ATOM     11  C   UNL A   1     -24.535   2.531  27.206  0.00  0.00    +0.000 A 
ATOM     12  C   UNL A   1     -23.887   2.201  26.012  0.00  0.00    +0.000 A 
ATOM     13  C   UNL A   1     -25.392   0.676  25.653  0.00  0.00    +0.003 A 
ATOM     14  C   UNL A   1     -24.281   1.216  25.276  0.00  0.00    +0.000 A 
ENDBRANCH   7   9
ENDBRANCH   3   7
BRANCH   2  15
ATOM     15  C   UNL A   1     -28.337  -2.048  30.787  0.00  0.00    +0.112 C 
BRANCH  15  16
ATOM     16  C   UNL A   1     -28.893  -3.265  30.509  0.00  0.00    +0.230 C 
ATOM     17  N   UNL A   1     -29.951  -3.522  30.308  0.00  0.00    -0.279 N 
ATOM     18  O   UNL A   1     -27.946  -4.231  30.136  0.00  0.00    -0.275 OA
ATOM     19  C   UNL A   1     -31.058  -2.598  30.699  0.00  0.00    +0.093 C 
ATOM     20  C   UNL A   1     -32.360  -3.035  30.234  0.00  0.00    +0.022 C 
ATOM     21  C   UNL A   1     -30.649  -4.779  30.094  0.00  0.00    +0.093 C 
ATOM     22  C   UNL A   1     -31.787  -5.027  29.503  0.00  0.00    +0.022 C 
ATOM     23  C   UNL A   1     -32.736  -4.153  29.752  0.00  0.00    +0.004 C 
ENDBRANCH  15  16
ENDBRANCH   2  15
TORSDOF 4
