MODEL 176
MODEL 1
REMARK VINA RESULT:    -5.363      0.000      0.000
REMARK INTER + INTRA:          -6.269
REMARK INTER:                  -5.990
REMARK INTRA:                  -0.279
REMARK UNBOUND:                -0.279
REMARK  Name = No_176-gen_results/8p0m/2024-11-26-14-13-15/
REMARK  2 active torsions:
REMARK  status: ('A' for Active; 'I' for Inactive)
REMARK    1  A    between atoms: C_3  and  C_4
REMARK    2  A    between atoms: C_4  and  C_8
REMARK                            x       y       z     vdW  Elec       q    Type
REMARK                         _______ _______ _______ _____ _____    ______ ____
ROOT
ATOM      1  C   UNL A   1     -24.785  -4.986  29.143  0.00  0.00    -0.000 A 
ATOM      2  C   UNL A   1     -24.146  -4.021  28.795  0.00  0.00    -0.004 A 
ATOM      3  C   UNL A   1     -24.599  -2.730  29.046  0.00  0.00    -0.018 A 
ATOM      4  C   UNL A   1     -26.159  -4.822  29.624  0.00  0.00    -0.000 A 
ATOM      5  C   UNL A   1     -26.652  -3.594  29.990  0.00  0.00    -0.000 A 
ATOM      6  C   UNL A   1     -25.870  -2.477  29.688  0.00  0.00    -0.004 A 
ENDROOT
BRANCH   3   7
ATOM      7  C   UNL A   1     -23.854  -1.567  28.723  0.00  0.00    +0.052 C 
BRANCH   7   8
ATOM      8  C   UNL A   1     -22.673  -1.241  29.301  0.00  0.00    -0.026 C 
ATOM      9  C   UNL A   1     -21.955  -0.425  29.117  0.00  0.00    -0.030 C 
ATOM     10  C   UNL A   1     -22.335   0.747  28.256  0.00  0.00    +0.030 C 
ENDBRANCH   7   8
ENDBRANCH   3   7
TORSDOF 2
ENDMDL
ENDMDL
