REMARK  Name = No_177-gen_results/8p0m/2024-11-26-14-13-15/
REMARK  1 active torsions:
REMARK  status: ('A' for Active; 'I' for Inactive)
REMARK    1  A    between atoms: C_2  and  N_3
REMARK                            x       y       z     vdW  Elec       q    Type
REMARK                         _______ _______ _______ _____ _____    ______ ____
ROOT
ATOM      1  C   UNL A   1     -28.016  -0.814  28.878  0.00  0.00    +0.020 C 
ATOM      2  C   UNL A   1     -27.064  -0.119  28.608  0.00  0.00    +0.074 C 
ATOM      3  C   UNL A   1     -28.685  -0.390  30.060  0.00  0.00    +0.002 C 
ATOM      4  C   UNL A   1     -27.963  -0.384  31.246  0.00  0.00    +0.000 C 
ATOM      5  C   UNL A   1     -26.712   0.469  31.118  0.00  0.00    +0.002 C 
ATOM      6  C   UNL A   1     -26.166   0.314  29.700  0.00  0.00    +0.020 C 
ENDROOT
BRANCH   2   7
ATOM      7  N   UNL A   1     -26.985   0.597  27.522  0.00  0.00    -0.291 N 
ATOM      8  C   UNL A   1     -27.364   1.385  26.913  0.00  0.00    +0.159 C 
ATOM      9  N   UNL A   1     -26.956   1.656  25.635  0.00  0.00    -0.252 NA
ATOM     10  C   UNL A   1     -25.780   0.092  26.586  0.00  0.00    +0.118 C 
ATOM     11  C   UNL A   1     -25.870   0.827  25.481  0.00  0.00    +0.148 C 
ENDBRANCH   2   7
TORSDOF 1
