MODEL 1770
MODEL 1
REMARK VINA RESULT:    -4.592      0.000      0.000
REMARK INTER + INTRA:          -4.592
REMARK INTER:                  -4.592
REMARK INTRA:                   0.000
REMARK UNBOUND:                 0.000
REMARK  Name = No_1770-gen_results/8p0m/2024-11-26-14-13-15/
REMARK  0 active torsions:
REMARK  status: ('A' for Active; 'I' for Inactive)
REMARK                            x       y       z     vdW  Elec       q    Type
REMARK                         _______ _______ _______ _____ _____    ______ ____
ROOT
ATOM      1  C   UNL A   1     -10.207  -9.803  18.370  0.00  0.00    +0.030 A 
ATOM      2  C   UNL A   1      -9.227 -10.385  17.966  0.00  0.00    +0.140 A 
ATOM      3  C   UNL A   1      -8.077 -10.477  18.742  0.00  0.00    +0.030 A 
ATOM      4  C   UNL A   1      -8.001  -9.841  20.033  0.00  0.00    +0.002 A 
ATOM      5  C   UNL A   1      -9.171  -9.170  20.411  0.00  0.00    +0.000 A 
ATOM      6  C   UNL A   1     -10.226  -9.098  19.633  0.00  0.00    +0.002 A 
ATOM      7  F   UNL A   1      -9.142 -10.962  16.767  0.00  0.00    -0.204 F 
ENDROOT
TORSDOF 0
ENDMDL
ENDMDL
