MODEL 1771
MODEL 1
REMARK VINA RESULT:    -6.725      0.000      0.000
REMARK INTER + INTRA:          -8.046
REMARK INTER:                  -7.511
REMARK INTRA:                  -0.535
REMARK UNBOUND:                -0.535
REMARK  Name = No_1771-gen_results/8p0m/2024-11-26-14-13-15/
REMARK  2 active torsions:
REMARK  status: ('A' for Active; 'I' for Inactive)
REMARK    1  A    between atoms: C_2  and  C_7
REMARK    2  A    between atoms: C_7  and  C_8
REMARK                            x       y       z     vdW  Elec       q    Type
REMARK                         _______ _______ _______ _____ _____    ______ ____
ROOT
ATOM      1  C   UNL A   1     -24.157  -1.120  29.635  0.00  0.00    +0.055 C 
ENDROOT
BRANCH   1   2
ATOM      2  C   UNL A   1     -23.896  -0.281  28.482  0.00  0.00    +0.010 A 
ATOM      3  C   UNL A   1     -24.466   0.015  27.514  0.00  0.00    +0.137 A 
ATOM      4  C   UNL A   1     -24.050   0.957  26.478  0.00  0.00    +0.029 A 
ATOM      5  C   UNL A   1     -22.843   1.637  26.792  0.00  0.00    +0.002 A 
ATOM      6  C   UNL A   1     -22.578   0.518  28.564  0.00  0.00    -0.002 A 
ATOM      7  C   UNL A   1     -22.138   1.388  27.754  0.00  0.00    -0.000 A 
ATOM      8  F   UNL A   1     -25.692  -0.538  27.211  0.00  0.00    -0.204 F 
ENDBRANCH   1   2
BRANCH   1  10
ATOM      9  C   UNL A   1     -23.781  -3.315  28.750  0.00  0.00    -0.004 A 
ATOM     10  C   UNL A   1     -24.514  -2.571  29.360  0.00  0.00    -0.018 A 
ATOM     11  C   UNL A   1     -25.717  -2.941  29.869  0.00  0.00    -0.004 A 
ATOM     12  C   UNL A   1     -26.143  -4.269  29.679  0.00  0.00    -0.000 A 
ATOM     13  C   UNL A   1     -24.110  -4.710  28.601  0.00  0.00    -0.000 A 
ATOM     14  C   UNL A   1     -25.321  -5.125  29.070  0.00  0.00    -0.000 A 
ENDBRANCH   1  10
TORSDOF 2
ENDMDL
ENDMDL
