MODEL 1772
MODEL 1
REMARK VINA RESULT:    -8.003      0.000      0.000
REMARK INTER + INTRA:         -11.064
REMARK INTER:                 -10.342
REMARK INTRA:                  -0.722
REMARK UNBOUND:                -0.722
REMARK  Name = No_1772-gen_results/8p0m/2024-11-26-14-13-15/
REMARK  5 active torsions:
REMARK  status: ('A' for Active; 'I' for Inactive)
REMARK    1  A    between atoms: C_2  and  C_13
REMARK    2  A    between atoms: C_4  and  C_7
REMARK    3  A    between atoms: C_17  and  C_24
REMARK    4  A    between atoms: C_19  and  C_21
REMARK    5  A    between atoms: N_26  and  C_27
REMARK                            x       y       z     vdW  Elec       q    Type
REMARK                         _______ _______ _______ _____ _____    ______ ____
ROOT
ATOM      1  C   UNL A   1     -11.643   2.086  37.438  0.00  0.00    +0.249 C 
ATOM      2  O   UNL A   1     -11.367   2.752  38.325  0.00  0.00    -0.270 OA
ATOM      3  N   UNL A   1     -12.818   2.162  36.708  0.00  0.00    -0.275 N 
ATOM      4  C   UNL A   1     -13.920   2.873  37.268  0.00  0.00    +0.103 C 
ATOM      5  C   UNL A   1     -14.671   3.379  36.452  0.00  0.00    +0.099 C 
ATOM      6  C   UNL A   1     -14.714   3.010  35.064  0.00  0.00    +0.024 C 
ATOM      7  C   UNL A   1     -13.551   2.332  34.492  0.00  0.00    +0.124 C 
ATOM      8  C   UNL A   1     -12.644   2.015  35.306  0.00  0.00    +0.105 C 
ENDROOT
BRANCH   1  10
ATOM      9  C   UNL A   1      -9.647   2.119  36.317  0.00  0.00    +0.004 A 
ATOM     10  C   UNL A   1     -10.306   1.441  36.784  0.00  0.00    +0.054 A 
ATOM     11  C   UNL A   1      -8.388   1.510  35.742  0.00  0.00    +0.000 A 
ATOM     12  C   UNL A   1      -8.240   0.107  35.733  0.00  0.00    +0.000 A 
ATOM     13  C   UNL A   1     -10.405  -0.033  36.880  0.00  0.00    +0.004 A 
ATOM     14  C   UNL A   1      -9.266  -0.628  36.356  0.00  0.00    +0.000 A 
BRANCH  12  15
ATOM     15  C   UNL A   1      -7.069  -0.520  35.222  0.00  0.00    +0.000 A 
ATOM     16  C   UNL A   1      -7.019  -1.508  34.725  0.00  0.00    +0.000 A 
ATOM     17  C   UNL A   1      -5.810  -2.268  34.229  0.00  0.00    +0.000 A 
ATOM     18  C   UNL A   1      -4.674  -1.588  34.445  0.00  0.00    +0.000 A 
ATOM     19  C   UNL A   1      -5.776   0.123  35.433  0.00  0.00    +0.000 A 
ATOM     20  C   UNL A   1      -4.634  -0.391  35.069  0.00  0.00    +0.000 A 
ENDBRANCH  12  15
ENDBRANCH   1  10
BRANCH   7  21
ATOM     21  C   UNL A   1     -13.561   2.149  33.033  0.00  0.00    +0.366 C 
ATOM     22  O   UNL A   1     -14.077   2.946  32.335  0.00  0.00    -0.246 OA
ATOM     23  O   UNL A   1     -12.736   1.282  32.514  0.00  0.00    -0.246 OA
ENDBRANCH   7  21
BRANCH   5  24
ATOM     24  C   UNL A   1     -15.966   4.070  36.906  0.00  0.00    +0.247 C 
ATOM     25  O   UNL A   1     -16.755   4.518  36.344  0.00  0.00    -0.273 OA
ATOM     26  N   UNL A   1     -16.135   3.825  38.284  0.00  0.00    -0.179 NA
BRANCH  26  27
ATOM     27  C   UNL A   1     -17.243   4.437  38.988  0.00  0.00    +0.073 A 
ATOM     28  C   UNL A   1     -16.984   5.540  39.487  0.00  0.00    +0.017 A 
ATOM     29  C   UNL A   1     -17.725   6.220  40.299  0.00  0.00    +0.001 A 
ATOM     30  C   UNL A   1     -19.061   5.622  40.537  0.00  0.00    +0.000 A 
ATOM     31  C   UNL A   1     -19.352   4.429  39.963  0.00  0.00    +0.001 A 
ATOM     32  C   UNL A   1     -18.417   3.750  39.244  0.00  0.00    +0.017 A 
ENDBRANCH  26  27
ENDBRANCH   5  24
TORSDOF 5
ENDMDL
ENDMDL
