REMARK  Name = No_1772-gen_results/8p0m/2024-11-26-14-13-15/
REMARK  5 active torsions:
REMARK  status: ('A' for Active; 'I' for Inactive)
REMARK    1  A    between atoms: C_2  and  C_13
REMARK    2  A    between atoms: C_4  and  C_7
REMARK    3  A    between atoms: C_17  and  C_24
REMARK    4  A    between atoms: C_19  and  C_21
REMARK    5  A    between atoms: N_26  and  C_27
REMARK                            x       y       z     vdW  Elec       q    Type
REMARK                         _______ _______ _______ _____ _____    ______ ____
ROOT
ATOM      1  C   UNL A   1     -30.091  -0.785  29.844  0.00  0.00    +0.249 C 
ATOM      2  O   UNL A   1     -30.495  -0.321  28.880  0.00  0.00    -0.270 OA
ATOM      3  N   UNL A   1     -30.788  -1.644  30.678  0.00  0.00    -0.275 N 
ATOM      4  C   UNL A   1     -32.206  -1.717  30.546  0.00  0.00    +0.103 C 
ATOM      5  C   UNL A   1     -32.694  -2.792  30.849  0.00  0.00    +0.099 C 
ATOM      6  C   UNL A   1     -32.016  -3.790  31.629  0.00  0.00    +0.024 C 
ATOM      7  C   UNL A   1     -30.556  -3.733  31.707  0.00  0.00    +0.124 C 
ATOM      8  C   UNL A   1     -30.016  -2.728  31.175  0.00  0.00    +0.105 C 
ENDROOT
BRANCH   1  10
ATOM      9  C   UNL A   1     -28.016  -0.814  28.878  0.00  0.00    +0.004 A 
ATOM     10  C   UNL A   1     -28.469  -0.785  29.829  0.00  0.00    +0.054 A 
ATOM     11  C   UNL A   1     -26.504  -0.778  28.877  0.00  0.00    +0.000 A 
ATOM     12  C   UNL A   1     -25.810  -0.853  30.103  0.00  0.00    +0.000 A 
ATOM     13  C   UNL A   1     -27.991  -0.892  31.226  0.00  0.00    +0.004 A 
ATOM     14  C   UNL A   1     -26.604  -0.868  31.265  0.00  0.00    +0.000 A 
BRANCH  12  15
ATOM     15  C   UNL A   1     -24.389  -0.805  30.164  0.00  0.00    +0.000 A 
ATOM     16  C   UNL A   1     -23.766  -0.950  31.068  0.00  0.00    +0.000 A 
ATOM     17  C   UNL A   1     -22.267  -0.838  31.225  0.00  0.00    +0.000 A 
ATOM     18  C   UNL A   1     -21.670  -0.526  30.065  0.00  0.00    +0.000 A 
ATOM     19  C   UNL A   1     -23.644  -0.443  28.962  0.00  0.00    +0.000 A 
ATOM     20  C   UNL A   1     -22.348  -0.303  28.918  0.00  0.00    +0.000 A 
ENDBRANCH  12  15
ENDBRANCH   1  10
BRANCH   7  21
ATOM     21  C   UNL A   1     -29.897  -4.879  32.352  0.00  0.00    +0.366 C 
ATOM     22  O   UNL A   1     -30.264  -5.978  32.136  0.00  0.00    -0.246 OA
ATOM     23  O   UNL A   1     -28.729  -4.691  32.900  0.00  0.00    -0.246 OA
ENDBRANCH   7  21
BRANCH   5  24
ATOM     24  C   UNL A   1     -34.219  -2.978  30.874  0.00  0.00    +0.247 C 
ATOM     25  O   UNL A   1     -34.842  -3.566  31.510  0.00  0.00    -0.273 OA
ATOM     26  N   UNL A   1     -34.793  -2.012  30.023  0.00  0.00    -0.179 NA
BRANCH  26  27
ATOM     27  C   UNL A   1     -36.224  -2.019  29.797  0.00  0.00    +0.073 A 
ATOM     28  C   UNL A   1     -36.605  -1.248  28.907  0.00  0.00    +0.017 A 
ATOM     29  C   UNL A   1     -37.825  -0.935  28.617  0.00  0.00    +0.001 A 
ATOM     30  C   UNL A   1     -38.838  -1.692  29.391  0.00  0.00    +0.000 A 
ATOM     31  C   UNL A   1     -38.417  -2.559  30.344  0.00  0.00    +0.001 A 
ATOM     32  C   UNL A   1     -37.095  -2.682  30.644  0.00  0.00    +0.017 A 
ENDBRANCH  26  27
ENDBRANCH   5  24
TORSDOF 5
