REMARK  Name = No_1773-gen_results/8p0m/2024-11-26-14-13-15/
REMARK  8 active torsions:
REMARK  status: ('A' for Active; 'I' for Inactive)
REMARK    1  A    between atoms: C_1  and  C_2
REMARK    2  A    between atoms: C_1  and  C_8
REMARK    3  A    between atoms: C_3  and  C_19
REMARK    4  A    between atoms: C_5  and  C_15
REMARK    5  A    between atoms: C_8  and  C_9
REMARK    6  A    between atoms: C_19  and  N_20
REMARK    7  A    between atoms: C_19  and  C_22
REMARK    8  A    between atoms: N_20  and  C_21
REMARK                            x       y       z     vdW  Elec       q    Type
REMARK                         _______ _______ _______ _____ _____    ______ ____
ROOT
ATOM      1  C   UNL A   1     -27.064  -0.119  28.608  0.00  0.00    -0.024 A 
ATOM      2  C   UNL A   1     -26.972   0.714  27.506  0.00  0.00    -0.003 A 
ATOM      3  C   UNL A   1     -25.820   1.491  27.116  0.00  0.00    +0.001 A 
ATOM      4  C   UNL A   1     -24.656   1.424  27.918  0.00  0.00    +0.071 A 
ATOM      5  C   UNL A   1     -24.711   0.542  29.051  0.00  0.00    +0.004 A 
ATOM      6  C   UNL A   1     -25.804  -0.206  29.388  0.00  0.00    -0.005 A 
ENDROOT
BRANCH   4   7
ATOM      7  C   UNL A   1     -23.440   2.151  27.639  0.00  0.00    +0.419 C 
ATOM      8  F   UNL A   1     -22.596   2.087  28.483  0.00  0.00    -0.166 F 
ATOM      9  F   UNL A   1     -23.707   3.489  27.464  0.00  0.00    -0.166 F 
ATOM     10  F   UNL A   1     -22.938   1.753  26.414  0.00  0.00    -0.166 F 
ENDBRANCH   4   7
BRANCH   1  11
ATOM     11  C   UNL A   1     -28.016  -0.814  28.878  0.00  0.00    +0.031 C 
BRANCH  11  12
ATOM     12  C   UNL A   1     -28.696  -0.499  30.133  0.00  0.00    +0.031 C 
BRANCH  12  13
ATOM     13  C   UNL A   1     -29.850  -1.325  30.577  0.00  0.00    -0.022 A 
ATOM     14  C   UNL A   1     -30.839  -1.104  30.757  0.00  0.00    -0.004 A 
ATOM     15  C   UNL A   1     -31.911  -2.075  31.182  0.00  0.00    -0.000 A 
ATOM     16  C   UNL A   1     -31.510  -3.405  31.217  0.00  0.00    -0.000 A 
ATOM     17  C   UNL A   1     -30.226  -3.787  30.923  0.00  0.00    -0.000 A 
ATOM     18  C   UNL A   1     -29.282  -2.795  30.596  0.00  0.00    -0.004 A 
ENDBRANCH  12  13
ENDBRANCH  11  12
ENDBRANCH   1  11
BRANCH   2  19
ATOM     19  C   UNL A   1     -28.126   0.886  26.637  0.00  0.00    +0.136 C 
BRANCH  19  20
ATOM     20  C   UNL A   1     -28.665   2.318  26.570  0.00  0.00    -0.005 C 
ATOM     21  C   UNL A   1     -29.489   2.805  27.582  0.00  0.00    -0.028 C 
ATOM     22  C   UNL A   1     -29.889   4.107  27.647  0.00  0.00    +0.030 C 
ENDBRANCH  19  20
BRANCH  19  23
ATOM     23  N   UNL A   1     -28.182   0.402  25.450  0.00  0.00    -0.231 NA
BRANCH  23  24
ATOM     24  C   UNL A   1     -29.278   0.029  24.822  0.00  0.00    +0.066 A 
ATOM     25  C   UNL A   1     -30.501   0.202  25.482  0.00  0.00    +0.016 A 
ATOM     26  C   UNL A   1     -31.617  -0.270  25.023  0.00  0.00    +0.001 A 
ATOM     27  C   UNL A   1     -31.531  -0.948  23.769  0.00  0.00    +0.000 A 
ATOM     28  C   UNL A   1     -30.376  -1.167  23.122  0.00  0.00    +0.001 A 
ATOM     29  C   UNL A   1     -29.215  -0.708  23.648  0.00  0.00    +0.016 A 
ENDBRANCH  23  24
ENDBRANCH  19  23
ENDBRANCH   2  19
TORSDOF 8
