MODEL 1773
MODEL 1
REMARK VINA RESULT:    -6.996      0.000      0.000
REMARK INTER + INTRA:         -13.625
REMARK INTER:                 -10.267
REMARK INTRA:                  -3.358
REMARK UNBOUND:                -3.358
REMARK  Name = No_1773-gen_results/8p0m/2024-11-26-14-13-15/
REMARK  8 active torsions:
REMARK  status: ('A' for Active; 'I' for Inactive)
REMARK    1  A    between atoms: C_1  and  C_2
REMARK    2  A    between atoms: C_1  and  C_8
REMARK    3  A    between atoms: C_3  and  C_19
REMARK    4  A    between atoms: C_5  and  C_15
REMARK    5  A    between atoms: C_8  and  C_9
REMARK    6  A    between atoms: C_19  and  N_20
REMARK    7  A    between atoms: C_19  and  C_22
REMARK    8  A    between atoms: N_20  and  C_21
REMARK                            x       y       z     vdW  Elec       q    Type
REMARK                         _______ _______ _______ _____ _____    ______ ____
ROOT
ATOM      1  C   UNL A   1     -11.757   1.723  35.180  0.00  0.00    -0.024 A 
ATOM      2  C   UNL A   1     -11.896   1.945  36.539  0.00  0.00    -0.003 A 
ATOM      3  C   UNL A   1     -13.029   2.554  37.194  0.00  0.00    +0.001 A 
ATOM      4  C   UNL A   1     -14.119   2.983  36.400  0.00  0.00    +0.071 A 
ATOM      5  C   UNL A   1     -14.017   2.737  34.988  0.00  0.00    +0.004 A 
ATOM      6  C   UNL A   1     -12.946   2.134  34.390  0.00  0.00    -0.005 A 
ENDROOT
BRANCH   4   7
ATOM      7  C   UNL A   1     -15.309   3.607  36.930  0.00  0.00    +0.419 C 
ATOM      8  F   UNL A   1     -15.178   4.736  37.300  0.00  0.00    -0.166 F 
ATOM      9  F   UNL A   1     -15.782   2.901  38.012  0.00  0.00    -0.166 F 
ATOM     10  F   UNL A   1     -16.329   3.511  36.003  0.00  0.00    -0.166 F 
ENDBRANCH   4   7
BRANCH   1  11
ATOM     11  C   UNL A   1     -10.829   1.149  34.659  0.00  0.00    +0.031 C 
BRANCH  11  12
ATOM     12  C   UNL A   1      -9.829   2.005  34.024  0.00  0.00    +0.031 C 
BRANCH  12  13
ATOM     13  C   UNL A   1      -8.382   1.743  34.245  0.00  0.00    -0.022 A 
ATOM     14  C   UNL A   1      -7.548   2.345  34.201  0.00  0.00    -0.004 A 
ATOM     15  C   UNL A   1      -6.127   1.929  34.485  0.00  0.00    -0.000 A 
ATOM     16  C   UNL A   1      -5.985   0.628  34.954  0.00  0.00    -0.000 A 
ATOM     17  C   UNL A   1      -7.057  -0.213  35.105  0.00  0.00    -0.000 A 
ATOM     18  C   UNL A   1      -8.338   0.252  34.754  0.00  0.00    -0.004 A 
ENDBRANCH  12  13
ENDBRANCH  11  12
ENDBRANCH   1  11
BRANCH   2  19
ATOM     19  C   UNL A   1     -10.816   1.577  37.441  0.00  0.00    +0.136 C 
BRANCH  19  20
ATOM     20  C   UNL A   1      -9.785   2.683  37.684  0.00  0.00    -0.005 C 
ATOM     21  C   UNL A   1      -8.435   2.365  37.816  0.00  0.00    -0.028 C 
ATOM     22  C   UNL A   1      -7.458   3.313  37.898  0.00  0.00    +0.030 C 
ENDBRANCH  19  20
BRANCH  19  23
ATOM     23  N   UNL A   1     -11.017   0.990  38.564  0.00  0.00    -0.231 NA
BRANCH  23  24
ATOM     24  C   UNL A   1     -11.322  -0.281  38.724  0.00  0.00    +0.066 A 
ATOM     25  C   UNL A   1     -11.158  -1.137  37.628  0.00  0.00    +0.016 A 
ATOM     26  C   UNL A   1     -11.572  -2.364  37.629  0.00  0.00    +0.001 A 
ATOM     27  C   UNL A   1     -12.175  -2.811  38.844  0.00  0.00    +0.000 A 
ATOM     28  C   UNL A   1     -12.384  -2.015  39.904  0.00  0.00    +0.001 A 
ATOM     29  C   UNL A   1     -11.989  -0.720  39.860  0.00  0.00    +0.016 A 
ENDBRANCH  23  24
ENDBRANCH  19  23
ENDBRANCH   2  19
TORSDOF 8
ENDMDL
ENDMDL
