REMARK  Name = No_1774-gen_results/8p0m/2024-11-26-14-13-15/
REMARK  7 active torsions:
REMARK  status: ('A' for Active; 'I' for Inactive)
REMARK    1  A    between atoms: C_3  and  C_7
REMARK    2  A    between atoms: C_6  and  O_15
REMARK    3  A    between atoms: C_7  and  C_8
REMARK    4  A    between atoms: C_7  and  C_14
REMARK    5  A    between atoms: O_15  and  C_16
REMARK    6  A    between atoms: C_26  and  C_27
REMARK    7  A    between atoms: C_27  and  C_28
REMARK                            x       y       z     vdW  Elec       q    Type
REMARK                         _______ _______ _______ _____ _____    ______ ____
ROOT
ATOM      1  C   UNL A   1     -28.016  -0.814  28.878  0.00  0.00    +0.037 A 
ATOM      2  C   UNL A   1     -27.064  -0.119  28.608  0.00  0.00    -0.001 A 
ATOM      3  C   UNL A   1     -25.765  -0.390  29.036  0.00  0.00    -0.011 A 
ATOM      4  C   UNL A   1     -25.530  -1.530  29.901  0.00  0.00    -0.001 A 
ATOM      5  C   UNL A   1     -26.689  -2.289  30.181  0.00  0.00    +0.037 A 
ATOM      6  C   UNL A   1     -27.873  -1.951  29.737  0.00  0.00    +0.145 A 
ENDROOT
BRANCH   3   7
ATOM      7  C   UNL A   1     -24.421   0.230  28.793  0.00  0.00    +0.125 C 
ATOM      8  C   UNL A   1     -23.549  -1.026  28.255  0.00  0.00    +0.017 C 
BRANCH   7   9
ATOM      9  C   UNL A   1     -24.314   1.169  27.808  0.00  0.00    -0.011 A 
ATOM     10  C   UNL A   1     -25.096   1.731  27.045  0.00  0.00    -0.004 A 
ATOM     11  C   UNL A   1     -24.694   2.650  26.047  0.00  0.00    -0.000 A 
ATOM     12  C   UNL A   1     -23.340   2.962  25.856  0.00  0.00    -0.000 A 
ATOM     13  C   UNL A   1     -22.837   1.580  27.650  0.00  0.00    -0.004 A 
ATOM     14  C   UNL A   1     -22.481   2.492  26.718  0.00  0.00    -0.000 A 
ENDBRANCH   7   9
BRANCH   7  15
ATOM     15  C   UNL A   1     -23.798   0.685  30.073  0.00  0.00    +0.404 C 
ATOM     16  F   UNL A   1     -24.211   0.449  31.049  0.00  0.00    -0.169 F 
ATOM     17  F   UNL A   1     -23.897   2.098  30.013  0.00  0.00    -0.169 F 
ATOM     18  F   UNL A   1     -22.478   0.453  30.122  0.00  0.00    -0.169 F 
ENDBRANCH   7  15
ENDBRANCH   3   7
BRANCH   6  19
ATOM     19  O   UNL A   1     -28.959  -2.699  30.044  0.00  0.00    -0.454 OA
BRANCH  19  20
ATOM     20  C   UNL A   1     -30.088  -2.142  30.532  0.00  0.00    +0.145 A 
ATOM     21  C   UNL A   1     -31.179  -2.792  30.146  0.00  0.00    +0.037 A 
ATOM     22  C   UNL A   1     -32.473  -2.207  30.376  0.00  0.00    +0.003 A 
ATOM     23  C   UNL A   1     -32.500  -1.017  31.171  0.00  0.00    -0.000 A 
ATOM     24  C   UNL A   1     -31.340  -0.456  31.596  0.00  0.00    -0.001 A 
ATOM     25  C   UNL A   1     -30.087  -0.963  31.261  0.00  0.00    +0.037 A 
ATOM     26  C   UNL A   1     -33.846  -0.471  31.536  0.00  0.00    -0.000 A 
ATOM     27  C   UNL A   1     -33.923   0.132  32.687  0.00  0.00    -0.000 A 
ATOM     28  C   UNL A   1     -32.719   0.803  33.198  0.00  0.00    -0.004 A 
ATOM     29  C   UNL A   1     -31.444   0.520  32.728  0.00  0.00    -0.014 A 
BRANCH  29  30
ATOM     30  C   UNL A   1     -30.242   1.092  33.292  0.00  0.00    +0.130 C 
BRANCH  30  31
ATOM     31  C   UNL A   1     -29.676   2.122  32.639  0.00  0.00    +0.402 C 
ATOM     32  F   UNL A   1     -30.221   2.689  31.790  0.00  0.00    -0.170 F 
ATOM     33  F   UNL A   1     -29.323   3.102  33.575  0.00  0.00    -0.170 F 
ATOM     34  F   UNL A   1     -28.388   1.723  32.188  0.00  0.00    -0.170 F 
ENDBRANCH  30  31
ENDBRANCH  29  30
ENDBRANCH  19  20
ENDBRANCH   6  19
TORSDOF 7
