MODEL 1774
MODEL 1
REMARK VINA RESULT:    -8.644      0.000      0.000
REMARK INTER + INTRA:         -14.686
REMARK INTER:                 -12.182
REMARK INTRA:                  -2.504
REMARK UNBOUND:                -2.504
REMARK  Name = No_1774-gen_results/8p0m/2024-11-26-14-13-15/
REMARK  7 active torsions:
REMARK  status: ('A' for Active; 'I' for Inactive)
REMARK    1  A    between atoms: C_3  and  C_7
REMARK    2  A    between atoms: C_6  and  O_15
REMARK    3  A    between atoms: C_7  and  C_8
REMARK    4  A    between atoms: C_7  and  C_14
REMARK    5  A    between atoms: O_15  and  C_16
REMARK    6  A    between atoms: C_26  and  C_27
REMARK    7  A    between atoms: C_27  and  C_28
REMARK                            x       y       z     vdW  Elec       q    Type
REMARK                         _______ _______ _______ _____ _____    ______ ____
ROOT
ATOM      1  C   UNL A   1     -24.537   0.874  26.677  0.00  0.00    +0.037 A 
ATOM      2  C   UNL A   1     -24.206  -0.000  27.444  0.00  0.00    -0.001 A 
ATOM      3  C   UNL A   1     -24.742  -0.149  28.722  0.00  0.00    -0.011 A 
ATOM      4  C   UNL A   1     -25.709   0.821  29.199  0.00  0.00    -0.001 A 
ATOM      5  C   UNL A   1     -26.040   1.817  28.253  0.00  0.00    +0.037 A 
ATOM      6  C   UNL A   1     -25.476   1.880  27.073  0.00  0.00    +0.145 A 
ENDROOT
BRANCH   3   7
ATOM      7  C   UNL A   1     -24.587  -1.156  29.823  0.00  0.00    +0.125 C 
ATOM      8  C   UNL A   1     -25.942  -0.941  30.687  0.00  0.00    +0.017 C 
BRANCH   7   9
ATOM      9  C   UNL A   1     -24.598  -2.480  29.491  0.00  0.00    -0.011 A 
ATOM     10  C   UNL A   1     -23.820  -3.250  28.933  0.00  0.00    -0.004 A 
ATOM     11  C   UNL A   1     -24.121  -4.604  28.655  0.00  0.00    -0.000 A 
ATOM     12  C   UNL A   1     -25.368  -5.151  28.993  0.00  0.00    -0.000 A 
ATOM     13  C   UNL A   1     -25.934  -3.108  29.935  0.00  0.00    -0.004 A 
ATOM     14  C   UNL A   1     -26.183  -4.415  29.697  0.00  0.00    -0.000 A 
ENDBRANCH   7   9
BRANCH   7  15
ATOM     15  C   UNL A   1     -23.436  -0.809  30.711  0.00  0.00    +0.404 C 
ATOM     16  F   UNL A   1     -22.405  -0.805  30.370  0.00  0.00    -0.169 F 
ATOM     17  F   UNL A   1     -23.448  -1.832  31.693  0.00  0.00    -0.169 F 
ATOM     18  F   UNL A   1     -23.638   0.317  31.411  0.00  0.00    -0.169 F 
ENDBRANCH   7  15
ENDBRANCH   3   7
BRANCH   6  19
ATOM     19  O   UNL A   1     -25.812   2.862  26.204  0.00  0.00    -0.454 OA
BRANCH  19  20
ATOM     20  C   UNL A   1     -27.043   2.931  25.654  0.00  0.00    +0.145 A 
ATOM     21  C   UNL A   1     -27.626   4.104  25.867  0.00  0.00    +0.037 A 
ATOM     22  C   UNL A   1     -29.021   4.270  25.558  0.00  0.00    +0.003 A 
ATOM     23  C   UNL A   1     -29.654   3.185  24.873  0.00  0.00    -0.000 A 
ATOM     24  C   UNL A   1     -28.963   2.044  24.620  0.00  0.00    -0.001 A 
ATOM     25  C   UNL A   1     -27.649   1.848  25.036  0.00  0.00    +0.037 A 
ATOM     26  C   UNL A   1     -31.067   3.394  24.421  0.00  0.00    -0.000 A 
ATOM     27  C   UNL A   1     -31.411   2.780  23.326  0.00  0.00    -0.000 A 
ATOM     28  C   UNL A   1     -30.739   1.513  23.002  0.00  0.00    -0.004 A 
ATOM     29  C   UNL A   1     -29.532   1.135  23.574  0.00  0.00    -0.014 A 
BRANCH  29  30
ATOM     30  C   UNL A   1     -28.807  -0.055  23.189  0.00  0.00    +0.130 C 
BRANCH  30  31
ATOM     31  C   UNL A   1     -29.267  -1.237  23.635  0.00  0.00    +0.402 C 
ATOM     32  F   UNL A   1     -28.589  -2.170  23.722  0.00  0.00    -0.170 F 
ATOM     33  F   UNL A   1     -29.811  -1.050  24.912  0.00  0.00    -0.170 F 
ATOM     34  F   UNL A   1     -30.440  -1.574  22.904  0.00  0.00    -0.170 F 
ENDBRANCH  30  31
ENDBRANCH  29  30
ENDBRANCH  19  20
ENDBRANCH   6  19
TORSDOF 7
ENDMDL
ENDMDL
