MODEL 1775
MODEL 1
REMARK VINA RESULT:    -5.267      0.000      0.000
REMARK INTER + INTRA:          -5.624
REMARK INTER:                  -5.575
REMARK INTRA:                  -0.049
REMARK UNBOUND:                -0.049
REMARK  Name = No_1775-gen_results/8p0m/2024-11-26-14-13-15/
REMARK  1 active torsions:
REMARK  status: ('A' for Active; 'I' for Inactive)
REMARK    1  A    between atoms: C_1  and  C_7
REMARK                            x       y       z     vdW  Elec       q    Type
REMARK                         _______ _______ _______ _____ _____    ______ ____
ROOT
ATOM      1  C   UNL A   1     -28.184 -11.447  32.368  0.00  0.00    +0.081 A 
ATOM      2  C   UNL A   1     -28.982 -10.627  32.758  0.00  0.00    +0.007 A 
ATOM      3  C   UNL A   1     -29.862  -9.961  31.928  0.00  0.00    +0.001 A 
ATOM      4  C   UNL A   1     -29.851 -10.290  30.543  0.00  0.00    +0.011 A 
ATOM      5  C   UNL A   1     -29.064 -11.330  30.185  0.00  0.00    +0.058 A 
ATOM      6  C   UNL A   1     -28.283 -11.938  31.057  0.00  0.00    +0.018 A 
ATOM      7 CL   UNL A   1     -29.092 -11.730  28.518  0.00  0.00    -0.082 Cl
ENDROOT
BRANCH   1   8
ATOM      8  C   UNL A   1     -27.282 -12.295  33.186  0.00  0.00    +0.388 C 
ATOM      9  O   UNL A   1     -27.281 -12.237  34.447  0.00  0.00    -0.241 OA
ATOM     10  O   UNL A   1     -26.357 -12.945  32.557  0.00  0.00    -0.241 OA
ENDBRANCH   1   8
TORSDOF 1
ENDMDL
ENDMDL
