REMARK  Name = No_1775-gen_results/8p0m/2024-11-26-14-13-15/
REMARK  1 active torsions:
REMARK  status: ('A' for Active; 'I' for Inactive)
REMARK    1  A    between atoms: C_1  and  C_7
REMARK                            x       y       z     vdW  Elec       q    Type
REMARK                         _______ _______ _______ _____ _____    ______ ____
ROOT
ATOM      1  C   UNL A   1     -28.016  -0.814  28.878  0.00  0.00    +0.081 A 
ATOM      2  C   UNL A   1     -27.064  -0.119  28.608  0.00  0.00    +0.007 A 
ATOM      3  C   UNL A   1     -27.001   0.691  27.491  0.00  0.00    +0.001 A 
ATOM      4  C   UNL A   1     -28.137   0.736  26.635  0.00  0.00    +0.011 A 
ATOM      5  C   UNL A   1     -29.236   0.076  27.069  0.00  0.00    +0.058 A 
ATOM      6  C   UNL A   1     -29.218  -0.643  28.175  0.00  0.00    +0.018 A 
ATOM      7 CL   UNL A   1     -30.602   0.171  26.038  0.00  0.00    -0.082 Cl
ENDROOT
BRANCH   1   8
ATOM      8  C   UNL A   1     -28.227  -1.626  30.102  0.00  0.00    +0.388 C 
ATOM      9  O   UNL A   1     -28.450  -1.090  31.222  0.00  0.00    -0.241 OA
ATOM     10  O   UNL A   1     -27.974  -2.892  30.017  0.00  0.00    -0.241 OA
ENDBRANCH   1   8
TORSDOF 1
