REMARK  Name = No_1776-gen_results/8p0m/2024-11-26-14-13-15/
REMARK  2 active torsions:
REMARK  status: ('A' for Active; 'I' for Inactive)
REMARK    1  A    between atoms: C_2  and  C_14
REMARK    2  A    between atoms: C_9  and  C_11
REMARK                            x       y       z     vdW  Elec       q    Type
REMARK                         _______ _______ _______ _____ _____    ______ ____
ROOT
ATOM      1  C   UNL A   1     -28.016  -0.814  28.878  0.00  0.00    +0.004 A 
ATOM      2  C   UNL A   1     -28.469  -0.785  29.829  0.00  0.00    +0.054 A 
ATOM      3  C   UNL A   1     -26.504  -0.778  28.877  0.00  0.00    +0.000 A 
ATOM      4  C   UNL A   1     -25.654  -0.660  27.719  0.00  0.00    +0.000 A 
ATOM      5  C   UNL A   1     -27.918  -0.937  31.182  0.00  0.00    +0.004 A 
ATOM      6  C   UNL A   1     -26.542  -0.940  31.261  0.00  0.00    +0.000 A 
ATOM      7  C   UNL A   1     -25.783  -0.893  30.120  0.00  0.00    +0.000 A 
ATOM      8  C   UNL A   1     -24.310  -0.301  27.853  0.00  0.00    +0.004 A 
ATOM      9  C   UNL A   1     -23.667  -0.460  29.099  0.00  0.00    +0.048 A 
ATOM     10  C   UNL A   1     -24.370  -0.664  30.203  0.00  0.00    +0.004 A 
ENDROOT
BRANCH   2  11
ATOM     11  C   UNL A   1     -30.064  -0.885  29.875  0.00  0.00    +0.249 C 
ATOM     12  O   UNL A   1     -30.538  -0.320  29.010  0.00  0.00    -0.270 OA
ATOM     13  N   UNL A   1     -30.725  -1.215  31.028  0.00  0.00    -0.276 N 
ATOM     14  C   UNL A   1     -32.167  -1.200  31.029  0.00  0.00    +0.094 C 
ATOM     15  C   UNL A   1     -32.820  -1.637  31.658  0.00  0.00    +0.022 C 
ATOM     16  C   UNL A   1     -32.297  -2.409  32.838  0.00  0.00    +0.004 C 
ATOM     17  C   UNL A   1     -30.877  -2.540  32.948  0.00  0.00    +0.022 C 
ATOM     18  C   UNL A   1     -30.109  -2.063  31.994  0.00  0.00    +0.094 C 
ENDBRANCH   2  11
BRANCH   9  19
ATOM     19  C   UNL A   1     -22.195  -0.229  29.131  0.00  0.00    +0.242 C 
ATOM     20  N   UNL A   1     -21.288   0.567  28.772  0.00  0.00    -0.116 NA
ATOM     21  F   UNL A   1     -21.631  -1.399  29.638  0.00  0.00    -0.181 F 
ENDBRANCH   9  19
TORSDOF 2
