MODEL 1776
MODEL 1
REMARK VINA RESULT:    -7.738      0.000      0.000
REMARK INTER + INTRA:          -8.848
REMARK INTER:                  -8.643
REMARK INTRA:                  -0.205
REMARK UNBOUND:                -0.205
REMARK  Name = No_1776-gen_results/8p0m/2024-11-26-14-13-15/
REMARK  2 active torsions:
REMARK  status: ('A' for Active; 'I' for Inactive)
REMARK    1  A    between atoms: C_2  and  C_14
REMARK    2  A    between atoms: C_9  and  C_11
REMARK                            x       y       z     vdW  Elec       q    Type
REMARK                         _______ _______ _______ _____ _____    ______ ____
ROOT
ATOM      1  C   UNL A   1     -24.927  -1.438  29.781  0.00  0.00    +0.004 A 
ATOM      2  C   UNL A   1     -24.156  -1.828  29.177  0.00  0.00    +0.054 A 
ATOM      3  C   UNL A   1     -26.043  -2.403  30.113  0.00  0.00    +0.000 A 
ATOM      4  C   UNL A   1     -27.274  -2.083  30.792  0.00  0.00    +0.000 A 
ATOM      5  C   UNL A   1     -23.833  -3.201  28.765  0.00  0.00    +0.004 A 
ATOM      6  C   UNL A   1     -24.792  -4.145  29.058  0.00  0.00    +0.000 A 
ATOM      7  C   UNL A   1     -25.914  -3.797  29.766  0.00  0.00    +0.000 A 
ATOM      8  C   UNL A   1     -28.362  -2.959  30.747  0.00  0.00    +0.004 A 
ATOM      9  C   UNL A   1     -28.153  -4.315  30.417  0.00  0.00    +0.048 A 
ATOM     10  C   UNL A   1     -27.013  -4.711  29.872  0.00  0.00    +0.004 A 
ENDROOT
BRANCH   2  11
ATOM     11  C   UNL A   1     -22.927  -0.858  28.856  0.00  0.00    +0.249 C 
ATOM     12  O   UNL A   1     -22.071  -1.021  29.586  0.00  0.00    -0.270 OA
ATOM     13  N   UNL A   1     -23.091   0.278  28.109  0.00  0.00    -0.276 N 
ATOM     14  C   UNL A   1     -21.963   1.159  27.930  0.00  0.00    +0.094 C 
ATOM     15  C   UNL A   1     -21.802   1.875  27.241  0.00  0.00    +0.022 C 
ATOM     16  C   UNL A   1     -22.872   2.171  26.227  0.00  0.00    +0.004 C 
ATOM     17  C   UNL A   1     -24.041   1.347  26.260  0.00  0.00    +0.022 C 
ATOM     18  C   UNL A   1     -24.096   0.338  27.100  0.00  0.00    +0.094 C 
ENDBRANCH   2  11
BRANCH   9  19
ATOM     19  C   UNL A   1     -29.321  -5.230  30.561  0.00  0.00    +0.242 C 
ATOM     20  N   UNL A   1     -29.879  -6.042  31.345  0.00  0.00    -0.116 NA
ATOM     21  F   UNL A   1     -29.928  -5.282  29.307  0.00  0.00    -0.181 F 
ENDBRANCH   9  19
TORSDOF 2
ENDMDL
ENDMDL
