MODEL 1777
MODEL 1
REMARK VINA RESULT:    -5.325      0.000      0.000
REMARK INTER + INTRA:          -5.860
REMARK INTER:                  -5.636
REMARK INTRA:                  -0.224
REMARK UNBOUND:                -0.224
REMARK  Name = No_1777-gen_results/8p0m/2024-11-26-14-13-15/
REMARK  1 active torsions:
REMARK  status: ('A' for Active; 'I' for Inactive)
REMARK    1  A    between atoms: C_3  and  C_4
REMARK                            x       y       z     vdW  Elec       q    Type
REMARK                         _______ _______ _______ _____ _____    ______ ____
ROOT
ATOM      1  C   UNL A   1      -8.415  -9.604  19.636  0.00  0.00    +0.004 A 
ATOM      2  C   UNL A   1      -7.705  -8.898  19.964  0.00  0.00    -0.000 A 
ATOM      3  C   UNL A   1      -8.719  -9.641  18.257  0.00  0.00    +0.071 A 
ATOM      4  C   UNL A   1      -6.936  -7.878  19.228  0.00  0.00    -0.000 A 
ATOM      5  C   UNL A   1      -7.189  -7.854  17.856  0.00  0.00    -0.000 A 
ATOM      6  C   UNL A   1      -8.048  -8.761  17.325  0.00  0.00    +0.004 A 
ENDROOT
BRANCH   3   7
ATOM      7  C   UNL A   1      -9.611 -10.643  17.617  0.00  0.00    +0.419 C 
ATOM      8  F   UNL A   1     -10.684 -10.485  18.056  0.00  0.00    -0.166 F 
ATOM      9  F   UNL A   1      -9.560 -10.532  16.281  0.00  0.00    -0.166 F 
ATOM     10  F   UNL A   1      -9.225 -11.916  17.979  0.00  0.00    -0.166 F 
ENDBRANCH   3   7
TORSDOF 1
ENDMDL
ENDMDL
