REMARK  Name = No_1778-gen_results/8p0m/2024-11-26-14-13-15/
REMARK  1 active torsions:
REMARK  status: ('A' for Active; 'I' for Inactive)
REMARK    1  A    between atoms: C_11  and  C_12
REMARK                            x       y       z     vdW  Elec       q    Type
REMARK                         _______ _______ _______ _____ _____    ______ ____
ROOT
ATOM      1  C   UNL A   1     -28.016  -0.814  28.878  0.00  0.00    +0.001 A 
ATOM      2  C   UNL A   1     -27.064  -0.119  28.608  0.00  0.00    -0.000 A 
ATOM      3  C   UNL A   1     -26.972   0.714  27.506  0.00  0.00    -0.003 A 
ATOM      4  C   UNL A   1     -28.105   0.774  26.642  0.00  0.00    -0.008 A 
ATOM      5  C   UNL A   1     -29.201   0.104  27.053  0.00  0.00    +0.050 A 
ATOM      6  C   UNL A   1     -29.210  -0.603  28.185  0.00  0.00    +0.015 A 
ATOM      7  N   UNL A   1     -30.308   0.222  26.222  0.00  0.00    -0.256 N 
ATOM      8  C   UNL A   1     -30.238   0.236  24.922  0.00  0.00    +0.099 C 
ATOM      9  C   UNL A   1     -29.159   1.008  24.407  0.00  0.00    +0.027 C 
ATOM     10  C   UNL A   1     -27.887   1.000  25.188  0.00  0.00    +0.029 C 
ATOM     11  C   UNL A   1     -31.626  -0.212  26.756  0.00  0.00    +0.253 C 
ATOM     12  O   UNL A   1     -32.315  -1.027  26.228  0.00  0.00    -0.270 OA
ENDROOT
BRANCH  11  13
ATOM     13  C   UNL A   1     -32.000   0.404  27.862  0.00  0.00    +0.054 A 
ATOM     14  C   UNL A   1     -31.944   1.764  27.879  0.00  0.00    +0.004 A 
ATOM     15  C   UNL A   1     -32.244   2.558  29.040  0.00  0.00    +0.000 A 
ATOM     16  C   UNL A   1     -32.730   1.877  30.145  0.00  0.00    +0.000 A 
ATOM     17  C   UNL A   1     -32.856   0.515  30.160  0.00  0.00    +0.000 A 
ATOM     18  C   UNL A   1     -32.450  -0.222  29.051  0.00  0.00    +0.004 A 
ENDBRANCH  11  13
TORSDOF 1
