MODEL 1778
MODEL 1
REMARK VINA RESULT:    -7.357      0.000      0.000
REMARK INTER + INTRA:          -8.113
REMARK INTER:                  -7.787
REMARK INTRA:                  -0.325
REMARK UNBOUND:                -0.325
REMARK  Name = No_1778-gen_results/8p0m/2024-11-26-14-13-15/
REMARK  1 active torsions:
REMARK  status: ('A' for Active; 'I' for Inactive)
REMARK    1  A    between atoms: C_11  and  C_12
REMARK                            x       y       z     vdW  Elec       q    Type
REMARK                         _______ _______ _______ _____ _____    ______ ____
ROOT
ATOM      1  C   UNL A   1     -26.594  -0.022  26.428  0.00  0.00    +0.001 A 
ATOM      2  C   UNL A   1     -25.959   0.321  25.458  0.00  0.00    -0.000 A 
ATOM      3  C   UNL A   1     -24.624   0.687  25.467  0.00  0.00    -0.003 A 
ATOM      4  C   UNL A   1     -23.943   0.624  26.718  0.00  0.00    -0.008 A 
ATOM      5  C   UNL A   1     -24.638   0.095  27.746  0.00  0.00    +0.050 A 
ATOM      6  C   UNL A   1     -25.902  -0.310  27.607  0.00  0.00    +0.015 A 
ATOM      7  N   UNL A   1     -23.935  -0.005  28.941  0.00  0.00    -0.256 N 
ATOM      8  C   UNL A   1     -23.099   0.898  29.366  0.00  0.00    +0.099 C 
ATOM      9  C   UNL A   1     -22.258   1.435  28.351  0.00  0.00    +0.027 C 
ATOM     10  C   UNL A   1     -22.857   1.602  26.994  0.00  0.00    +0.029 C 
ATOM     11  C   UNL A   1     -24.511  -0.856  30.015  0.00  0.00    +0.253 C 
ATOM     12  O   UNL A   1     -24.748  -0.460  31.113  0.00  0.00    -0.270 OA
ENDROOT
BRANCH  11  13
ATOM     13  C   UNL A   1     -24.719  -2.113  29.669  0.00  0.00    +0.054 A 
ATOM     14  C   UNL A   1     -25.914  -2.672  30.002  0.00  0.00    +0.004 A 
ATOM     15  C   UNL A   1     -26.242  -4.051  29.759  0.00  0.00    +0.000 A 
ATOM     16  C   UNL A   1     -25.317  -4.788  29.037  0.00  0.00    +0.000 A 
ATOM     17  C   UNL A   1     -24.123  -4.256  28.632  0.00  0.00    +0.000 A 
ATOM     18  C   UNL A   1     -23.801  -2.949  28.985  0.00  0.00    +0.004 A 
ENDBRANCH  11  13
TORSDOF 1
ENDMDL
ENDMDL
