MODEL 1779
MODEL 1
REMARK VINA RESULT:    -5.177      0.000      0.000
REMARK INTER + INTRA:          -5.177
REMARK INTER:                  -5.177
REMARK INTRA:                   0.000
REMARK UNBOUND:                 0.000
REMARK  Name = No_1779-gen_results/8p0m/2024-11-26-14-13-15/
REMARK  0 active torsions:
REMARK  status: ('A' for Active; 'I' for Inactive)
REMARK                            x       y       z     vdW  Elec       q    Type
REMARK                         _______ _______ _______ _____ _____    ______ ____
ROOT
ATOM      1  C   UNL A   1      -9.535 -10.390  18.191  0.00  0.00    -0.026 C 
ATOM      2  C   UNL A   1      -9.751 -10.389  17.160  0.00  0.00    +0.097 C 
ATOM      3  C   UNL A   1      -8.146 -10.308  18.546  0.00  0.00    +0.023 C 
ATOM      4  C   UNL A   1      -7.733 -10.093  19.948  0.00  0.00    +0.004 C 
ATOM      5  C   UNL A   1      -8.585  -9.378  20.811  0.00  0.00    +0.001 C 
ATOM      6  C   UNL A   1      -9.885  -9.054  20.371  0.00  0.00    +0.004 C 
ATOM      7  C   UNL A   1     -10.302  -9.400  19.139  0.00  0.00    +0.023 C 
ATOM      8  N   UNL A   1     -11.141 -10.558  16.728  0.00  0.00    -0.127 NA
ENDROOT
TORSDOF 0
ENDMDL
ENDMDL
