MODEL 177
MODEL 1
REMARK VINA RESULT:    -5.170      0.000      0.000
REMARK INTER + INTRA:          -5.631
REMARK INTER:                  -5.472
REMARK INTRA:                  -0.159
REMARK UNBOUND:                -0.159
REMARK  Name = No_177-gen_results/8p0m/2024-11-26-14-13-15/
REMARK  1 active torsions:
REMARK  status: ('A' for Active; 'I' for Inactive)
REMARK    1  A    between atoms: C_2  and  N_3
REMARK                            x       y       z     vdW  Elec       q    Type
REMARK                         _______ _______ _______ _____ _____    ______ ____
ROOT
ATOM      1  C   UNL A   1     -23.776  -3.343  28.934  0.00  0.00    +0.020 C 
ATOM      2  C   UNL A   1     -24.679  -2.548  29.058  0.00  0.00    +0.074 C 
ATOM      3  C   UNL A   1     -24.229  -4.622  28.506  0.00  0.00    +0.002 C 
ATOM      4  C   UNL A   1     -25.125  -5.299  29.324  0.00  0.00    +0.000 C 
ATOM      5  C   UNL A   1     -26.363  -4.459  29.588  0.00  0.00    +0.002 C 
ATOM      6  C   UNL A   1     -25.940  -2.994  29.687  0.00  0.00    +0.020 C 
ENDROOT
BRANCH   2   7
ATOM      7  N   UNL A   1     -24.782  -1.464  28.341  0.00  0.00    -0.291 N 
ATOM      8  C   UNL A   1     -25.330  -0.874  27.644  0.00  0.00    +0.159 C 
ATOM      9  N   UNL A   1     -24.856   0.248  27.020  0.00  0.00    -0.252 NA
ATOM     10  C   UNL A   1     -23.485  -0.531  28.518  0.00  0.00    +0.118 C 
ATOM     11  C   UNL A   1     -23.666   0.477  27.670  0.00  0.00    +0.148 C 
ENDBRANCH   2   7
TORSDOF 1
ENDMDL
ENDMDL
