REMARK  Name = No_1780-gen_results/8p0m/2024-11-26-14-13-15/
REMARK  8 active torsions:
REMARK  status: ('A' for Active; 'I' for Inactive)
REMARK    1  A    between atoms: C_2  and  C_7
REMARK    2  A    between atoms: C_7  and  C_8
REMARK    3  A    between atoms: C_7  and  C_14
REMARK    4  A    between atoms: C_15  and  C_16
REMARK    5  A    between atoms: C_16  and  C_17
REMARK    6  A    between atoms: C_21  and  C_22
REMARK    7  A    between atoms: C_27  and  N_29
REMARK    8  A    between atoms: N_29  and  C_30
REMARK                            x       y       z     vdW  Elec       q    Type
REMARK                         _______ _______ _______ _____ _____    ______ ____
ROOT
ATOM      1  C   UNL A   1     -27.936  -0.008  24.309  0.00  0.00    -0.018 A 
ATOM      2  C   UNL A   1     -29.035  -0.855  24.134  0.00  0.00    -0.004 A 
ATOM      3  C   UNL A   1     -30.253  -0.845  24.697  0.00  0.00    -0.000 A 
ATOM      4  C   UNL A   1     -30.553   0.413  25.372  0.00  0.00    +0.008 A 
ATOM      5  C   UNL A   1     -29.679   1.511  25.281  0.00  0.00    +0.088 A 
ATOM      6  C   UNL A   1     -28.304   1.247  24.842  0.00  0.00    +0.004 A 
ENDROOT
BRANCH   5   7
ATOM      7  C   UNL A   1     -29.969   2.769  25.841  0.00  0.00    +0.372 C 
ATOM      8  N   UNL A   1     -29.154   3.754  25.774  0.00  0.00    -0.032 NA
ATOM      9  N   UNL A   1     -31.218   3.113  26.189  0.00  0.00    -0.029 NA
ATOM     10  C   UNL A   1     -31.361   4.406  26.626  0.00  0.00    +0.286 C 
ATOM     11  C   UNL A   1     -29.777   4.871  26.279  0.00  0.00    +0.378 C 
BRANCH  11  12
ATOM     12  N   UNL A   1     -29.318   6.109  26.488  0.00  0.00    -0.184 NA
BRANCH  12  13
ATOM     13  C   UNL A   1     -29.156   6.674  27.661  0.00  0.00    +0.070 A 
ATOM     14  C   UNL A   1     -28.576   7.897  27.697  0.00  0.00    +0.016 A 
ATOM     15  C   UNL A   1     -28.198   8.592  28.864  0.00  0.00    +0.001 A 
ATOM     16  C   UNL A   1     -28.454   7.874  30.066  0.00  0.00    +0.000 A 
ATOM     17  C   UNL A   1     -29.260   5.989  28.840  0.00  0.00    +0.016 A 
ATOM     18  C   UNL A   1     -28.942   6.572  30.047  0.00  0.00    +0.001 A 
ENDBRANCH  12  13
ENDBRANCH  11  12
ENDBRANCH   5   7
BRANCH   1  19
ATOM     19  C   UNL A   1     -26.828  -0.541  25.110  0.00  0.00    +0.052 C 
BRANCH  19  21
ATOM     20  C   UNL A   1     -25.501   0.460  26.853  0.00  0.00    -0.022 C 
ATOM     21  C   UNL A   1     -25.861   0.401  25.554  0.00  0.00    -0.025 C 
BRANCH  20  22
ATOM     22  C   UNL A   1     -25.891  -0.626  27.786  0.00  0.00    +0.066 C 
BRANCH  22  24
ATOM     23  C   UNL A   1     -28.016  -0.814  28.878  0.00  0.00    +0.038 A 
ATOM     24  C   UNL A   1     -27.064  -0.119  28.608  0.00  0.00    -0.011 A 
ATOM     25  C   UNL A   1     -26.929   1.171  29.008  0.00  0.00    -0.003 A 
ATOM     26  C   UNL A   1     -27.956   1.741  29.784  0.00  0.00    +0.003 A 
ATOM     27  C   UNL A   1     -29.057  -0.327  29.747  0.00  0.00    +0.196 A 
ATOM     28  C   UNL A   1     -28.983   0.972  30.152  0.00  0.00    +0.042 A 
ATOM     29  O   UNL A   1     -30.009  -1.212  30.088  0.00  0.00    -0.287 OA
ENDBRANCH  22  24
BRANCH  22  30
ATOM     30  C   UNL A   1     -24.718  -1.061  28.613  0.00  0.00    -0.014 A 
ATOM     31  C   UNL A   1     -24.145  -0.424  29.635  0.00  0.00    -0.004 A 
ATOM     32  C   UNL A   1     -23.078  -0.969  30.288  0.00  0.00    -0.000 A 
ATOM     33  C   UNL A   1     -22.490  -2.055  29.694  0.00  0.00    -0.000 A 
ATOM     34  C   UNL A   1     -23.179  -2.788  28.740  0.00  0.00    -0.000 A 
ATOM     35  C   UNL A   1     -24.283  -2.334  28.233  0.00  0.00    -0.004 A 
ENDBRANCH  22  30
ENDBRANCH  20  22
ENDBRANCH  19  21
ENDBRANCH   1  19
TORSDOF 8
