REMARK  Name = No_1781-gen_results/8p0m/2024-11-26-14-13-15/
REMARK  5 active torsions:
REMARK  status: ('A' for Active; 'I' for Inactive)
REMARK    1  A    between atoms: C_4  and  C_13
REMARK    2  A    between atoms: C_13  and  C_15
REMARK    3  A    between atoms: C_15  and  C_16
REMARK    4  A    between atoms: C_17  and  C_18
REMARK    5  A    between atoms: C_19  and  C_20
REMARK                            x       y       z     vdW  Elec       q    Type
REMARK                         _______ _______ _______ _____ _____    ______ ____
ROOT
ATOM      1  C   UNL A   1     -28.016  -0.814  28.878  0.00  0.00    +0.049 A 
ATOM      2  C   UNL A   1     -28.469  -0.785  29.829  0.00  0.00    +0.249 C 
ATOM      3  C   UNL A   1     -28.182   0.428  28.113  0.00  0.00    -0.000 A 
ATOM      4  C   UNL A   1     -27.450   0.643  26.850  0.00  0.00    -0.022 A 
ATOM      5  C   UNL A   1     -26.181   0.036  26.715  0.00  0.00    -0.005 A 
ATOM      6  C   UNL A   1     -25.780  -0.933  27.694  0.00  0.00    -0.004 A 
ATOM      7  C   UNL A   1     -26.557  -1.213  28.741  0.00  0.00    -0.016 A 
ATOM      8  N   UNL A   1     -28.381  -1.999  30.655  0.00  0.00    -0.274 N 
ATOM      9  O   UNL A   1     -29.447  -0.084  30.353  0.00  0.00    -0.270 OA
ATOM     10  C   UNL A   1     -27.483  -3.010  30.332  0.00  0.00    +0.098 C 
ATOM     11  C   UNL A   1     -26.171  -2.513  29.459  0.00  0.00    +0.048 C 
ATOM     12  C   UNL A   1     -29.258  -2.448  31.775  0.00  0.00    +0.115 C 
ENDROOT
BRANCH   4  13
ATOM     13  C   UNL A   1     -27.764   1.650  25.877  0.00  0.00    +0.027 C 
ATOM     14  C   UNL A   1     -27.280   2.875  26.256  0.00  0.00    +0.005 C 
BRANCH  13  15
ATOM     15  C   UNL A   1     -28.607   1.370  24.835  0.00  0.00    +0.030 C 
BRANCH  15  16
ATOM     16  C   UNL A   1     -29.948   1.221  25.088  0.00  0.00    -0.026 C 
ATOM     17  C   UNL A   1     -30.544   1.553  26.126  0.00  0.00    -0.005 C 
BRANCH  17  18
ATOM     18  C   UNL A   1     -31.702   1.645  26.504  0.00  0.00    -0.000 C 
ATOM     19  C   UNL A   1     -32.223   2.072  27.772  0.00  0.00    -0.000 C 
BRANCH  19  20
ATOM     20  C   UNL A   1     -31.291   2.525  28.717  0.00  0.00    -0.000 C 
ATOM     21  C   UNL A   1     -29.984   2.683  28.363  0.00  0.00    -0.000 C 
ENDBRANCH  19  20
ENDBRANCH  17  18
ENDBRANCH  15  16
ENDBRANCH  13  15
ENDBRANCH   4  13
TORSDOF 5
