REMARK  Name = No_1782-gen_results/8p0m/2024-11-26-14-13-15/
REMARK  1 active torsions:
REMARK  status: ('A' for Active; 'I' for Inactive)
REMARK    1  A    between atoms: C_15  and  C_17
REMARK                            x       y       z     vdW  Elec       q    Type
REMARK                         _______ _______ _______ _____ _____    ______ ____
ROOT
ATOM      1  C   UNL A   1     -28.016  -0.814  28.878  0.00  0.00    -0.000 A 
ATOM      2  C   UNL A   1     -28.469  -0.785  29.829  0.00  0.00    -0.000 A 
ATOM      3  C   UNL A   1     -28.196   0.348  28.055  0.00  0.00    -0.004 A 
ATOM      4  C   UNL A   1     -29.019   1.350  28.378  0.00  0.00    -0.018 A 
ATOM      5  C   UNL A   1     -29.411   0.180  30.378  0.00  0.00    -0.000 A 
ATOM      6  C   UNL A   1     -29.606   1.250  29.619  0.00  0.00    -0.004 A 
ATOM      7  C   UNL A   1     -27.460   0.380  26.709  0.00  0.00    -0.000 C 
ATOM      8  C   UNL A   1     -27.930   0.584  25.680  0.00  0.00    -0.000 C 
ATOM      9  C   UNL A   1     -29.352   0.814  25.593  0.00  0.00    -0.004 A 
ATOM     10  C   UNL A   1     -30.087   0.379  24.786  0.00  0.00    -0.000 A 
ATOM     11  C   UNL A   1     -31.506   0.629  24.678  0.00  0.00    -0.000 A 
ATOM     12  C   UNL A   1     -32.001   1.478  25.648  0.00  0.00    -0.000 A 
ATOM     13  C   UNL A   1     -31.255   2.085  26.563  0.00  0.00    -0.004 A 
ATOM     14  C   UNL A   1     -29.857   1.810  26.587  0.00  0.00    -0.022 A 
ATOM     15  C   UNL A   1     -28.148   2.736  28.399  0.00  0.00    +0.045 C 
ATOM     16  C   UNL A   1     -29.088   3.152  26.507  0.00  0.00    +0.023 C 
ATOM     17  C   UNL A   1     -28.286   3.570  27.325  0.00  0.00    +0.012 C 
ATOM     18  C   UNL A   1     -29.396   3.985  25.248  0.00  0.00    +0.005 C 
ATOM     19  C   UNL A   1     -27.565   4.833  27.316  0.00  0.00    +0.001 C 
ENDROOT
BRANCH  15  20
ATOM     20  C   UNL A   1     -27.433   3.027  29.554  0.00  0.00    -0.018 A 
ATOM     21  C   UNL A   1     -27.540   3.914  30.291  0.00  0.00    -0.004 A 
ATOM     22  C   UNL A   1     -26.178   2.175  29.709  0.00  0.00    -0.004 A 
ATOM     23  C   UNL A   1     -25.318   2.391  30.766  0.00  0.00    -0.000 A 
ATOM     24  C   UNL A   1     -25.559   3.425  31.657  0.00  0.00    -0.000 A 
ATOM     25  C   UNL A   1     -26.675   4.231  31.498  0.00  0.00    -0.000 A 
ENDBRANCH  15  20
TORSDOF 1
