MODEL 1782
MODEL 1
REMARK VINA RESULT:    -7.837      0.000      0.000
REMARK INTER + INTRA:          -8.946
REMARK INTER:                  -8.295
REMARK INTRA:                  -0.651
REMARK UNBOUND:                -0.651
REMARK  Name = No_1782-gen_results/8p0m/2024-11-26-14-13-15/
REMARK  1 active torsions:
REMARK  status: ('A' for Active; 'I' for Inactive)
REMARK    1  A    between atoms: C_15  and  C_17
REMARK                            x       y       z     vdW  Elec       q    Type
REMARK                         _______ _______ _______ _____ _____    ______ ____
ROOT
ATOM      1  C   UNL A   1     -23.821  -2.736  28.910  0.00  0.00    -0.000 A 
ATOM      2  C   UNL A   1     -24.502  -3.404  29.358  0.00  0.00    -0.000 A 
ATOM      3  C   UNL A   1     -24.232  -1.363  28.842  0.00  0.00    -0.004 A 
ATOM      4  C   UNL A   1     -25.462  -0.953  29.166  0.00  0.00    -0.018 A 
ATOM      5  C   UNL A   1     -25.884  -3.187  29.760  0.00  0.00    -0.000 A 
ATOM      6  C   UNL A   1     -26.288  -1.926  29.682  0.00  0.00    -0.004 A 
ATOM      7  C   UNL A   1     -23.219  -0.349  28.294  0.00  0.00    -0.000 C 
ATOM      8  C   UNL A   1     -23.401   0.406  27.446  0.00  0.00    -0.000 C 
ATOM      9  C   UNL A   1     -24.685   0.422  26.787  0.00  0.00    -0.004 A 
ATOM     10  C   UNL A   1     -24.882   0.518  25.632  0.00  0.00    -0.000 A 
ATOM     11  C   UNL A   1     -26.165   0.563  24.970  0.00  0.00    -0.000 A 
ATOM     12  C   UNL A   1     -27.243   0.485  25.830  0.00  0.00    -0.000 A 
ATOM     13  C   UNL A   1     -27.143   0.447  27.154  0.00  0.00    -0.004 A 
ATOM     14  C   UNL A   1     -25.841   0.435  27.734  0.00  0.00    -0.022 A 
ATOM     15  C   UNL A   1     -25.327   0.191  30.329  0.00  0.00    +0.045 C 
ATOM     16  C   UNL A   1     -25.744   1.597  28.753  0.00  0.00    +0.023 C 
ATOM     17  C   UNL A   1     -25.486   1.491  29.940  0.00  0.00    +0.012 C 
ATOM     18  C   UNL A   1     -25.992   2.993  28.149  0.00  0.00    +0.005 C 
ATOM     19  C   UNL A   1     -25.417   2.541  30.944  0.00  0.00    +0.001 C 
ENDROOT
BRANCH  15  20
ATOM     20  C   UNL A   1     -25.188  -0.243  31.642  0.00  0.00    -0.018 A 
ATOM     21  C   UNL A   1     -25.908  -0.129  32.542  0.00  0.00    -0.004 A 
ATOM     22  C   UNL A   1     -23.775  -0.711  31.969  0.00  0.00    -0.004 A 
ATOM     23  C   UNL A   1     -23.452  -1.103  33.252  0.00  0.00    -0.000 A 
ATOM     24  C   UNL A   1     -24.396  -1.015  34.263  0.00  0.00    -0.000 A 
ATOM     25  C   UNL A   1     -25.671  -0.550  33.982  0.00  0.00    -0.000 A 
ENDBRANCH  15  20
TORSDOF 1
ENDMDL
ENDMDL
