MODEL 1783
MODEL 1
REMARK VINA RESULT:    -4.837      0.000      0.000
REMARK INTER + INTRA:          -4.837
REMARK INTER:                  -4.837
REMARK INTRA:                   0.000
REMARK UNBOUND:                 0.000
REMARK  Name = No_1783-gen_results/8p0m/2024-11-26-14-13-15/
REMARK  0 active torsions:
REMARK  status: ('A' for Active; 'I' for Inactive)
REMARK                            x       y       z     vdW  Elec       q    Type
REMARK                         _______ _______ _______ _____ _____    ______ ____
ROOT
ATOM      1  C   UNL A   1     -24.397  -1.223  28.914  0.00  0.00    +0.271 C 
ATOM      2  C   UNL A   1     -24.707  -2.391  28.968  0.00  0.00    +0.012 C 
ATOM      3  C   UNL A   1     -23.861  -3.432  28.587  0.00  0.00    +0.027 C 
ATOM      4  C   UNL A   1     -24.159  -4.877  28.609  0.00  0.00    +0.004 C 
ATOM      5  C   UNL A   1     -25.364  -5.253  29.277  0.00  0.00    +0.001 C 
ATOM      6  C   UNL A   1     -26.222  -4.239  29.717  0.00  0.00    +0.004 C 
ATOM      7  C   UNL A   1     -25.937  -2.923  29.598  0.00  0.00    +0.027 C 
ATOM      8  F   UNL A   1     -23.187  -0.858  28.864  0.00  0.00    -0.173 F 
ATOM      9  F   UNL A   1     -24.940  -0.438  29.892  0.00  0.00    -0.173 F 
ENDROOT
TORSDOF 0
ENDMDL
ENDMDL
