REMARK  Name = No_1784-gen_results/8p0m/2024-11-26-14-13-15/
REMARK  3 active torsions:
REMARK  status: ('A' for Active; 'I' for Inactive)
REMARK    1  A    between atoms: C_3  and  C_7
REMARK    2  A    between atoms: C_8  and  C_16
REMARK    3  A    between atoms: C_11  and  C_13
REMARK                            x       y       z     vdW  Elec       q    Type
REMARK                         _______ _______ _______ _____ _____    ______ ____
ROOT
ATOM      1  C   UNL A   1     -26.317   0.399  27.365  0.00  0.00    +0.008 A 
ATOM      2  C   UNL A   1     -26.881   0.971  26.372  0.00  0.00    +0.000 A 
ATOM      3  C   UNL A   1     -26.146   0.970  25.097  0.00  0.00    +0.000 A 
ATOM      4  C   UNL A   1     -24.779   0.561  25.112  0.00  0.00    +0.001 A 
ATOM      5  C   UNL A   1     -25.007  -0.116  27.299  0.00  0.00    +0.042 A 
ATOM      6  C   UNL A   1     -24.288   0.006  26.223  0.00  0.00    +0.008 A 
ENDROOT
BRANCH   2   7
ATOM      7  C   UNL A   1     -28.282   1.470  26.267  0.00  0.00    -0.004 A 
ATOM      8  C   UNL A   1     -28.425   2.793  26.474  0.00  0.00    -0.000 A 
ATOM      9  C   UNL A   1     -29.028   3.474  27.000  0.00  0.00    -0.000 A 
ATOM     10  C   UNL A   1     -30.091   3.022  27.977  0.00  0.00    -0.000 A 
ATOM     11  C   UNL A   1     -30.425   1.751  27.663  0.00  0.00    -0.004 A 
ATOM     12  C   UNL A   1     -29.009   0.914  27.620  0.00  0.00    -0.022 A 
ATOM     13  C   UNL A   1     -29.686  -0.324  27.016  0.00  0.00    +0.031 C 
ENDBRANCH   2   7
BRANCH   1  16
ATOM     14  C   UNL A   1     -28.016  -0.814  28.878  0.00  0.00    +0.000 A 
ATOM     15  C   UNL A   1     -28.469  -0.785  29.829  0.00  0.00    +0.000 A 
ATOM     16  C   UNL A   1     -27.087   0.290  28.638  0.00  0.00    +0.001 A 
ATOM     17  C   UNL A   1     -26.832   1.249  29.587  0.00  0.00    +0.000 A 
ATOM     18  C   UNL A   1     -28.391   0.080  31.006  0.00  0.00    +0.000 A 
ATOM     19  C   UNL A   1     -27.494   1.152  30.784  0.00  0.00    +0.000 A 
ENDBRANCH   1  16
BRANCH   5  20
ATOM     20  C   UNL A   1     -24.394  -0.723  28.538  0.00  0.00    -0.064 C 
ATOM     21  C   UNL A   1     -23.629  -1.192  29.085  0.00  0.00    -0.085 C 
ATOM     22  C   UNL A   1     -22.611  -1.623  29.908  0.00  0.00    +0.090 C 
ENDBRANCH   5  20
TORSDOF 3
