MODEL 1784
MODEL 1
REMARK VINA RESULT:    -7.013      0.000      0.000
REMARK INTER + INTRA:         -10.434
REMARK INTER:                  -8.243
REMARK INTRA:                  -2.191
REMARK UNBOUND:                -2.191
REMARK  Name = No_1784-gen_results/8p0m/2024-11-26-14-13-15/
REMARK  3 active torsions:
REMARK  status: ('A' for Active; 'I' for Inactive)
REMARK    1  A    between atoms: C_3  and  C_7
REMARK    2  A    between atoms: C_8  and  C_16
REMARK    3  A    between atoms: C_11  and  C_13
REMARK                            x       y       z     vdW  Elec       q    Type
REMARK                         _______ _______ _______ _____ _____    ______ ____
ROOT
ATOM      1  C   UNL A   1     -25.992  -2.649  29.783  0.00  0.00    +0.008 A 
ATOM      2  C   UNL A   1     -24.845  -2.219  29.419  0.00  0.00    +0.000 A 
ATOM      3  C   UNL A   1     -23.944  -3.188  28.775  0.00  0.00    +0.000 A 
ATOM      4  C   UNL A   1     -24.301  -4.569  28.822  0.00  0.00    +0.001 A 
ATOM      5  C   UNL A   1     -26.358  -4.006  29.687  0.00  0.00    +0.042 A 
ATOM      6  C   UNL A   1     -25.519  -4.901  29.257  0.00  0.00    +0.008 A 
ENDROOT
BRANCH   2   7
ATOM      7  C   UNL A   1     -24.360  -0.810  29.371  0.00  0.00    -0.004 A 
ATOM      8  C   UNL A   1     -24.401  -0.242  28.151  0.00  0.00    -0.000 A 
ATOM      9  C   UNL A   1     -23.810   0.334  27.500  0.00  0.00    -0.000 A 
ATOM     10  C   UNL A   1     -22.368   0.671  27.808  0.00  0.00    -0.000 A 
ATOM     11  C   UNL A   1     -22.195   0.562  29.143  0.00  0.00    -0.004 A 
ATOM     12  C   UNL A   1     -22.740  -0.937  29.544  0.00  0.00    -0.022 A 
ATOM     13  C   UNL A   1     -22.653  -0.636  31.047  0.00  0.00    +0.031 C 
ENDBRANCH   2   7
BRANCH   1  16
ATOM     14  C   UNL A   1     -26.982  -1.322  31.760  0.00  0.00    +0.000 A 
ATOM     15  C   UNL A   1     -27.697  -0.590  32.010  0.00  0.00    +0.000 A 
ATOM     16  C   UNL A   1     -26.964  -1.662  30.337  0.00  0.00    +0.001 A 
ATOM     17  C   UNL A   1     -27.797  -1.055  29.431  0.00  0.00    +0.000 A 
ATOM     18  C   UNL A   1     -28.683   0.209  31.283  0.00  0.00    +0.000 A 
ATOM     19  C   UNL A   1     -28.674  -0.112  29.905  0.00  0.00    +0.000 A 
ENDBRANCH   1  16
BRANCH   5  20
ATOM     20  C   UNL A   1     -27.711  -4.439  30.196  0.00  0.00    -0.064 C 
ATOM     21  C   UNL A   1     -28.403  -4.707  30.941  0.00  0.00    -0.085 C 
ATOM     22  C   UNL A   1     -29.407  -4.875  31.869  0.00  0.00    +0.090 C 
ENDBRANCH   5  20
TORSDOF 3
ENDMDL
ENDMDL
