REMARK  Name = No_1785-gen_results/8p0m/2024-11-26-14-13-15/
REMARK  1 active torsions:
REMARK  status: ('A' for Active; 'I' for Inactive)
REMARK    1  A    between atoms: C_2  and  C_7
REMARK                            x       y       z     vdW  Elec       q    Type
REMARK                         _______ _______ _______ _____ _____    ______ ____
ROOT
ATOM      1  C   UNL A   1     -30.077  -0.886  30.024  0.00  0.00    +0.251 C 
ATOM      2  N   UNL A   1     -30.707  -0.158  29.259  0.00  0.00    -0.250 N 
ATOM      3  C   UNL A   1     -31.882  -0.347  28.784  0.00  0.00    +0.240 C 
ATOM      4  C   UNL A   1     -32.471   0.504  27.802  0.00  0.00    +0.057 C 
ATOM      5  F   UNL A   1     -32.592  -1.375  29.077  0.00  0.00    -0.215 F 
ATOM      6  C   UNL A   1     -32.115   1.810  27.867  0.00  0.00    +0.006 C 
ATOM      7  C   UNL A   1     -30.771   2.135  28.287  0.00  0.00    +0.022 C 
ATOM      8  C   UNL A   1     -30.139   1.199  29.037  0.00  0.00    +0.096 C 
ATOM      9  O   UNL A   1     -30.460  -2.011  30.498  0.00  0.00    -0.270 OA
ENDROOT
BRANCH   1  11
ATOM     10  C   UNL A   1     -28.016  -0.814  28.878  0.00  0.00    +0.004 A 
ATOM     11  C   UNL A   1     -28.469  -0.785  29.829  0.00  0.00    +0.054 A 
ATOM     12  C   UNL A   1     -26.504  -0.778  28.877  0.00  0.00    +0.000 A 
ATOM     13  C   UNL A   1     -25.810  -0.853  30.103  0.00  0.00    +0.000 A 
ATOM     14  C   UNL A   1     -27.991  -0.892  31.226  0.00  0.00    +0.004 A 
ATOM     15  C   UNL A   1     -26.604  -0.868  31.265  0.00  0.00    +0.000 A 
ENDBRANCH   1  11
TORSDOF 1
