MODEL 1785
MODEL 1
REMARK VINA RESULT:    -6.989      0.000      0.000
REMARK INTER + INTRA:          -6.707
REMARK INTER:                  -7.398
REMARK INTRA:                   0.691
REMARK UNBOUND:                 0.691
REMARK  Name = No_1785-gen_results/8p0m/2024-11-26-14-13-15/
REMARK  1 active torsions:
REMARK  status: ('A' for Active; 'I' for Inactive)
REMARK    1  A    between atoms: C_2  and  C_7
REMARK                            x       y       z     vdW  Elec       q    Type
REMARK                         _______ _______ _______ _____ _____    ______ ____
ROOT
ATOM      1  C   UNL A   1     -25.027  -1.169  28.810  0.00  0.00    +0.251 C 
ATOM      2  N   UNL A   1     -23.997  -0.566  28.514  0.00  0.00    -0.250 N 
ATOM      3  C   UNL A   1     -23.889   0.540  27.876  0.00  0.00    +0.240 C 
ATOM      4  C   UNL A   1     -22.635   1.089  27.477  0.00  0.00    +0.057 C 
ATOM      5  F   UNL A   1     -24.906   1.199  27.453  0.00  0.00    -0.215 F 
ATOM      6  C   UNL A   1     -21.592   0.837  28.305  0.00  0.00    +0.006 C 
ATOM      7  C   UNL A   1     -21.556  -0.432  28.995  0.00  0.00    +0.022 C 
ATOM      8  C   UNL A   1     -22.749  -1.054  29.162  0.00  0.00    +0.096 C 
ATOM      9  O   UNL A   1     -26.224  -0.824  28.521  0.00  0.00    -0.270 OA
ENDROOT
BRANCH   1  11
ATOM     10  C   UNL A   1     -24.035  -3.273  28.414  0.00  0.00    +0.004 A 
ATOM     11  C   UNL A   1     -24.826  -2.777  28.903  0.00  0.00    +0.054 A 
ATOM     12  C   UNL A   1     -24.033  -4.780  28.546  0.00  0.00    +0.000 A 
ATOM     13  C   UNL A   1     -25.126  -5.421  29.166  0.00  0.00    +0.000 A 
ATOM     14  C   UNL A   1     -26.079  -3.196  29.570  0.00  0.00    +0.004 A 
ATOM     15  C   UNL A   1     -26.116  -4.577  29.704  0.00  0.00    +0.000 A 
ENDBRANCH   1  11
TORSDOF 1
ENDMDL
ENDMDL
