MODEL 1786
MODEL 1
REMARK VINA RESULT:    -6.879      0.000      0.000
REMARK INTER + INTRA:          -8.098
REMARK INTER:                  -7.683
REMARK INTRA:                  -0.415
REMARK UNBOUND:                -0.415
REMARK  Name = No_1786-gen_results/8p0m/2024-11-26-14-13-15/
REMARK  2 active torsions:
REMARK  status: ('A' for Active; 'I' for Inactive)
REMARK    1  A    between atoms: C_1  and  C_2
REMARK    2  A    between atoms: C_5  and  C_10
REMARK                            x       y       z     vdW  Elec       q    Type
REMARK                         _______ _______ _______ _____ _____    ______ ____
ROOT
ATOM      1  C   UNL A   1     -24.356  -1.608  28.638  0.00  0.00    +0.080 C 
ATOM      2  C   UNL A   1     -23.396  -0.772  29.183  0.00  0.00    +0.155 C 
ATOM      3  C   UNL A   1     -23.050   0.549  28.718  0.00  0.00    +0.076 C 
ATOM      4  C   UNL A   1     -23.734   1.071  27.594  0.00  0.00    +0.111 C 
ATOM      5  C   UNL A   1     -24.730   0.263  26.985  0.00  0.00    +0.013 C 
ATOM      6  C   UNL A   1     -25.004  -0.959  27.516  0.00  0.00    +0.012 C 
ATOM      7  O   UNL A   1     -22.735  -1.218  30.240  0.00  0.00    -0.296 OA
ENDROOT
BRANCH   1   8
ATOM      8  C   UNL A   1     -24.677  -2.684  29.086  0.00  0.00    -0.015 A 
ATOM      9  C   UNL A   1     -24.045  -3.853  28.414  0.00  0.00    -0.004 A 
ATOM     10  C   UNL A   1     -24.453  -5.206  28.803  0.00  0.00    -0.000 A 
ATOM     11  C   UNL A   1     -25.335  -5.332  29.501  0.00  0.00    -0.000 A 
ATOM     12  C   UNL A   1     -26.341  -4.517  29.826  0.00  0.00    -0.000 A 
ATOM     13  C   UNL A   1     -26.092  -3.176  29.462  0.00  0.00    -0.004 A 
ENDBRANCH   1   8
BRANCH   4  14
ATOM     14  C   UNL A   1     -23.437   2.391  27.046  0.00  0.00    +0.365 C 
ATOM     15  O   UNL A   1     -22.745   2.433  26.009  0.00  0.00    -0.246 OA
ATOM     16  O   UNL A   1     -24.065   3.415  27.548  0.00  0.00    -0.246 OA
ENDBRANCH   4  14
TORSDOF 2
ENDMDL
ENDMDL
