REMARK  Name = No_1786-gen_results/8p0m/2024-11-26-14-13-15/
REMARK  2 active torsions:
REMARK  status: ('A' for Active; 'I' for Inactive)
REMARK    1  A    between atoms: C_1  and  C_2
REMARK    2  A    between atoms: C_5  and  C_10
REMARK                            x       y       z     vdW  Elec       q    Type
REMARK                         _______ _______ _______ _____ _____    ______ ____
ROOT
ATOM      1  C   UNL A   1     -27.064  -0.119  28.608  0.00  0.00    +0.080 C 
ATOM      2  C   UNL A   1     -26.972   0.714  27.506  0.00  0.00    +0.155 C 
ATOM      3  C   UNL A   1     -25.821   1.491  27.116  0.00  0.00    +0.076 C 
ATOM      4  C   UNL A   1     -24.656   1.424  27.918  0.00  0.00    +0.111 C 
ATOM      5  C   UNL A   1     -24.685   0.590  29.066  0.00  0.00    +0.013 C 
ATOM      6  C   UNL A   1     -25.810  -0.127  29.334  0.00  0.00    +0.012 C 
ATOM      7  O   UNL A   1     -28.037   0.802  26.724  0.00  0.00    -0.296 OA
ENDROOT
BRANCH   1   8
ATOM      8  C   UNL A   1     -28.016  -0.814  28.878  0.00  0.00    -0.015 A 
ATOM      9  C   UNL A   1     -28.694  -0.473  30.159  0.00  0.00    -0.004 A 
ATOM     10  C   UNL A   1     -29.787  -1.325  30.637  0.00  0.00    -0.000 A 
ATOM     11  C   UNL A   1     -29.998  -2.297  30.098  0.00  0.00    -0.000 A 
ATOM     12  C   UNL A   1     -29.255  -3.046  29.280  0.00  0.00    -0.000 A 
ATOM     13  C   UNL A   1     -28.133  -2.351  28.779  0.00  0.00    -0.004 A 
ENDBRANCH   1   8
BRANCH   4  14
ATOM     14  C   UNL A   1     -23.452   2.189  27.608  0.00  0.00    +0.365 C 
ATOM     15  O   UNL A   1     -22.579   2.258  28.496  0.00  0.00    -0.246 OA
ATOM     16  O   UNL A   1     -23.278   2.579  26.378  0.00  0.00    -0.246 OA
ENDBRANCH   4  14
TORSDOF 2
