REMARK  Name = No_1787-gen_results/8p0m/2024-11-26-14-13-15/
REMARK  8 active torsions:
REMARK  status: ('A' for Active; 'I' for Inactive)
REMARK    1  A    between atoms: C_4  and  C_5
REMARK    2  A    between atoms: C_6  and  C_14
REMARK    3  A    between atoms: C_7  and  O_24
REMARK    4  A    between atoms: C_11  and  C_20
REMARK    5  A    between atoms: O_24  and  C_25
REMARK    6  A    between atoms: C_25  and  C_26
REMARK    7  A    between atoms: C_26  and  C_27
REMARK    8  A    between atoms: C_30  and  C_33
REMARK                            x       y       z     vdW  Elec       q    Type
REMARK                         _______ _______ _______ _____ _____    ______ ____
ROOT
ATOM      1  C   UNL A   1     -24.360   1.056  27.565  0.00  0.00    +0.038 A 
ATOM      2  C   UNL A   1     -24.341   1.619  26.431  0.00  0.00    +0.136 A 
ATOM      3  C   UNL A   1     -23.117   1.881  25.630  0.00  0.00    +0.037 A 
ATOM      4  C   UNL A   1     -22.041   2.089  26.486  0.00  0.00    +0.003 A 
ATOM      5  C   UNL A   1     -21.918   1.654  27.780  0.00  0.00    +0.006 A 
ATOM      6  C   UNL A   1     -23.084   1.240  28.365  0.00  0.00    +0.080 A 
ENDROOT
BRANCH   1  10
ATOM      7  O   UNL A   1     -28.123  -1.335  28.487  0.00  0.00    -0.273 OA
ATOM      8  C   UNL A   1     -27.481  -0.404  28.709  0.00  0.00    +0.245 C 
ATOM      9  N   UNL A   1     -26.460  -0.110  28.005  0.00  0.00    -0.202 NA
ATOM     10  C   UNL A   1     -25.430   0.879  28.357  0.00  0.00    +0.121 C 
ATOM     11  C   UNL A   1     -27.737   0.501  29.964  0.00  0.00    +0.101 C 
ATOM     12  C   UNL A   1     -25.681   1.528  29.600  0.00  0.00    +0.027 C 
ATOM     13  C   UNL A   1     -26.809   1.380  30.399  0.00  0.00    +0.016 C 
BRANCH  11  14
ATOM     14  C   UNL A   1     -28.930   0.072  30.711  0.00  0.00    -0.013 A 
ATOM     15  C   UNL A   1     -29.707   1.167  31.096  0.00  0.00    +0.008 A 
ATOM     16  C   UNL A   1     -30.768   0.825  31.892  0.00  0.00    +0.057 A 
ATOM     17  C   UNL A   1     -31.092  -0.518  32.148  0.00  0.00    +0.011 A 
ATOM     18  C   UNL A   1     -30.305  -1.547  31.691  0.00  0.00    +0.001 A 
ATOM     19  C   UNL A   1     -29.170  -1.244  30.989  0.00  0.00    -0.004 A 
ATOM     20 CL   UNL A   1     -31.838   2.062  32.425  0.00  0.00    -0.082 Cl
ENDBRANCH  11  14
ENDBRANCH   1  10
BRANCH   6  21
ATOM     21  C   UNL A   1     -22.999   0.855  29.809  0.00  0.00    +0.388 C 
ATOM     22  O   UNL A   1     -22.945  -0.271  30.160  0.00  0.00    -0.241 OA
ATOM     23  O   UNL A   1     -23.072   1.893  30.653  0.00  0.00    -0.241 OA
ENDBRANCH   6  21
BRANCH   2  24
ATOM     24  O   UNL A   1     -25.401   1.440  25.591  0.00  0.00    -0.475 OA
BRANCH  24  25
ATOM     25  C   UNL A   1     -25.657   0.391  24.729  0.00  0.00    +0.210 C 
BRANCH  25  26
ATOM     26  C   UNL A   1     -26.959  -0.197  24.949  0.00  0.00    +0.074 C 
BRANCH  26  27
ATOM     27  C   UNL A   1     -28.002   0.483  24.358  0.00  0.00    -0.018 A 
ATOM     28  C   UNL A   1     -29.335  -0.017  24.454  0.00  0.00    -0.004 A 
ATOM     29  C   UNL A   1     -30.474   0.590  24.645  0.00  0.00    -0.004 A 
ATOM     30  C   UNL A   1     -30.511   1.579  25.041  0.00  0.00    -0.012 A 
ATOM     31  C   UNL A   1     -29.275   2.500  25.022  0.00  0.00    -0.004 A 
ATOM     32  C   UNL A   1     -27.960   1.678  23.838  0.00  0.00    -0.004 A 
BRANCH  30  33
ATOM     33  C   UNL A   1     -31.722   2.507  25.340  0.00  0.00    +0.079 C 
ATOM     34 BR   UNL A   1     -31.828   3.917  26.381  0.00  0.00    -0.077 Br
ATOM     35  C   UNL A   1     -32.957   1.941  25.595  0.00  0.00    +0.017 C 
ENDBRANCH  30  33
ENDBRANCH  26  27
ENDBRANCH  25  26
ENDBRANCH  24  25
ENDBRANCH   2  24
TORSDOF 8
