MODEL 1788
MODEL 1
REMARK VINA RESULT:    -7.572      0.000      0.000
REMARK INTER + INTRA:          -8.103
REMARK INTER:                  -8.015
REMARK INTRA:                  -0.088
REMARK UNBOUND:                -0.088
REMARK  Name = No_1788-gen_results/8p0m/2024-11-26-14-13-15/
REMARK  1 active torsions:
REMARK  status: ('A' for Active; 'I' for Inactive)
REMARK    1  A    between atoms: C_5  and  C_17
REMARK                            x       y       z     vdW  Elec       q    Type
REMARK                         _______ _______ _______ _____ _____    ______ ____
ROOT
ATOM      1  C   UNL A   1     -23.984  -0.060  30.931  0.00  0.00    +0.003 A 
ATOM      2  C   UNL A   1     -24.471  -1.147  30.725  0.00  0.00    +0.035 A 
ATOM      3  C   UNL A   1     -24.071  -2.025  29.731  0.00  0.00    -0.015 A 
ATOM      4  C   UNL A   1     -22.978  -1.619  28.909  0.00  0.00    +0.003 A 
ATOM      5  C   UNL A   1     -22.354  -0.483  29.259  0.00  0.00    +0.080 A 
ATOM      6  C   UNL A   1     -22.776   0.260  30.242  0.00  0.00    +0.007 A 
ATOM      7  C   UNL A   1     -24.801  -3.306  29.425  0.00  0.00    +0.045 C 
ATOM      8  C   UNL A   1     -26.065  -3.321  29.881  0.00  0.00    -0.015 A 
ATOM      9  C   UNL A   1     -26.825  -4.574  29.799  0.00  0.00    -0.004 A 
ATOM     10  C   UNL A   1     -28.104  -4.688  30.450  0.00  0.00    -0.000 A 
ATOM     11  C   UNL A   1     -28.697  -3.616  31.044  0.00  0.00    +0.000 A 
ATOM     12  C   UNL A   1     -28.034  -2.366  31.052  0.00  0.00    +0.003 A 
ATOM     13  C   UNL A   1     -26.744  -2.262  30.527  0.00  0.00    +0.035 A 
ATOM     14  C   UNL A   1     -25.926  -1.315  31.146  0.00  0.00    +0.195 C 
ATOM     15  O   UNL A   1     -26.424  -0.392  31.888  0.00  0.00    -0.287 OA
ATOM     16  C   UNL A   1     -24.194  -4.292  28.600  0.00  0.00    +0.009 C 
ENDROOT
BRANCH   5  17
ATOM     17  C   UNL A   1     -21.112  -0.141  28.538  0.00  0.00    +0.388 C 
ATOM     18  O   UNL A   1     -20.937   0.753  28.066  0.00  0.00    -0.241 OA
ATOM     19  O   UNL A   1     -20.180  -1.093  28.593  0.00  0.00    -0.241 OA
ENDBRANCH   5  17
TORSDOF 1
ENDMDL
ENDMDL
