REMARK  Name = No_1788-gen_results/8p0m/2024-11-26-14-13-15/
REMARK  1 active torsions:
REMARK  status: ('A' for Active; 'I' for Inactive)
REMARK    1  A    between atoms: C_5  and  C_17
REMARK                            x       y       z     vdW  Elec       q    Type
REMARK                         _______ _______ _______ _____ _____    ______ ____
ROOT
ATOM      1  C   UNL A   1     -28.016  -0.814  28.878  0.00  0.00    +0.003 A 
ATOM      2  C   UNL A   1     -27.064  -0.119  28.608  0.00  0.00    +0.035 A 
ATOM      3  C   UNL A   1     -26.972   0.714  27.506  0.00  0.00    -0.015 A 
ATOM      4  C   UNL A   1     -28.105   0.774  26.642  0.00  0.00    +0.003 A 
ATOM      5  C   UNL A   1     -29.204   0.118  27.048  0.00  0.00    +0.080 A 
ATOM      6  C   UNL A   1     -29.213  -0.609  28.128  0.00  0.00    +0.007 A 
ATOM      7  C   UNL A   1     -25.711   1.452  27.138  0.00  0.00    +0.045 C 
ATOM      8  C   UNL A   1     -24.605   0.925  27.690  0.00  0.00    -0.015 A 
ATOM      9  C   UNL A   1     -23.338   1.651  27.549  0.00  0.00    -0.004 A 
ATOM     10  C   UNL A   1     -22.176   1.228  28.287  0.00  0.00    -0.000 A 
ATOM     11  C   UNL A   1     -22.181   0.085  29.026  0.00  0.00    +0.000 A 
ATOM     12  C   UNL A   1     -23.361  -0.694  29.101  0.00  0.00    +0.003 A 
ATOM     13  C   UNL A   1     -24.530  -0.241  28.487  0.00  0.00    +0.035 A 
ATOM     14  C   UNL A   1     -25.716  -0.607  29.126  0.00  0.00    +0.195 C 
ATOM     15  O   UNL A   1     -25.738  -1.557  29.991  0.00  0.00    -0.287 OA
ATOM     16  C   UNL A   1     -25.753   2.498  26.176  0.00  0.00    +0.009 C 
ENDROOT
BRANCH   5  17
ATOM     17  C   UNL A   1     -30.440   0.317  26.266  0.00  0.00    +0.388 C 
ATOM     18  O   UNL A   1     -30.652   1.153  25.711  0.00  0.00    -0.241 OA
ATOM     19  O   UNL A   1     -31.266  -0.730  26.290  0.00  0.00    -0.241 OA
ENDBRANCH   5  17
TORSDOF 1
