MODEL 1789
MODEL 1
REMARK VINA RESULT:    -7.751      0.000      0.000
REMARK INTER + INTRA:          -9.341
REMARK INTER:                  -8.657
REMARK INTRA:                  -0.684
REMARK UNBOUND:                -0.684
REMARK  Name = No_1789-gen_results/8p0m/2024-11-26-14-13-15/
REMARK  2 active torsions:
REMARK  status: ('A' for Active; 'I' for Inactive)
REMARK    1  A    between atoms: C_4  and  C_11
REMARK    2  A    between atoms: C_7  and  C_17
REMARK                            x       y       z     vdW  Elec       q    Type
REMARK                         _______ _______ _______ _____ _____    ______ ____
ROOT
ATOM      1  C   UNL A   1     -24.572   0.353  26.582  0.00  0.00    +0.007 A 
ATOM      2  C   UNL A   1     -24.610  -0.527  27.410  0.00  0.00    +0.000 A 
ATOM      3  C   UNL A   1     -24.263  -0.343  28.748  0.00  0.00    +0.000 A 
ATOM      4  C   UNL A   1     -24.269  -1.358  29.819  0.00  0.00    +0.000 A 
ATOM      5  C   UNL A   1     -23.864  -1.142  31.184  0.00  0.00    +0.000 A 
ATOM      6  C   UNL A   1     -23.645   0.197  31.525  0.00  0.00    +0.000 A 
ATOM      7  C   UNL A   1     -23.967   1.665  26.996  0.00  0.00    +0.080 A 
ATOM      8  C   UNL A   1     -23.682   1.963  28.308  0.00  0.00    +0.007 A 
ATOM      9  C   UNL A   1     -23.771   0.963  29.259  0.00  0.00    +0.000 A 
ATOM     10  C   UNL A   1     -23.502   1.214  30.605  0.00  0.00    +0.000 A 
ENDROOT
BRANCH   4  11
ATOM     11  C   UNL A   1     -24.681  -2.767  29.514  0.00  0.00    +0.000 A 
ATOM     12  C   UNL A   1     -25.855  -3.136  29.877  0.00  0.00    +0.000 A 
ATOM     13  C   UNL A   1     -26.283  -4.488  29.696  0.00  0.00    +0.000 A 
ATOM     14  C   UNL A   1     -25.391  -5.359  29.029  0.00  0.00    +0.000 A 
ATOM     15  C   UNL A   1     -23.862  -3.737  28.936  0.00  0.00    +0.000 A 
ATOM     16  C   UNL A   1     -24.218  -4.935  28.630  0.00  0.00    +0.000 A 
ENDBRANCH   4  11
BRANCH   7  17
ATOM     17  C   UNL A   1     -23.871   2.736  25.931  0.00  0.00    +0.388 C 
ATOM     18  O   UNL A   1     -22.959   2.612  25.168  0.00  0.00    -0.241 OA
ATOM     19  O   UNL A   1     -24.705   3.691  25.969  0.00  0.00    -0.241 OA
ENDBRANCH   7  17
TORSDOF 2
ENDMDL
ENDMDL
