REMARK  Name = No_1789-gen_results/8p0m/2024-11-26-14-13-15/
REMARK  2 active torsions:
REMARK  status: ('A' for Active; 'I' for Inactive)
REMARK    1  A    between atoms: C_4  and  C_11
REMARK    2  A    between atoms: C_7  and  C_17
REMARK                            x       y       z     vdW  Elec       q    Type
REMARK                         _______ _______ _______ _____ _____    ______ ____
ROOT
ATOM      1  C   UNL A   1     -28.016  -0.814  28.878  0.00  0.00    +0.007 A 
ATOM      2  C   UNL A   1     -27.064  -0.119  28.608  0.00  0.00    +0.000 A 
ATOM      3  C   UNL A   1     -25.765  -0.390  29.036  0.00  0.00    +0.000 A 
ATOM      4  C   UNL A   1     -24.552   0.406  28.765  0.00  0.00    +0.000 A 
ATOM      5  C   UNL A   1     -23.230   0.118  29.258  0.00  0.00    +0.000 A 
ATOM      6  C   UNL A   1     -23.094  -1.131  29.873  0.00  0.00    +0.000 A 
ATOM      7  C   UNL A   1     -27.798  -1.934  29.856  0.00  0.00    +0.080 A 
ATOM      8  C   UNL A   1     -26.542  -2.327  30.258  0.00  0.00    +0.007 A 
ATOM      9  C   UNL A   1     -25.451  -1.552  29.908  0.00  0.00    +0.000 A 
ATOM     10  C   UNL A   1     -24.156  -1.910  30.281  0.00  0.00    +0.000 A 
ENDROOT
BRANCH   4  11
ATOM     11  C   UNL A   1     -24.645   1.658  27.946  0.00  0.00    +0.000 A 
ATOM     12  C   UNL A   1     -24.896   2.756  28.561  0.00  0.00    +0.000 A 
ATOM     13  C   UNL A   1     -25.084   3.973  27.835  0.00  0.00    +0.000 A 
ATOM     14  C   UNL A   1     -24.896   3.919  26.435  0.00  0.00    +0.000 A 
ATOM     15  C   UNL A   1     -24.559   1.717  26.555  0.00  0.00    +0.000 A 
ATOM     16  C   UNL A   1     -24.593   2.790  25.845  0.00  0.00    +0.000 A 
ENDBRANCH   4  11
BRANCH   7  17
ATOM     17  C   UNL A   1     -29.012  -2.756  30.230  0.00  0.00    +0.388 C 
ATOM     18  O   UNL A   1     -30.062  -2.203  30.087  0.00  0.00    -0.241 OA
ATOM     19  O   UNL A   1     -28.822  -3.913  30.715  0.00  0.00    -0.241 OA
ENDBRANCH   7  17
TORSDOF 2
