MODEL 178
MODEL 1
REMARK VINA RESULT:    -6.570      0.000      0.000
REMARK INTER + INTRA:          -8.148
REMARK INTER:                  -7.722
REMARK INTRA:                  -0.426
REMARK UNBOUND:                -0.426
REMARK  Name = No_178-gen_results/8p0m/2024-11-26-14-13-15/
REMARK  3 active torsions:
REMARK  status: ('A' for Active; 'I' for Inactive)
REMARK    1  A    between atoms: C_3  and  C_4
REMARK    2  A    between atoms: C_7  and  C_13
REMARK    3  A    between atoms: C_12  and  O_16
REMARK                            x       y       z     vdW  Elec       q    Type
REMARK                         _______ _______ _______ _____ _____    ______ ____
ROOT
ATOM      1  C   UNL A   1     -29.095 -10.338  32.765  0.00  0.00    +0.007 A 
ATOM      2  C   UNL A   1     -29.700 -10.070  31.753  0.00  0.00    +0.000 A 
ATOM      3  C   UNL A   1     -29.526 -10.748  30.547  0.00  0.00    +0.000 A 
ATOM      4  C   UNL A   1     -27.983 -11.333  32.686  0.00  0.00    +0.080 A 
ATOM      5  C   UNL A   1     -27.785 -12.109  31.578  0.00  0.00    +0.007 A 
ATOM      6  C   UNL A   1     -28.527 -11.833  30.398  0.00  0.00    +0.000 A 
ENDROOT
BRANCH   3   7
ATOM      7  C   UNL A   1     -30.211 -10.482  29.267  0.00  0.00    +0.003 A 
ATOM      8  C   UNL A   1     -31.138  -9.409  29.017  0.00  0.00    +0.000 A 
ATOM      9  C   UNL A   1     -31.722  -9.242  27.746  0.00  0.00    +0.003 A 
ATOM     10  C   UNL A   1     -31.220  -9.930  26.598  0.00  0.00    +0.037 A 
ATOM     11  C   UNL A   1     -29.826 -11.184  28.044  0.00  0.00    +0.037 A 
ATOM     12  C   UNL A   1     -30.331 -10.910  26.807  0.00  0.00    +0.139 A 
BRANCH  12  13
ATOM     13  O   UNL A   1     -29.848 -11.627  25.766  0.00  0.00    -0.471 OA
ATOM     14  C   UNL A   1     -30.759 -12.574  25.280  0.00  0.00    +0.253 C 
ENDBRANCH  12  13
ENDBRANCH   3   7
BRANCH   4  15
ATOM     15  C   UNL A   1     -27.175 -11.652  33.890  0.00  0.00    +0.388 C 
ATOM     16  O   UNL A   1     -26.792 -12.714  34.073  0.00  0.00    -0.241 OA
ATOM     17  O   UNL A   1     -27.008 -10.700  34.769  0.00  0.00    -0.241 OA
ENDBRANCH   4  15
TORSDOF 3
ENDMDL
ENDMDL
