REMARK  Name = No_179-gen_results/8p0m/2024-11-26-14-13-15/
REMARK  4 active torsions:
REMARK  status: ('A' for Active; 'I' for Inactive)
REMARK    1  A    between atoms: C_3  and  C_15
REMARK    2  A    between atoms: C_9  and  C_23
REMARK    3  A    between atoms: C_15  and  C_16
REMARK    4  A    between atoms: N_25  and  C_26
REMARK                            x       y       z     vdW  Elec       q    Type
REMARK                         _______ _______ _______ _____ _____    ______ ____
ROOT
ATOM      1  C   UNL A   1     -28.016  -0.814  28.878  0.00  0.00    +0.004 A 
ATOM      2  C   UNL A   1     -27.064  -0.119  28.608  0.00  0.00    -0.004 A 
ATOM      3  C   UNL A   1     -27.001   0.691  27.491  0.00  0.00    -0.018 A 
ATOM      4  C   UNL A   1     -25.855   1.482  27.083  0.00  0.00    -0.002 A 
ATOM      5  C   UNL A   1     -24.690   1.453  27.881  0.00  0.00    +0.019 A 
ATOM      6  C   UNL A   1     -23.488   2.145  27.601  0.00  0.00    +0.099 A 
ATOM      7  C   UNL A   1     -25.721  -0.177  29.331  0.00  0.00    -0.000 A 
ATOM      8  C   UNL A   1     -24.602   0.555  29.033  0.00  0.00    +0.003 A 
ATOM      9  C   UNL A   1     -28.373  -1.374  30.106  0.00  0.00    +0.055 A 
ATOM     10  C   UNL A   1     -27.438  -1.044  31.105  0.00  0.00    +0.005 A 
ATOM     11  C   UNL A   1     -26.069  -0.647  30.762  0.00  0.00    +0.000 A 
ATOM     12  N   UNL A   1     -22.342   1.869  28.210  0.00  0.00    -0.242 NA
ATOM     13  C   UNL A   1     -22.315   0.951  29.212  0.00  0.00    +0.099 A 
ATOM     14  C   UNL A   1     -23.396   0.278  29.666  0.00  0.00    +0.021 A 
ENDROOT
BRANCH   9  15
ATOM     15  C   UNL A   1     -29.558  -2.014  30.509  0.00  0.00    +0.269 C 
ATOM     16  O   UNL A   1     -29.692  -3.023  30.943  0.00  0.00    -0.268 OA
ATOM     17  N   UNL A   1     -30.754  -1.309  30.171  0.00  0.00    -0.174 NA
BRANCH  17  18
ATOM     18  C   UNL A   1     -32.015  -1.651  30.235  0.00  0.00    +0.084 C 
ATOM     19  C   UNL A   1     -32.783  -1.152  30.639  0.00  0.00    -0.008 C 
ATOM     20  C   UNL A   1     -34.174  -1.582  30.770  0.00  0.00    +0.032 C 
ENDBRANCH  17  18
ENDBRANCH   9  15
BRANCH   3  21
ATOM     21  C   UNL A   1     -28.139   0.752  26.550  0.00  0.00    +0.045 C 
ATOM     22  C   UNL A   1     -27.978   0.148  25.231  0.00  0.00    +0.009 C 
BRANCH  21  23
ATOM     23  C   UNL A   1     -29.118   1.393  26.776  0.00  0.00    -0.018 A 
ATOM     24  C   UNL A   1     -30.051   1.790  26.470  0.00  0.00    -0.004 A 
ATOM     25  C   UNL A   1     -31.081   2.579  27.182  0.00  0.00    -0.000 A 
ATOM     26  C   UNL A   1     -30.802   2.890  28.491  0.00  0.00    -0.000 A 
ATOM     27  C   UNL A   1     -29.686   2.466  29.100  0.00  0.00    -0.000 A 
ATOM     28  C   UNL A   1     -28.743   1.759  28.378  0.00  0.00    -0.004 A 
ENDBRANCH  21  23
ENDBRANCH   3  21
TORSDOF 4
