MODEL 1790
MODEL 1
REMARK VINA RESULT:    -6.865      0.000      0.000
REMARK INTER + INTRA:          -9.267
REMARK INTER:                  -8.471
REMARK INTRA:                  -0.796
REMARK UNBOUND:                -0.796
REMARK  Name = No_1790-gen_results/8p0m/2024-11-26-14-13-15/
REMARK  4 active torsions:
REMARK  status: ('A' for Active; 'I' for Inactive)
REMARK    1  A    between atoms: C_3  and  C_8
REMARK    2  A    between atoms: C_6  and  O_7
REMARK    3  A    between atoms: O_7  and  C_14
REMARK    4  A    between atoms: C_14  and  C_15
REMARK                            x       y       z     vdW  Elec       q    Type
REMARK                         _______ _______ _______ _____ _____    ______ ____
ROOT
ATOM      1  C   UNL A   1      -8.784   0.664  35.019  0.00  0.00    +0.037 A 
ATOM      2  C   UNL A   1      -8.964  -0.026  35.995  0.00  0.00    +0.003 A 
ATOM      3  C   UNL A   1     -10.209  -0.087  36.611  0.00  0.00    +0.000 A 
ATOM      4  C   UNL A   1     -11.312   0.707  36.134  0.00  0.00    +0.003 A 
ATOM      5  C   UNL A   1     -11.009   1.495  35.016  0.00  0.00    +0.037 A 
ATOM      6  C   UNL A   1      -9.810   1.530  34.480  0.00  0.00    +0.139 A 
ENDROOT
BRANCH   3   7
ATOM      7  C   UNL A   1     -10.561  -0.916  37.823  0.00  0.00    +0.000 A 
ATOM      8  C   UNL A   1     -10.487  -0.522  39.045  0.00  0.00    +0.000 A 
ATOM      9  C   UNL A   1     -10.931  -1.367  40.141  0.00  0.00    +0.000 A 
ATOM     10  C   UNL A   1     -11.865  -2.306  39.771  0.00  0.00    +0.000 A 
ATOM     11  C   UNL A   1     -11.649  -1.953  37.774  0.00  0.00    +0.000 A 
ATOM     12  C   UNL A   1     -12.092  -2.705  38.658  0.00  0.00    +0.000 A 
ENDBRANCH   3   7
BRANCH   6  13
ATOM     13  O   UNL A   1      -9.589   2.352  33.418  0.00  0.00    -0.470 OA
BRANCH  13  14
ATOM     14  C   UNL A   1      -8.831   3.456  33.529  0.00  0.00    +0.235 C 
BRANCH  14  15
ATOM     15  C   UNL A   1      -7.941   3.708  32.941  0.00  0.00    +0.060 A 
ATOM     16  C   UNL A   1      -6.974   3.491  32.562  0.00  0.00    +0.003 A 
ATOM     17  C   UNL A   1      -5.926   3.904  31.928  0.00  0.00    -0.000 A 
ATOM     18  C   UNL A   1      -6.018   5.308  31.552  0.00  0.00    +0.003 A 
ATOM     19  C   UNL A   1      -7.163   5.966  31.867  0.00  0.00    +0.042 A 
ATOM     20  C   UNL A   1      -8.154   5.300  32.601  0.00  0.00    +0.195 A 
ATOM     21  O   UNL A   1      -9.250   5.719  32.112  0.00  0.00    -0.287 OA
ENDBRANCH  14  15
ENDBRANCH  13  14
ENDBRANCH   6  13
TORSDOF 4
ENDMDL
ENDMDL
