MODEL 1791
MODEL 1
REMARK VINA RESULT:    -5.519      0.000      0.000
REMARK INTER + INTRA:          -5.519
REMARK INTER:                  -5.519
REMARK INTRA:                   0.000
REMARK UNBOUND:                 0.000
REMARK  Name = No_1791-gen_results/8p0m/2024-11-26-14-13-15/
REMARK  0 active torsions:
REMARK  status: ('A' for Active; 'I' for Inactive)
REMARK                            x       y       z     vdW  Elec       q    Type
REMARK                         _______ _______ _______ _____ _____    ______ ____
ROOT
ATOM      1  C   UNL A   1      -9.573  -9.952  18.284  0.00  0.00    +0.030 C 
ATOM      2  C   UNL A   1      -8.493 -10.424  18.555  0.00  0.00    +0.033 C 
ATOM      3  C   UNL A   1      -7.796 -10.125  19.710  0.00  0.00    +0.005 C 
ATOM      4  C   UNL A   1      -8.465  -9.420  20.634  0.00  0.00    +0.001 C 
ATOM      5  C   UNL A   1     -10.227 -10.473  17.077  0.00  0.00    +0.125 C 
ATOM      6  C   UNL A   1      -9.759  -9.035  20.390  0.00  0.00    +0.005 C 
ATOM      7  C   UNL A   1     -10.300  -9.392  19.283  0.00  0.00    +0.033 C 
ATOM      8  O   UNL A   1     -11.254 -10.413  16.781  0.00  0.00    -0.232 OA
ENDROOT
TORSDOF 0
ENDMDL
ENDMDL
