MODEL 1792
MODEL 1
REMARK VINA RESULT:    -5.885      0.000      0.000
REMARK INTER + INTRA:         -13.788
REMARK INTER:                  -9.669
REMARK INTRA:                  -4.119
REMARK UNBOUND:                -4.119
REMARK  Name = No_1792-gen_results/8p0m/2024-11-26-14-13-15/
REMARK  11 active torsions:
REMARK  status: ('A' for Active; 'I' for Inactive)
REMARK    1  A    between atoms: C_3  and  C_4
REMARK    2  A    between atoms: C_4  and  C_8
REMARK    3  A    between atoms: C_5  and  O_20
REMARK    4  A    between atoms: O_20  and  C_21
REMARK    5  A    between atoms: C_21  and  C_22
REMARK    6  A    between atoms: C_22  and  O_23
REMARK    7  A    between atoms: C_22  and  C_25
REMARK    8  A    between atoms: O_23  and  C_24
REMARK    9  A    between atoms: C_24  and  C_32
REMARK   10  A    between atoms: C_25  and  C_26
REMARK   11  A    between atoms: C_33  and  C_34
REMARK                            x       y       z     vdW  Elec       q    Type
REMARK                         _______ _______ _______ _____ _____    ______ ____
ROOT
ATOM      1  C   UNL A   1     -24.575  -0.854  28.107  0.00  0.00    +0.006 A 
ATOM      2  C   UNL A   1     -24.384  -1.251  29.064  0.00  0.00    +0.068 A 
ATOM      3  C   UNL A   1     -23.733   0.341  27.719  0.00  0.00    -0.017 A 
ATOM      4  C   UNL A   1     -23.301  -1.010  30.026  0.00  0.00    +0.145 A 
ATOM      5  C   UNL A   1     -22.472   0.049  29.728  0.00  0.00    +0.037 A 
ATOM      6  C   UNL A   1     -22.631   0.744  28.557  0.00  0.00    -0.001 A 
ATOM      7 BR   UNL A   1     -25.527  -2.770  29.601  0.00  0.00    -0.046 Br
ENDROOT
BRANCH   3   8
ATOM      8  C   UNL A   1     -23.895   1.153  26.539  0.00  0.00    +0.055 C 
BRANCH   8   9
ATOM      9  C   UNL A   1     -25.271   1.475  26.167  0.00  0.00    +0.011 A 
ATOM     10  C   UNL A   1     -25.596   2.769  26.476  0.00  0.00    +0.102 A 
ATOM     11  C   UNL A   1     -26.722   3.331  26.197  0.00  0.00    +0.160 A 
ATOM     12  C   UNL A   1     -27.669   2.678  25.376  0.00  0.00    +0.040 A 
ATOM     13  C   UNL A   1     -26.036   0.745  25.311  0.00  0.00    +0.056 A 
ATOM     14  C   UNL A   1     -27.286   1.356  24.908  0.00  0.00    +0.014 A 
ATOM     15 CL   UNL A   1     -25.665  -0.718  24.728  0.00  0.00    -0.083 Cl
ATOM     16  O   UNL A   1     -27.157   4.568  26.578  0.00  0.00    -0.448 OA
ATOM     17  C   UNL A   1     -25.938   5.348  26.850  0.00  0.00    +0.197 C 
ATOM     18  N   UNL A   1     -24.665   3.459  27.236  0.00  0.00    -0.205 NA
ATOM     19  C   UNL A   1     -24.887   4.885  27.462  0.00  0.00    +0.126 C 
ENDBRANCH   8   9
ENDBRANCH   3   8
BRANCH   4  20
ATOM     20  O   UNL A   1     -23.160  -1.718  31.179  0.00  0.00    -0.472 OA
BRANCH  20  21
ATOM     21  C   UNL A   1     -23.057  -1.104  32.294  0.00  0.00    +0.235 C 
BRANCH  21  22
ATOM     22  C   UNL A   1     -24.215  -1.070  33.070  0.00  0.00    +0.164 C 
BRANCH  22  23
ATOM     23  O   UNL A   1     -24.109  -1.349  34.181  0.00  0.00    -0.347 OA
BRANCH  23  24
ATOM     24  C   UNL A   1     -24.766  -0.747  35.223  0.00  0.00    +0.168 C 
BRANCH  24  25
ATOM     25  C   UNL A   1     -25.467  -1.502  36.140  0.00  0.00    +0.006 C 
ATOM     26  C   UNL A   1     -26.717  -1.379  36.161  0.00  0.00    -0.002 C 
BRANCH  26  27
ATOM     27  C   UNL A   1     -27.460  -0.558  35.260  0.00  0.00    -0.000 C 
ATOM     28  C   UNL A   1     -28.472  -1.172  34.533  0.00  0.00    -0.000 C 
ENDBRANCH  26  27
ENDBRANCH  24  25
ENDBRANCH  23  24
ENDBRANCH  22  23
BRANCH  22  29
ATOM     29  C   UNL A   1     -24.806   0.342  32.972  0.00  0.00    +0.060 C 
BRANCH  29  30
ATOM     30  C   UNL A   1     -25.579   0.650  31.953  0.00  0.00    -0.020 A 
ATOM     31  C   UNL A   1     -26.496   0.211  31.652  0.00  0.00    -0.004 A 
ATOM     32  C   UNL A   1     -27.442   0.632  30.521  0.00  0.00    -0.000 A 
ATOM     33  C   UNL A   1     -27.066   1.776  29.880  0.00  0.00    -0.000 A 
ATOM     34  C   UNL A   1     -25.883   2.398  30.239  0.00  0.00    -0.000 A 
ATOM     35  C   UNL A   1     -25.144   1.909  31.275  0.00  0.00    -0.004 A 
ENDBRANCH  29  30
ENDBRANCH  22  29
ENDBRANCH  21  22
ENDBRANCH  20  21
ENDBRANCH   4  20
TORSDOF 11
ENDMDL
ENDMDL
