REMARK  Name = No_1792-gen_results/8p0m/2024-11-26-14-13-15/
REMARK  11 active torsions:
REMARK  status: ('A' for Active; 'I' for Inactive)
REMARK    1  A    between atoms: C_3  and  C_4
REMARK    2  A    between atoms: C_4  and  C_8
REMARK    3  A    between atoms: C_5  and  O_20
REMARK    4  A    between atoms: O_20  and  C_21
REMARK    5  A    between atoms: C_21  and  C_22
REMARK    6  A    between atoms: C_22  and  O_23
REMARK    7  A    between atoms: C_22  and  C_25
REMARK    8  A    between atoms: O_23  and  C_24
REMARK    9  A    between atoms: C_24  and  C_32
REMARK   10  A    between atoms: C_25  and  C_26
REMARK   11  A    between atoms: C_33  and  C_34
REMARK                            x       y       z     vdW  Elec       q    Type
REMARK                         _______ _______ _______ _____ _____    ______ ____
ROOT
ATOM      1  C   UNL A   1     -28.016  -0.814  28.878  0.00  0.00    +0.006 A 
ATOM      2  C   UNL A   1     -28.469  -0.785  29.829  0.00  0.00    +0.068 A 
ATOM      3  C   UNL A   1     -26.504  -0.778  28.877  0.00  0.00    -0.017 A 
ATOM      4  C   UNL A   1     -27.918  -0.937  31.182  0.00  0.00    +0.145 A 
ATOM      5  C   UNL A   1     -26.542  -0.940  31.261  0.00  0.00    +0.037 A 
ATOM      6  C   UNL A   1     -25.783  -0.893  30.120  0.00  0.00    -0.001 A 
ATOM      7 BR   UNL A   1     -30.444  -0.765  29.833  0.00  0.00    -0.046 Br
ENDROOT
BRANCH   3   8
ATOM      8  C   UNL A   1     -25.654  -0.660  27.719  0.00  0.00    +0.055 C 
BRANCH   8   9
ATOM      9  C   UNL A   1     -25.213   0.692  27.383  0.00  0.00    +0.011 A 
ATOM     10  C   UNL A   1     -23.920   0.921  27.770  0.00  0.00    +0.102 A 
ATOM     11  C   UNL A   1     -23.263   2.006  27.537  0.00  0.00    +0.160 A 
ATOM     12  C   UNL A   1     -23.798   3.004  26.691  0.00  0.00    +0.040 A 
ATOM     13  C   UNL A   1     -25.836   1.514  26.496  0.00  0.00    +0.056 A 
ATOM     14  C   UNL A   1     -25.115   2.720  26.144  0.00  0.00    +0.014 A 
ATOM     15 CL   UNL A   1     -27.285   1.254  25.825  0.00  0.00    -0.083 Cl
ATOM     16  O   UNL A   1     -22.023   2.348  27.994  0.00  0.00    -0.448 OA
ATOM     17  C   UNL A   1     -21.349   1.074  28.296  0.00  0.00    +0.197 C 
ATOM     18  N   UNL A   1     -23.343  -0.063  28.557  0.00  0.00    -0.205 NA
ATOM     19  C   UNL A   1     -21.921   0.054  28.867  0.00  0.00    +0.126 C 
ENDBRANCH   8   9
ENDBRANCH   3   8
BRANCH   4  20
ATOM     20  O   UNL A   1     -28.692  -0.988  32.299  0.00  0.00    -0.472 OA
BRANCH  20  21
ATOM     21  C   UNL A   1     -29.107  -2.114  32.735  0.00  0.00    +0.235 C 
BRANCH  21  22
ATOM     22  C   UNL A   1     -29.414  -2.155  34.095  0.00  0.00    +0.164 C 
BRANCH  22  23
ATOM     23  O   UNL A   1     -28.764  -1.517  34.797  0.00  0.00    -0.347 OA
BRANCH  23  24
ATOM     24  C   UNL A   1     -28.156  -1.956  35.945  0.00  0.00    +0.168 C 
BRANCH  24  25
ATOM     25  C   UNL A   1     -28.019  -1.118  37.032  0.00  0.00    +0.006 C 
ATOM     26  C   UNL A   1     -27.435  -1.572  38.047  0.00  0.00    -0.002 C 
BRANCH  26  27
ATOM     27  C   UNL A   1     -26.853  -2.872  38.126  0.00  0.00    -0.000 C 
ATOM     28  C   UNL A   1     -26.923  -3.667  36.988  0.00  0.00    -0.000 C 
ENDBRANCH  26  27
ENDBRANCH  24  25
ENDBRANCH  23  24
ENDBRANCH  22  23
BRANCH  22  29
ATOM     29  C   UNL A   1     -30.879  -1.729  34.260  0.00  0.00    +0.060 C 
BRANCH  29  30
ATOM     30  C   UNL A   1     -31.203  -0.462  34.119  0.00  0.00    -0.020 A 
ATOM     31  C   UNL A   1     -30.708   0.401  34.486  0.00  0.00    -0.004 A 
ATOM     32  C   UNL A   1     -31.035   1.879  34.241  0.00  0.00    -0.000 A 
ATOM     33  C   UNL A   1     -32.062   2.082  33.367  0.00  0.00    -0.000 A 
ATOM     34  C   UNL A   1     -32.738   0.992  32.848  0.00  0.00    -0.000 A 
ATOM     35  C   UNL A   1     -32.327  -0.272  33.153  0.00  0.00    -0.004 A 
ENDBRANCH  29  30
ENDBRANCH  22  29
ENDBRANCH  21  22
ENDBRANCH  20  21
ENDBRANCH   4  20
TORSDOF 11
