MODEL 1793
MODEL 1
REMARK VINA RESULT:    -5.248      0.000      0.000
REMARK INTER + INTRA:          -5.711
REMARK INTER:                  -5.555
REMARK INTRA:                  -0.156
REMARK UNBOUND:                -0.156
REMARK  Name = No_1793-gen_results/8p0m/2024-11-26-14-13-15/
REMARK  1 active torsions:
REMARK  status: ('A' for Active; 'I' for Inactive)
REMARK    1  A    between atoms: C_2  and  C_7
REMARK                            x       y       z     vdW  Elec       q    Type
REMARK                         _______ _______ _______ _____ _____    ______ ____
ROOT
ATOM      1  C   UNL A   1     -23.918  -3.889  28.842  0.00  0.00    +0.004 A 
ATOM      2  C   UNL A   1     -24.295  -2.776  29.129  0.00  0.00    +0.071 A 
ATOM      3  C   UNL A   1     -25.556  -2.563  29.673  0.00  0.00    +0.004 A 
ATOM      4  C   UNL A   1     -26.472  -3.657  29.871  0.00  0.00    -0.000 A 
ATOM      5  C   UNL A   1     -25.964  -4.906  29.490  0.00  0.00    -0.000 A 
ATOM      6  C   UNL A   1     -24.770  -5.052  28.964  0.00  0.00    -0.000 A 
ENDROOT
BRANCH   2   7
ATOM      7  C   UNL A   1     -23.495  -1.532  28.968  0.00  0.00    +0.419 C 
ATOM      8  F   UNL A   1     -22.403  -1.659  28.891  0.00  0.00    -0.166 F 
ATOM      9  F   UNL A   1     -23.769  -0.631  29.970  0.00  0.00    -0.166 F 
ATOM     10  F   UNL A   1     -24.028  -0.860  27.842  0.00  0.00    -0.166 F 
ENDBRANCH   2   7
TORSDOF 1
ENDMDL
ENDMDL
