MODEL 1794
MODEL 1
REMARK VINA RESULT:    -7.085      0.000      0.000
REMARK INTER + INTRA:          -8.755
REMARK INTER:                  -7.914
REMARK INTRA:                  -0.841
REMARK UNBOUND:                -0.841
REMARK  Name = No_1794-gen_results/8p0m/2024-11-26-14-13-15/
REMARK  2 active torsions:
REMARK  status: ('A' for Active; 'I' for Inactive)
REMARK    1  A    between atoms: C_2  and  C_7
REMARK    2  A    between atoms: C_9  and  C_10
REMARK                            x       y       z     vdW  Elec       q    Type
REMARK                         _______ _______ _______ _____ _____    ______ ____
ROOT
ATOM      1  C   UNL A   1     -23.873   0.114  29.454  0.00  0.00    +0.081 A 
ATOM      2  N   UNL A   1     -23.576   1.216  29.111  0.00  0.00    -0.244 NA
ATOM      3  C   UNL A   1     -24.492  -0.818  28.581  0.00  0.00    +0.018 A 
ATOM      4  C   UNL A   1     -23.918   1.774  27.939  0.00  0.00    +0.099 A 
ATOM      5  C   UNL A   1     -24.636  -0.367  27.312  0.00  0.00    +0.003 A 
ATOM      6  C   UNL A   1     -24.363   0.947  26.996  0.00  0.00    +0.021 A 
ENDROOT
BRANCH   1   8
ATOM      7  C   UNL A   1     -22.959  -0.968  31.241  0.00  0.00    +0.002 A 
ATOM      8  C   UNL A   1     -23.764  -0.336  30.991  0.00  0.00    +0.018 A 
ATOM      9  C   UNL A   1     -22.888  -1.388  32.692  0.00  0.00    +0.000 A 
ATOM     10  C   UNL A   1     -23.942  -1.044  33.564  0.00  0.00    +0.000 A 
ATOM     11  C   UNL A   1     -24.988   0.132  31.681  0.00  0.00    +0.002 A 
ATOM     12  C   UNL A   1     -24.961  -0.241  33.018  0.00  0.00    +0.000 A 
ENDBRANCH   1   8
BRANCH   3  13
ATOM     13  C   UNL A   1     -24.848  -2.124  28.912  0.00  0.00    +0.001 A 
ATOM     14  C   UNL A   1     -26.076  -2.360  29.537  0.00  0.00    +0.000 A 
ATOM     15  C   UNL A   1     -26.449  -3.714  29.741  0.00  0.00    +0.000 A 
ATOM     16  C   UNL A   1     -25.564  -4.792  29.477  0.00  0.00    +0.000 A 
ATOM     17  C   UNL A   1     -24.313  -4.507  28.953  0.00  0.00    +0.000 A 
ATOM     18  C   UNL A   1     -23.949  -3.220  28.627  0.00  0.00    +0.000 A 
ENDBRANCH   3  13
TORSDOF 2
ENDMDL
ENDMDL
