REMARK  Name = No_1794-gen_results/8p0m/2024-11-26-14-13-15/
REMARK  2 active torsions:
REMARK  status: ('A' for Active; 'I' for Inactive)
REMARK    1  A    between atoms: C_2  and  C_7
REMARK    2  A    between atoms: C_9  and  C_10
REMARK                            x       y       z     vdW  Elec       q    Type
REMARK                         _______ _______ _______ _____ _____    ______ ____
ROOT
ATOM      1  C   UNL A   1     -30.074  -0.836  29.861  0.00  0.00    +0.081 A 
ATOM      2  N   UNL A   1     -30.653  -1.794  30.268  0.00  0.00    -0.244 NA
ATOM      3  C   UNL A   1     -30.737   0.248  29.229  0.00  0.00    +0.018 A 
ATOM      4  C   UNL A   1     -31.952  -2.056  30.051  0.00  0.00    +0.099 A 
ATOM      5  C   UNL A   1     -32.086   0.126  29.207  0.00  0.00    +0.003 A 
ATOM      6  C   UNL A   1     -32.694  -1.045  29.606  0.00  0.00    +0.021 A 
ENDROOT
BRANCH   1   8
ATOM      7  C   UNL A   1     -28.016  -0.814  28.878  0.00  0.00    +0.002 A 
ATOM      8  C   UNL A   1     -28.469  -0.785  29.829  0.00  0.00    +0.018 A 
ATOM      9  C   UNL A   1     -26.504  -0.778  28.877  0.00  0.00    +0.000 A 
ATOM     10  C   UNL A   1     -25.810  -0.853  30.103  0.00  0.00    +0.000 A 
ATOM     11  C   UNL A   1     -27.991  -0.892  31.226  0.00  0.00    +0.002 A 
ATOM     12  C   UNL A   1     -26.604  -0.868  31.265  0.00  0.00    +0.000 A 
ENDBRANCH   1   8
BRANCH   3  13
ATOM     13  C   UNL A   1     -30.124   1.403  28.748  0.00  0.00    +0.001 A 
ATOM     14  C   UNL A   1     -30.900   2.370  28.102  0.00  0.00    +0.000 A 
ATOM     15  C   UNL A   1     -30.256   3.582  27.741  0.00  0.00    +0.000 A 
ATOM     16  C   UNL A   1     -28.855   3.765  27.875  0.00  0.00    +0.000 A 
ATOM     17  C   UNL A   1     -28.104   2.738  28.426  0.00  0.00    +0.000 A 
ATOM     18  C   UNL A   1     -28.699   1.591  28.901  0.00  0.00    +0.000 A 
ENDBRANCH   3  13
TORSDOF 2
