MODEL 1795
MODEL 1
REMARK VINA RESULT:    -6.164      0.000      0.000
REMARK INTER + INTRA:          -7.627
REMARK INTER:                  -7.245
REMARK INTRA:                  -0.382
REMARK UNBOUND:                -0.382
REMARK  Name = No_1795-gen_results/8p0m/2024-11-26-14-13-15/
REMARK  3 active torsions:
REMARK  status: ('A' for Active; 'I' for Inactive)
REMARK    1  A    between atoms: C_3  and  C_7
REMARK    2  A    between atoms: C_7  and  C_8
REMARK    3  A    between atoms: C_9  and  C_10
REMARK                            x       y       z     vdW  Elec       q    Type
REMARK                         _______ _______ _______ _____ _____    ______ ____
ROOT
ATOM      1  C   UNL A   1     -26.238  -3.708  29.698  0.00  0.00    -0.004 A 
ATOM      2  C   UNL A   1     -26.075  -4.744  29.599  0.00  0.00    -0.000 A 
ATOM      3  C   UNL A   1     -25.210  -2.889  29.042  0.00  0.00    -0.018 A 
ATOM      4  C   UNL A   1     -24.092  -3.412  28.537  0.00  0.00    -0.004 A 
ATOM      5  C   UNL A   1     -24.960  -5.528  29.126  0.00  0.00    -0.000 A 
ATOM      6  C   UNL A   1     -24.005  -4.748  28.543  0.00  0.00    -0.000 A 
ENDROOT
BRANCH   3   7
ATOM      7  C   UNL A   1     -25.287  -1.366  28.993  0.00  0.00    +0.052 C 
BRANCH   7   8
ATOM      8  C   UNL A   1     -24.043  -0.740  29.043  0.00  0.00    -0.021 C 
ATOM      9  C   UNL A   1     -23.570   0.088  28.072  0.00  0.00    -0.005 C 
BRANCH   9  10
ATOM     10  C   UNL A   1     -22.337   0.808  28.193  0.00  0.00    -0.005 C 
ATOM     11  C   UNL A   1     -22.007   1.738  27.276  0.00  0.00    -0.026 C 
ATOM     12  C   UNL A   1     -23.030   2.220  26.456  0.00  0.00    +0.031 C 
ENDBRANCH   9  10
ENDBRANCH   7   8
ENDBRANCH   3   7
TORSDOF 3
ENDMDL
ENDMDL
