REMARK  Name = No_1795-gen_results/8p0m/2024-11-26-14-13-15/
REMARK  3 active torsions:
REMARK  status: ('A' for Active; 'I' for Inactive)
REMARK    1  A    between atoms: C_3  and  C_7
REMARK    2  A    between atoms: C_7  and  C_8
REMARK    3  A    between atoms: C_9  and  C_10
REMARK                            x       y       z     vdW  Elec       q    Type
REMARK                         _______ _______ _______ _____ _____    ______ ____
ROOT
ATOM      1  C   UNL A   1     -28.016  -0.814  28.878  0.00  0.00    -0.004 A 
ATOM      2  C   UNL A   1     -28.469  -0.785  29.829  0.00  0.00    -0.000 A 
ATOM      3  C   UNL A   1     -28.182   0.428  28.113  0.00  0.00    -0.018 A 
ATOM      4  C   UNL A   1     -28.984   1.415  28.515  0.00  0.00    -0.004 A 
ATOM      5  C   UNL A   1     -29.380   0.138  30.461  0.00  0.00    -0.000 A 
ATOM      6  C   UNL A   1     -29.541   1.274  29.724  0.00  0.00    -0.000 A 
ENDROOT
BRANCH   3   7
ATOM      7  C   UNL A   1     -27.543   0.637  26.744  0.00  0.00    +0.052 C 
BRANCH   7   8
ATOM      8  C   UNL A   1     -26.154   0.530  26.750  0.00  0.00    -0.021 C 
ATOM      9  C   UNL A   1     -25.323   1.453  27.308  0.00  0.00    -0.005 C 
BRANCH   9  10
ATOM     10  C   UNL A   1     -23.905   1.272  27.400  0.00  0.00    -0.005 C 
ATOM     11  C   UNL A   1     -23.078   2.316  27.197  0.00  0.00    -0.026 C 
ATOM     12  C   UNL A   1     -23.633   3.595  27.265  0.00  0.00    +0.031 C 
ENDBRANCH   9  10
ENDBRANCH   7   8
ENDBRANCH   3   7
TORSDOF 3
