MODEL 1796
MODEL 1
REMARK VINA RESULT:    -7.217      0.000      0.000
REMARK INTER + INTRA:         -10.087
REMARK INTER:                  -9.326
REMARK INTRA:                  -0.760
REMARK UNBOUND:                -0.760
REMARK  Name = No_1796-gen_results/8p0m/2024-11-26-14-13-15/
REMARK  5 active torsions:
REMARK  status: ('A' for Active; 'I' for Inactive)
REMARK    1  A    between atoms: C_1  and  C_12
REMARK    2  A    between atoms: C_3  and  C_15
REMARK    3  A    between atoms: C_5  and  C_7
REMARK    4  A    between atoms: C_16  and  C_22
REMARK    5  A    between atoms: C_22  and  N_23
REMARK                            x       y       z     vdW  Elec       q    Type
REMARK                         _______ _______ _______ _____ _____    ______ ____
ROOT
ATOM      1  C   UNL A   1     -24.632   0.413  27.110  0.00  0.00    +0.072 A 
ATOM      2  C   UNL A   1     -24.818  -0.753  27.372  0.00  0.00    +0.004 A 
ATOM      3  C   UNL A   1     -24.870  -1.248  28.660  0.00  0.00    -0.000 A 
ATOM      4  C   UNL A   1     -24.737  -0.326  29.736  0.00  0.00    +0.004 A 
ATOM      5  C   UNL A   1     -24.703   0.984  29.396  0.00  0.00    +0.053 A 
ATOM      6  C   UNL A   1     -24.698   1.370  28.134  0.00  0.00    +0.008 A 
ENDROOT
BRANCH   3   7
ATOM      7  C   UNL A   1     -24.887  -2.731  28.959  0.00  0.00    -0.002 A 
ATOM      8  C   UNL A   1     -26.060  -3.208  29.671  0.00  0.00    +0.002 A 
ATOM      9  C   UNL A   1     -26.212  -4.622  29.683  0.00  0.00    -0.002 A 
ATOM     10  C   UNL A   1     -25.129  -5.406  29.180  0.00  0.00    -0.000 A 
ATOM     11  C   UNL A   1     -24.060  -4.867  28.605  0.00  0.00    -0.000 A 
ATOM     12  C   UNL A   1     -23.932  -3.525  28.460  0.00  0.00    -0.000 A 
BRANCH   8  13
ATOM     13  C   UNL A   1     -27.166  -2.437  30.192  0.00  0.00    +0.152 C 
BRANCH  13  14
ATOM     14  N   UNL A   1     -28.382  -2.959  30.185  0.00  0.00    -0.263 NA
ATOM     15  C   UNL A   1     -29.329  -2.728  31.063  0.00  0.00    +0.114 C 
ENDBRANCH  13  14
ENDBRANCH   8  13
ENDBRANCH   3   7
BRANCH   5  16
ATOM     16  C   UNL A   1     -24.594   1.928  30.527  0.00  0.00    +0.249 C 
ATOM     17  N   UNL A   1     -25.498   2.464  30.985  0.00  0.00    -0.273 N 
ATOM     18  O   UNL A   1     -23.411   2.227  30.946  0.00  0.00    -0.270 OA
ATOM     19  C   UNL A   1     -26.930   2.325  30.535  0.00  0.00    +0.115 C 
ATOM     20  C   UNL A   1     -25.466   3.353  32.236  0.00  0.00    +0.115 C 
ENDBRANCH   5  16
BRANCH   1  21
ATOM     21  C   UNL A   1     -24.625   0.891  25.646  0.00  0.00    +0.419 C 
ATOM     22  F   UNL A   1     -24.758   0.335  24.755  0.00  0.00    -0.166 F 
ATOM     23  F   UNL A   1     -23.421   1.674  25.534  0.00  0.00    -0.166 F 
ATOM     24  F   UNL A   1     -25.498   2.038  25.805  0.00  0.00    -0.166 F 
ENDBRANCH   1  21
TORSDOF 5
ENDMDL
ENDMDL
