REMARK  Name = No_1796-gen_results/8p0m/2024-11-26-14-13-15/
REMARK  5 active torsions:
REMARK  status: ('A' for Active; 'I' for Inactive)
REMARK    1  A    between atoms: C_1  and  C_12
REMARK    2  A    between atoms: C_3  and  C_15
REMARK    3  A    between atoms: C_5  and  C_7
REMARK    4  A    between atoms: C_16  and  C_22
REMARK    5  A    between atoms: C_22  and  N_23
REMARK                            x       y       z     vdW  Elec       q    Type
REMARK                         _______ _______ _______ _____ _____    ______ ____
ROOT
ATOM      1  C   UNL A   1     -28.016  -0.814  28.878  0.00  0.00    +0.072 A 
ATOM      2  C   UNL A   1     -27.064  -0.119  28.608  0.00  0.00    +0.004 A 
ATOM      3  C   UNL A   1     -27.001   0.691  27.491  0.00  0.00    -0.000 A 
ATOM      4  C   UNL A   1     -28.137   0.736  26.635  0.00  0.00    +0.004 A 
ATOM      5  C   UNL A   1     -29.236   0.076  27.069  0.00  0.00    +0.053 A 
ATOM      6  C   UNL A   1     -29.218  -0.643  28.175  0.00  0.00    +0.008 A 
ENDROOT
BRANCH   3   7
ATOM      7  C   UNL A   1     -25.726   1.381  27.060  0.00  0.00    -0.002 A 
ATOM      8  C   UNL A   1     -25.116   2.241  28.060  0.00  0.00    +0.002 A 
ATOM      9  C   UNL A   1     -23.784   2.641  27.765  0.00  0.00    -0.002 A 
ATOM     10  C   UNL A   1     -23.273   2.328  26.468  0.00  0.00    -0.000 A 
ATOM     11  C   UNL A   1     -23.943   1.587  25.593  0.00  0.00    -0.000 A 
ATOM     12  C   UNL A   1     -25.167   1.079  25.882  0.00  0.00    -0.000 A 
BRANCH   8  13
ATOM     13  C   UNL A   1     -25.613   2.576  29.375  0.00  0.00    +0.152 C 
BRANCH  13  14
ATOM     14  N   UNL A   1     -26.301   3.694  29.544  0.00  0.00    -0.263 NA
ATOM     15  C   UNL A   1     -27.086   3.975  30.557  0.00  0.00    +0.114 C 
ENDBRANCH  13  14
ENDBRANCH   8  13
ENDBRANCH   3   7
BRANCH   5  16
ATOM     16  C   UNL A   1     -30.415   0.159  26.182  0.00  0.00    +0.249 C 
ATOM     17  N   UNL A   1     -31.023   1.119  26.035  0.00  0.00    -0.273 N 
ATOM     18  O   UNL A   1     -30.824  -0.932  25.627  0.00  0.00    -0.270 OA
ATOM     19  C   UNL A   1     -30.757   2.445  26.703  0.00  0.00    +0.115 C 
ATOM     20  C   UNL A   1     -32.174   1.301  25.036  0.00  0.00    +0.115 C 
ENDBRANCH   5  16
BRANCH   1  21
ATOM     21  C   UNL A   1     -28.022  -1.661  30.165  0.00  0.00    +0.419 C 
ATOM     22  F   UNL A   1     -28.726  -1.680  30.956  0.00  0.00    -0.166 F 
ATOM     23  F   UNL A   1     -26.704  -1.479  30.715  0.00  0.00    -0.166 F 
ATOM     24  F   UNL A   1     -27.722  -2.945  29.561  0.00  0.00    -0.166 F 
ENDBRANCH   1  21
TORSDOF 5
