MODEL 1797
MODEL 1
REMARK VINA RESULT:    -7.914      0.000      0.000
REMARK INTER + INTRA:         -12.588
REMARK INTER:                 -11.152
REMARK INTRA:                  -1.435
REMARK UNBOUND:                -1.435
REMARK  Name = No_1797-gen_results/8p0m/2024-11-26-14-13-15/
REMARK  7 active torsions:
REMARK  status: ('A' for Active; 'I' for Inactive)
REMARK    1  A    between atoms: C_5  and  C_8
REMARK    2  A    between atoms: C_7  and  C_10
REMARK    3  A    between atoms: C_8  and  N_9
REMARK    4  A    between atoms: N_9  and  C_16
REMARK    5  A    between atoms: C_15  and  C_20
REMARK    6  A    between atoms: C_21  and  C_22
REMARK    7  A    between atoms: C_25  and  C_28
REMARK                            x       y       z     vdW  Elec       q    Type
REMARK                         _______ _______ _______ _____ _____    ______ ____
ROOT
ATOM      1  C   UNL A   1     -25.126   1.343  26.015  0.00  0.00    +0.082 A 
ATOM      2  N   UNL A   1     -25.864   2.320  26.283  0.00  0.00    -0.244 NA
ATOM      3  C   UNL A   1     -26.892   2.734  25.516  0.00  0.00    +0.099 A 
ATOM      4  C   UNL A   1     -25.570   0.373  25.159  0.00  0.00    +0.019 A 
ATOM      5  C   UNL A   1     -26.691   0.584  24.418  0.00  0.00    +0.003 A 
ATOM      6  C   UNL A   1     -27.430   1.739  24.667  0.00  0.00    +0.019 A 
ENDROOT
BRANCH   1  13
ATOM      7 CL   UNL A   1     -22.808   2.881  25.214  0.00  0.00    -0.082 Cl
ATOM      8  C   UNL A   1     -22.642   1.915  26.271  0.00  0.00    +0.059 A 
ATOM      9  C   UNL A   1     -21.757   1.751  27.021  0.00  0.00    +0.011 A 
ATOM     10  C   UNL A   1     -21.626   0.762  28.108  0.00  0.00    -0.002 A 
ATOM     11  C   UNL A   1     -22.541   0.234  28.402  0.00  0.00    -0.006 A 
ATOM     12  C   UNL A   1     -23.790   0.286  27.758  0.00  0.00    -0.001 A 
ATOM     13  C   UNL A   1     -23.792   1.186  26.758  0.00  0.00    +0.028 A 
BRANCH  11  14
ATOM     14  C   UNL A   1     -22.541  -0.812  29.611  0.00  0.00    +0.099 C 
BRANCH  14  15
ATOM     15  N   UNL A   1     -23.788  -0.982  30.158  0.00  0.00    -0.269 NA
ATOM     16  C   UNL A   1     -24.166  -2.457  30.091  0.00  0.00    +0.090 C 
BRANCH  15  17
ATOM     17  C   UNL A   1     -24.033  -0.663  31.411  0.00  0.00    +0.058 C 
ATOM     18  C   UNL A   1     -23.117  -1.179  32.468  0.00  0.00    +0.017 C 
ATOM     19  C   UNL A   1     -24.278   0.860  31.592  0.00  0.00    +0.017 C 
ENDBRANCH  15  17
ENDBRANCH  14  15
ENDBRANCH  11  14
ENDBRANCH   1  13
BRANCH   6  20
ATOM     20  C   UNL A   1     -28.652   2.110  23.944  0.00  0.00    +0.002 C 
ATOM     21  C   UNL A   1     -29.619   1.070  23.984  0.00  0.00    +0.000 C 
BRANCH  21  22
ATOM     22  C   UNL A   1     -30.810   1.210  23.192  0.00  0.00    -0.000 A 
ATOM     23  C   UNL A   1     -31.009   2.211  22.259  0.00  0.00    -0.000 A 
ATOM     24  C   UNL A   1     -32.197   2.188  21.440  0.00  0.00    +0.004 A 
ATOM     25  C   UNL A   1     -33.081   1.037  21.580  0.00  0.00    +0.071 A 
ATOM     26  C   UNL A   1     -32.855   0.064  22.463  0.00  0.00    +0.004 A 
ATOM     27  C   UNL A   1     -31.712   0.114  23.263  0.00  0.00    -0.000 A 
BRANCH  25  28
ATOM     28  C   UNL A   1     -34.325   1.005  20.719  0.00  0.00    +0.419 C 
ATOM     29  F   UNL A   1     -34.646  -0.051  20.351  0.00  0.00    -0.166 F 
ATOM     30  F   UNL A   1     -35.314   1.689  21.414  0.00  0.00    -0.166 F 
ATOM     31  F   UNL A   1     -34.080   1.771  19.588  0.00  0.00    -0.166 F 
ENDBRANCH  25  28
ENDBRANCH  21  22
ENDBRANCH   6  20
TORSDOF 7
ENDMDL
ENDMDL
