REMARK  Name = No_1797-gen_results/8p0m/2024-11-26-14-13-15/
REMARK  7 active torsions:
REMARK  status: ('A' for Active; 'I' for Inactive)
REMARK    1  A    between atoms: C_5  and  C_8
REMARK    2  A    between atoms: C_7  and  C_10
REMARK    3  A    between atoms: C_8  and  N_9
REMARK    4  A    between atoms: N_9  and  C_16
REMARK    5  A    between atoms: C_15  and  C_20
REMARK    6  A    between atoms: C_21  and  C_22
REMARK    7  A    between atoms: C_25  and  C_28
REMARK                            x       y       z     vdW  Elec       q    Type
REMARK                         _______ _______ _______ _____ _____    ______ ____
ROOT
ATOM      1  C   UNL A   1     -27.601   1.004  26.728  0.00  0.00    +0.082 A 
ATOM      2  N   UNL A   1     -27.252   0.890  25.529  0.00  0.00    -0.244 NA
ATOM      3  C   UNL A   1     -28.106   0.768  24.494  0.00  0.00    +0.099 A 
ATOM      4  C   UNL A   1     -28.861   1.443  27.029  0.00  0.00    +0.019 A 
ATOM      5  C   UNL A   1     -29.803   1.520  26.051  0.00  0.00    +0.003 A 
ATOM      6  C   UNL A   1     -29.403   1.278  24.738  0.00  0.00    +0.019 A 
ENDROOT
BRANCH   1  13
ATOM      7 CL   UNL A   1     -28.149  -0.820  28.908  0.00  0.00    -0.082 Cl
ATOM      8  C   UNL A   1     -26.912  -0.080  28.945  0.00  0.00    +0.059 A 
ATOM      9  C   UNL A   1     -25.966  -0.212  29.623  0.00  0.00    +0.011 A 
ATOM     10  C   UNL A   1     -24.704   0.553  29.622  0.00  0.00    -0.002 A 
ATOM     11  C   UNL A   1     -24.524   1.199  28.755  0.00  0.00    -0.006 A 
ATOM     12  C   UNL A   1     -25.429   1.495  27.720  0.00  0.00    -0.001 A 
ATOM     13  C   UNL A   1     -26.561   0.778  27.835  0.00  0.00    +0.028 A 
BRANCH  11  14
ATOM     14  C   UNL A   1     -23.164   2.026  28.606  0.00  0.00    +0.099 C 
BRANCH  14  15
ATOM     15  N   UNL A   1     -22.162   1.290  28.025  0.00  0.00    -0.269 NA
ATOM     16  C   UNL A   1     -21.021   2.221  27.634  0.00  0.00    +0.090 C 
BRANCH  15  17
ATOM     17  C   UNL A   1     -21.555   0.325  28.682  0.00  0.00    +0.058 C 
ATOM     18  C   UNL A   1     -22.390  -0.718  29.344  0.00  0.00    +0.017 C 
ATOM     19  C   UNL A   1     -20.418  -0.328  27.850  0.00  0.00    +0.017 C 
ENDBRANCH  15  17
ENDBRANCH  14  15
ENDBRANCH  11  14
ENDBRANCH   1  13
BRANCH   6  20
ATOM     20  C   UNL A   1     -30.303   1.312  23.580  0.00  0.00    +0.002 C 
ATOM     21  C   UNL A   1     -30.786   2.625  23.332  0.00  0.00    +0.000 C 
BRANCH  21  22
ATOM     22  C   UNL A   1     -31.801   2.806  22.331  0.00  0.00    -0.000 A 
ATOM     23  C   UNL A   1     -32.324   4.035  21.970  0.00  0.00    -0.000 A 
ATOM     24  C   UNL A   1     -33.258   4.110  20.872  0.00  0.00    +0.004 A 
ATOM     25  C   UNL A   1     -33.520   2.880  20.135  0.00  0.00    +0.071 A 
ATOM     26  C   UNL A   1     -32.980   1.711  20.478  0.00  0.00    +0.004 A 
ATOM     27  C   UNL A   1     -32.096   1.652  21.557  0.00  0.00    -0.000 A 
BRANCH  25  28
ATOM     28  C   UNL A   1     -34.494   2.955  18.979  0.00  0.00    +0.419 C 
ATOM     29  F   UNL A   1     -34.757   1.935  18.486  0.00  0.00    -0.166 F 
ATOM     30  F   UNL A   1     -35.597   3.670  19.427  0.00  0.00    -0.166 F 
ATOM     31  F   UNL A   1     -33.924   3.747  17.992  0.00  0.00    -0.166 F 
ENDBRANCH  25  28
ENDBRANCH  21  22
ENDBRANCH   6  20
TORSDOF 7
