REMARK  Name = No_1798-gen_results/8p0m/2024-11-26-14-13-15/
REMARK  5 active torsions:
REMARK  status: ('A' for Active; 'I' for Inactive)
REMARK    1  A    between atoms: C_2  and  C_15
REMARK    2  A    between atoms: C_3  and  C_8
REMARK    3  A    between atoms: C_9  and  O_11
REMARK    4  A    between atoms: O_11  and  C_23
REMARK    5  A    between atoms: C_23  and  C_24
REMARK                            x       y       z     vdW  Elec       q    Type
REMARK                         _______ _______ _______ _____ _____    ______ ____
ROOT
ATOM      1  C   UNL A   1     -28.016  -0.814  28.878  0.00  0.00    +0.011 A 
ATOM      2  C   UNL A   1     -27.064  -0.119  28.608  0.00  0.00    +0.003 A 
ATOM      3  C   UNL A   1     -25.765  -0.390  29.036  0.00  0.00    +0.015 A 
ATOM      4  C   UNL A   1     -25.530  -1.530  29.901  0.00  0.00    +0.059 A 
ATOM      5  C   UNL A   1     -26.689  -2.289  30.181  0.00  0.00    +0.023 A 
ATOM      6  C   UNL A   1     -27.873  -1.951  29.737  0.00  0.00    +0.059 A 
ATOM      7 CL   UNL A   1     -29.127  -3.033  30.255  0.00  0.00    -0.082 Cl
ATOM      8 CL   UNL A   1     -23.978  -1.954  30.441  0.00  0.00    -0.082 Cl
ENDROOT
BRANCH   2   9
ATOM      9  C   UNL A   1     -27.207   1.058  27.654  0.00  0.00    +0.011 A 
ATOM     10  C   UNL A   1     -27.549   2.213  28.281  0.00  0.00    +0.058 A 
ATOM     11  C   UNL A   1     -27.766   3.394  27.490  0.00  0.00    +0.011 A 
ATOM     12  C   UNL A   1     -27.600   3.293  26.122  0.00  0.00    +0.001 A 
ATOM     13  C   UNL A   1     -27.088   0.931  26.327  0.00  0.00    +0.001 A 
ATOM     14  C   UNL A   1     -27.270   2.052  25.509  0.00  0.00    +0.000 A 
ATOM     15 CL   UNL A   1     -27.737   2.442  29.958  0.00  0.00    -0.082 Cl
ENDBRANCH   2   9
BRANCH   3  16
ATOM     16  C   UNL A   1     -24.542   0.432  28.727  0.00  0.00    +0.054 A 
ATOM     17  C   UNL A   1     -24.064   1.403  29.584  0.00  0.00    +0.225 A 
ATOM     18  N   UNL A   1     -23.000   2.133  29.161  0.00  0.00    -0.210 NA
ATOM     19  C   UNL A   1     -22.211   1.924  28.013  0.00  0.00    +0.102 A 
ATOM     20  C   UNL A   1     -23.793   0.237  27.481  0.00  0.00    +0.006 A 
ATOM     21  C   UNL A   1     -22.731   0.972  27.220  0.00  0.00    +0.021 A 
BRANCH  17  22
ATOM     22  O   UNL A   1     -24.655   1.709  30.667  0.00  0.00    -0.455 OA
BRANCH  22  23
ATOM     23  C   UNL A   1     -24.416   1.131  31.898  0.00  0.00    +0.234 C 
BRANCH  23  24
ATOM     24  C   UNL A   1     -25.709   0.865  32.702  0.00  0.00    +0.021 A 
ATOM     25  C   UNL A   1     -25.721  -0.117  33.620  0.00  0.00    -0.001 A 
ATOM     26  C   UNL A   1     -27.003  -0.483  34.129  0.00  0.00    -0.000 A 
ATOM     27  C   UNL A   1     -28.165   0.145  33.627  0.00  0.00    -0.000 A 
ATOM     28  C   UNL A   1     -28.047   1.254  32.800  0.00  0.00    -0.000 A 
ATOM     29  C   UNL A   1     -26.837   1.546  32.231  0.00  0.00    -0.001 A 
ENDBRANCH  23  24
ENDBRANCH  22  23
ENDBRANCH  17  22
ENDBRANCH   3  16
TORSDOF 5
