MODEL 1799
MODEL 1
REMARK VINA RESULT:    -4.442      0.000      0.000
REMARK INTER + INTRA:          -5.083
REMARK INTER:                  -4.961
REMARK INTRA:                  -0.122
REMARK UNBOUND:                -0.122
REMARK  Name = No_1799-gen_results/8p0m/2024-11-26-14-13-15/
REMARK  2 active torsions:
REMARK  status: ('A' for Active; 'I' for Inactive)
REMARK    1  A    between atoms: C_1  and  C_2
REMARK    2  A    between atoms: C_5  and  C_6
REMARK                            x       y       z     vdW  Elec       q    Type
REMARK                         _______ _______ _______ _____ _____    ______ ____
ROOT
ATOM      1  C   UNL A   1     -28.995 -11.281  30.955  0.00  0.00    -0.009 C 
ATOM      2  C   UNL A   1     -29.533 -11.090  29.554  0.00  0.00    -0.044 C 
ATOM      3  C   UNL A   1     -30.556 -10.157  29.153  0.00  0.00    +0.026 C 
ATOM      4  C   UNL A   1     -29.034 -11.908  28.477  0.00  0.00    +0.026 C 
ENDROOT
BRANCH   1   5
ATOM      5  C   UNL A   1     -28.165 -11.926  31.037  0.00  0.00    -0.003 C 
ATOM      6  C   UNL A   1     -27.346 -12.327  32.189  0.00  0.00    +0.009 C 
BRANCH   6   7
ATOM      7  C   UNL A   1     -27.836 -11.948  33.420  0.00  0.00    +0.208 C 
ATOM      8  O   UNL A   1     -27.297 -12.366  34.576  0.00  0.00    -0.215 OA
ENDBRANCH   6   7
ENDBRANCH   1   5
TORSDOF 2
ENDMDL
ENDMDL
