REMARK  Name = No_1799-gen_results/8p0m/2024-11-26-14-13-15/
REMARK  2 active torsions:
REMARK  status: ('A' for Active; 'I' for Inactive)
REMARK    1  A    between atoms: C_1  and  C_2
REMARK    2  A    between atoms: C_5  and  C_6
REMARK                            x       y       z     vdW  Elec       q    Type
REMARK                         _______ _______ _______ _____ _____    ______ ____
ROOT
ATOM      1  C   UNL A   1     -28.016  -0.814  28.878  0.00  0.00    -0.009 C 
ATOM      2  C   UNL A   1     -26.504  -0.778  28.877  0.00  0.00    -0.044 C 
ATOM      3  C   UNL A   1     -25.654  -0.660  27.719  0.00  0.00    +0.026 C 
ATOM      4  C   UNL A   1     -25.783  -0.893  30.120  0.00  0.00    +0.026 C 
ENDROOT
BRANCH   1   5
ATOM      5  C   UNL A   1     -28.469  -0.785  29.829  0.00  0.00    -0.003 C 
ATOM      6  C   UNL A   1     -27.918  -0.937  31.182  0.00  0.00    +0.009 C 
BRANCH   6   7
ATOM      7  C   UNL A   1     -26.542  -0.940  31.261  0.00  0.00    +0.208 C 
ATOM      8  O   UNL A   1     -25.881  -1.010  32.427  0.00  0.00    -0.215 OA
ENDBRANCH   6   7
ENDBRANCH   1   5
TORSDOF 2
