MODEL 17
MODEL 1
REMARK VINA RESULT:    -7.461      0.000      0.000
REMARK INTER + INTRA:         -15.643
REMARK INTER:                 -12.259
REMARK INTRA:                  -3.384
REMARK UNBOUND:                -3.384
REMARK  Name = No_17-gen_results/8p0m/2024-11-26-14-13-15/
REMARK  11 active torsions:
REMARK  status: ('A' for Active; 'I' for Inactive)
REMARK    1  A    between atoms: C_2  and  C_7
REMARK    2  A    between atoms: C_4  and  C_10
REMARK    3  A    between atoms: C_11  and  C_17
REMARK    4  A    between atoms: C_17  and  O_19
REMARK    5  A    between atoms: O_19  and  C_20
REMARK    6  A    between atoms: C_20  and  C_21
REMARK    7  A    between atoms: C_21  and  C_22
REMARK    8  A    between atoms: C_21  and  C_29
REMARK    9  A    between atoms: C_22  and  C_23
REMARK   10  A    between atoms: C_30  and  C_31
REMARK   11  A    between atoms: C_32  and  C_33
REMARK                            x       y       z     vdW  Elec       q    Type
REMARK                         _______ _______ _______ _____ _____    ______ ____
ROOT
ATOM      1  C   UNL A   1      -7.992   3.194  37.090  0.00  0.00    +0.341 C 
ATOM      2  O   UNL A   1      -6.993   3.318  37.640  0.00  0.00    -0.245 OA
ENDROOT
BRANCH   1   4
ATOM      3  C   UNL A   1      -7.499   3.224  34.538  0.00  0.00    +0.034 A 
ATOM      4  C   UNL A   1      -8.280   3.650  35.681  0.00  0.00    +0.078 A 
ATOM      5  C   UNL A   1      -9.420   4.484  35.472  0.00  0.00    +0.007 A 
ATOM      6  C   UNL A   1      -9.539   5.106  34.208  0.00  0.00    +0.003 A 
ATOM      7  C   UNL A   1      -8.826   4.551  33.136  0.00  0.00    +0.030 A 
ATOM      8  C   UNL A   1      -7.823   3.641  33.262  0.00  0.00    +0.140 A 
ATOM      9  F   UNL A   1      -7.187   3.258  32.237  0.00  0.00    -0.204 F 
BRANCH   3  13
ATOM     10  C   UNL A   1      -5.017   0.318  34.984  0.00  0.00    +0.007 A 
ATOM     11  C   UNL A   1      -5.687  -0.466  34.766  0.00  0.00    +0.080 A 
ATOM     12  C   UNL A   1      -5.549   1.687  34.884  0.00  0.00    +0.000 A 
ATOM     13  C   UNL A   1      -6.937   1.909  34.644  0.00  0.00    +0.002 A 
ATOM     14  C   UNL A   1      -7.159  -0.509  34.552  0.00  0.00    +0.007 A 
ATOM     15  C   UNL A   1      -7.688   0.743  34.444  0.00  0.00    +0.000 A 
BRANCH  11  16
ATOM     16  C   UNL A   1      -5.154  -1.964  34.881  0.00  0.00    +0.388 C 
ATOM     17  O   UNL A   1      -4.018  -2.162  35.421  0.00  0.00    -0.241 OA
ATOM     18  O   UNL A   1      -5.954  -2.860  34.513  0.00  0.00    -0.241 OA
ENDBRANCH  11  16
ENDBRANCH   3  13
ENDBRANCH   1   4
BRANCH   1  19
ATOM     19  O   UNL A   1      -9.029   2.472  37.675  0.00  0.00    -0.445 OA
BRANCH  19  20
ATOM     20  C   UNL A   1      -8.966   1.157  37.798  0.00  0.00    +0.213 C 
BRANCH  20  21
ATOM     21  C   UNL A   1      -9.804   0.427  36.924  0.00  0.00    +0.070 C 
BRANCH  21  22
ATOM     22  C   UNL A   1     -11.096   1.210  36.630  0.00  0.00    -0.022 C 
ATOM     23  C   UNL A   1     -11.435   1.383  35.299  0.00  0.00    -0.004 C 
BRANCH  23  24
ATOM     24  C   UNL A   1     -12.604   2.139  34.949  0.00  0.00    -0.000 C 
ATOM     25  C   UNL A   1     -13.371   2.572  36.037  0.00  0.00    -0.000 C 
BRANCH  25  26
ATOM     26  C   UNL A   1     -14.546   3.234  35.639  0.00  0.00    -0.005 C 
ATOM     27  C   UNL A   1     -15.493   3.550  36.504  0.00  0.00    -0.026 C 
ATOM     28  C   UNL A   1     -15.447   3.299  37.829  0.00  0.00    +0.031 C 
ENDBRANCH  25  26
ENDBRANCH  23  24
ENDBRANCH  21  22
BRANCH  21  29
ATOM     29  C   UNL A   1     -10.042  -0.790  37.063  0.00  0.00    +0.034 C 
BRANCH  29  30
ATOM     30  C   UNL A   1     -10.653  -1.256  37.929  0.00  0.00    -0.022 A 
ATOM     31  C   UNL A   1     -10.343  -1.065  39.362  0.00  0.00    -0.004 A 
ATOM     32  C   UNL A   1     -11.208  -1.436  40.392  0.00  0.00    -0.000 A 
ATOM     33  C   UNL A   1     -12.210  -2.312  40.256  0.00  0.00    -0.000 A 
ATOM     34  C   UNL A   1     -12.416  -2.775  38.942  0.00  0.00    -0.000 A 
ATOM     35  C   UNL A   1     -11.609  -2.271  37.866  0.00  0.00    -0.004 A 
ENDBRANCH  29  30
ENDBRANCH  21  29
ENDBRANCH  20  21
ENDBRANCH  19  20
ENDBRANCH   1  19
TORSDOF 11
ENDMDL
ENDMDL
