REMARK  Name = No_18-gen_results/8p0m/2024-11-26-14-13-15/
REMARK  6 active torsions:
REMARK  status: ('A' for Active; 'I' for Inactive)
REMARK    1  A    between atoms: C_1  and  C_2
REMARK    2  A    between atoms: C_3  and  O_19
REMARK    3  A    between atoms: C_5  and  C_10
REMARK    4  A    between atoms: N_11  and  C_13
REMARK    5  A    between atoms: C_13  and  C_14
REMARK    6  A    between atoms: O_19  and  C_20
REMARK                            x       y       z     vdW  Elec       q    Type
REMARK                         _______ _______ _______ _____ _____    ______ ____
ROOT
ATOM      1  C   UNL A   1     -27.064  -0.119  28.608  0.00  0.00    +0.107 A 
ATOM      2  C   UNL A   1     -26.929   1.171  29.008  0.00  0.00    +0.160 A 
ATOM      3  C   UNL A   1     -25.770   2.034  28.688  0.00  0.00    +0.096 A 
ATOM      4  C   UNL A   1     -24.714   1.443  27.919  0.00  0.00    +0.057 A 
ATOM      5  C   UNL A   1     -24.859   0.078  27.584  0.00  0.00    +0.005 A 
ATOM      6  C   UNL A   1     -25.965  -0.661  27.916  0.00  0.00    +0.007 A 
ATOM      7 CL   UNL A   1     -25.777   3.616  29.230  0.00  0.00    -0.079 Cl
ENDROOT
BRANCH   1   8
ATOM      8  C   UNL A   1     -28.016  -0.814  28.878  0.00  0.00    +0.421 C 
ATOM      9  F   UNL A   1     -29.059  -0.509  28.282  0.00  0.00    -0.166 F 
ATOM     10  F   UNL A   1     -28.337  -0.810  30.279  0.00  0.00    -0.166 F 
ATOM     11  F   UNL A   1     -27.768  -2.116  28.780  0.00  0.00    -0.166 F 
ENDBRANCH   1   8
BRANCH   4  12
ATOM     12  C   UNL A   1     -23.540   2.145  27.560  0.00  0.00    +0.215 C 
ATOM     13  N   UNL A   1     -22.390   1.673  27.269  0.00  0.00    -0.149 NA
ATOM     14  F   UNL A   1     -23.807   3.173  26.836  0.00  0.00    -0.186 F 
BRANCH  13  15
ATOM     15  C   UNL A   1     -21.681   1.044  28.340  0.00  0.00    +0.281 C 
ATOM     16  O   UNL A   1     -22.344   0.739  29.417  0.00  0.00    -0.270 OA
BRANCH  15  17
ATOM     17  C   UNL A   1     -20.480   0.355  27.942  0.00  0.00    +0.268 C 
ATOM     18  O   UNL A   1     -20.242  -0.775  28.625  0.00  0.00    -0.210 OA
ENDBRANCH  15  17
ENDBRANCH  13  15
ENDBRANCH   4  12
BRANCH   2  19
ATOM     19  O   UNL A   1     -27.939   1.718  29.681  0.00  0.00    -0.450 OA
BRANCH  19  20
ATOM     20  C   UNL A   1     -28.841   2.527  29.315  0.00  0.00    +0.175 C 
ATOM     21  C   UNL A   1     -28.835   3.280  28.515  0.00  0.00    +0.015 C 
ATOM     22  C   UNL A   1     -29.937   4.163  28.084  0.00  0.00    +0.034 C 
ENDBRANCH  19  20
ENDBRANCH   2  19
TORSDOF 6
