REMARK  Name = No_1800-gen_results/8p0m/2024-11-26-14-13-15/
REMARK  4 active torsions:
REMARK  status: ('A' for Active; 'I' for Inactive)
REMARK    1  A    between atoms: C_3  and  C_4
REMARK    2  A    between atoms: C_6  and  C_13
REMARK    3  A    between atoms: C_20  and  C_24
REMARK    4  A    between atoms: C_29  and  C_30
REMARK                            x       y       z     vdW  Elec       q    Type
REMARK                         _______ _______ _______ _____ _____    ______ ____
ROOT
ATOM      1  C   UNL A   1     -28.942  -2.841  30.384  0.00  0.00    +0.249 C 
ATOM      2  N   UNL A   1     -30.090  -2.412  30.606  0.00  0.00    -0.268 N 
ATOM      3  O   UNL A   1     -28.700  -4.056  30.561  0.00  0.00    -0.270 OA
ATOM      4  C   UNL A   1     -31.229  -3.255  31.039  0.00  0.00    +0.120 C 
ATOM      5  C   UNL A   1     -32.324  -3.001  30.491  0.00  0.00    -0.005 A 
ATOM      6  C   UNL A   1     -33.222  -3.454  30.219  0.00  0.00    -0.003 A 
ATOM      7  C   UNL A   1     -34.466  -2.983  29.458  0.00  0.00    +0.001 A 
ATOM      8  C   UNL A   1     -34.388  -1.659  29.071  0.00  0.00    +0.017 A 
ATOM      9  C   UNL A   1     -33.288  -0.913  29.285  0.00  0.00    -0.001 A 
ATOM     10  C   UNL A   1     -32.246  -1.433  29.930  0.00  0.00    -0.005 A 
ATOM     11  C   UNL A   1     -30.798  -1.468  29.573  0.00  0.00    +0.120 C 
ENDROOT
BRANCH   1  15
ATOM     12  C   UNL A   1     -28.016  -0.814  28.878  0.00  0.00    +0.004 A 
ATOM     13  C   UNL A   1     -27.064  -0.119  28.608  0.00  0.00    +0.000 A 
ATOM     14  C   UNL A   1     -25.792  -0.430  29.076  0.00  0.00    +0.000 A 
ATOM     15  C   UNL A   1     -27.882  -1.899  29.863  0.00  0.00    +0.054 A 
ATOM     16  C   UNL A   1     -26.653  -2.314  30.314  0.00  0.00    +0.004 A 
ATOM     17  C   UNL A   1     -25.515  -1.561  29.979  0.00  0.00    +0.000 A 
BRANCH  14  18
ATOM     18  C   UNL A   1     -24.546   0.349  28.823  0.00  0.00    +0.000 A 
ATOM     19  C   UNL A   1     -23.241   0.022  29.332  0.00  0.00    +0.000 A 
ATOM     20  C   UNL A   1     -22.159   0.787  28.951  0.00  0.00    +0.000 A 
ATOM     21  C   UNL A   1     -22.131   1.744  27.982  0.00  0.00    +0.000 A 
ATOM     22  C   UNL A   1     -24.517   1.371  27.793  0.00  0.00    +0.000 A 
ATOM     23  C   UNL A   1     -23.338   2.035  27.427  0.00  0.00    +0.000 A 
ENDBRANCH  14  18
ENDBRANCH   1  15
BRANCH   8  24
ATOM     24  C   UNL A   1     -35.600  -1.015  28.436  0.00  0.00    +0.081 A 
ATOM     25  N   UNL A   1     -36.255  -1.355  27.750  0.00  0.00    -0.244 NA
ATOM     26  C   UNL A   1     -35.775   0.429  28.881  0.00  0.00    +0.019 A 
ATOM     27  C   UNL A   1     -36.867   1.107  28.375  0.00  0.00    +0.009 A 
ATOM     28  C   UNL A   1     -37.388  -0.828  27.145  0.00  0.00    +0.104 A 
ATOM     29  C   UNL A   1     -37.658   0.459  27.491  0.00  0.00    +0.087 A 
BRANCH  29  30
ATOM     30  C   UNL A   1     -38.852   1.122  26.897  0.00  0.00    +0.335 C 
ATOM     31  O   UNL A   1     -39.200   2.231  27.257  0.00  0.00    -0.254 OA
ATOM     32  F   UNL A   1     -39.143   0.744  25.721  0.00  0.00    -0.159 F 
ENDBRANCH  29  30
ENDBRANCH   8  24
TORSDOF 4
