MODEL 1800
MODEL 1
REMARK VINA RESULT:    -8.284      0.000      0.000
REMARK INTER + INTRA:         -11.155
REMARK INTER:                 -10.221
REMARK INTRA:                  -0.934
REMARK UNBOUND:                -0.934
REMARK  Name = No_1800-gen_results/8p0m/2024-11-26-14-13-15/
REMARK  4 active torsions:
REMARK  status: ('A' for Active; 'I' for Inactive)
REMARK    1  A    between atoms: C_3  and  C_4
REMARK    2  A    between atoms: C_6  and  C_13
REMARK    3  A    between atoms: C_20  and  C_24
REMARK    4  A    between atoms: C_29  and  C_30
REMARK                            x       y       z     vdW  Elec       q    Type
REMARK                         _______ _______ _______ _____ _____    ______ ____
ROOT
ATOM      1  C   UNL A   1     -25.374 -21.016   6.332  0.00  0.00    +0.249 C 
ATOM      2  N   UNL A   1     -26.219 -20.519   7.101  0.00  0.00    -0.268 N 
ATOM      3  O   UNL A   1     -25.737 -21.411   5.201  0.00  0.00    -0.270 OA
ATOM      4  C   UNL A   1     -27.647 -20.321   6.760  0.00  0.00    +0.120 C 
ATOM      5  C   UNL A   1     -28.142 -19.235   7.132  0.00  0.00    -0.005 A 
ATOM      6  C   UNL A   1     -28.889 -18.552   6.881  0.00  0.00    -0.003 A 
ATOM      7  C   UNL A   1     -29.314 -17.187   7.431  0.00  0.00    +0.001 A 
ATOM      8  C   UNL A   1     -28.557 -16.786   8.515  0.00  0.00    +0.017 A 
ATOM      9  C   UNL A   1     -27.511 -17.506   8.964  0.00  0.00    -0.001 A 
ATOM     10  C   UNL A   1     -27.206 -18.667   8.390  0.00  0.00    -0.005 A 
ATOM     11  C   UNL A   1     -25.910 -19.183   7.862  0.00  0.00    +0.120 C 
ENDROOT
BRANCH   1  15
ATOM     12  C   UNL A   1     -23.366 -21.547   8.041  0.00  0.00    +0.004 A 
ATOM     13  C   UNL A   1     -22.168 -21.583   8.200  0.00  0.00    +0.000 A 
ATOM     14  C   UNL A   1     -21.302 -21.034   7.261  0.00  0.00    +0.000 A 
ATOM     15  C   UNL A   1     -23.927 -21.088   6.760  0.00  0.00    +0.054 A 
ATOM     16  C   UNL A   1     -23.149 -20.466   5.815  0.00  0.00    +0.004 A 
ATOM     17  C   UNL A   1     -21.755 -20.442   5.990  0.00  0.00    +0.000 A 
BRANCH  14  18
ATOM     18  C   UNL A   1     -19.813 -21.024   7.336  0.00  0.00    +0.000 A 
ATOM     19  C   UNL A   1     -19.010 -21.958   8.079  0.00  0.00    +0.000 A 
ATOM     20  C   UNL A   1     -17.636 -21.881   7.994  0.00  0.00    +0.000 A 
ATOM     21  C   UNL A   1     -16.909 -21.118   7.131  0.00  0.00    +0.000 A 
ATOM     22  C   UNL A   1     -19.038 -20.209   6.419  0.00  0.00    +0.000 A 
ATOM     23  C   UNL A   1     -17.638 -20.268   6.361  0.00  0.00    +0.000 A 
ENDBRANCH  14  18
ENDBRANCH   1  15
BRANCH   8  24
ATOM     24  C   UNL A   1     -28.952 -15.526   9.252  0.00  0.00    +0.081 A 
ATOM     25  N   UNL A   1     -28.735 -14.557   9.083  0.00  0.00    -0.244 NA
ATOM     26  C   UNL A   1     -29.751 -15.831  10.510  0.00  0.00    +0.019 A 
ATOM     27  C   UNL A   1     -30.182 -14.747  11.250  0.00  0.00    +0.009 A 
ATOM     28  C   UNL A   1     -29.077 -13.363   9.703  0.00  0.00    +0.104 A 
ATOM     29  C   UNL A   1     -29.819 -13.514  10.832  0.00  0.00    +0.087 A 
BRANCH  29  30
ATOM     30  C   UNL A   1     -30.239 -12.294  11.577  0.00  0.00    +0.335 C 
ATOM     31  O   UNL A   1     -31.380 -12.166  11.981  0.00  0.00    -0.254 OA
ATOM     32  F   UNL A   1     -29.304 -11.695  12.191  0.00  0.00    -0.159 F 
ENDBRANCH  29  30
ENDBRANCH   8  24
TORSDOF 4
ENDMDL
ENDMDL
