REMARK  Name = No_1801-gen_results/8p0m/2024-11-26-14-13-15/
REMARK  0 active torsions:
REMARK  status: ('A' for Active; 'I' for Inactive)
REMARK                            x       y       z     vdW  Elec       q    Type
REMARK                         _______ _______ _______ _____ _____    ______ ____
ROOT
ATOM      1  C   UNL A   1     -28.016  -0.814  28.878  0.00  0.00    -0.002 A 
ATOM      2  C   UNL A   1     -28.469  -0.785  29.829  0.00  0.00    -0.000 A 
ATOM      3  C   UNL A   1     -27.136   0.236  28.535  0.00  0.00    +0.008 A 
ATOM      4  C   UNL A   1     -26.335   0.290  27.284  0.00  0.00    +0.160 C 
ATOM      5  C   UNL A   1     -28.369   0.196  30.924  0.00  0.00    -0.000 A 
ATOM      6  C   UNL A   1     -27.516   1.266  30.654  0.00  0.00    -0.001 A 
ATOM      7  C   UNL A   1     -26.841   1.294  29.476  0.00  0.00    -0.005 A 
ATOM      8  C   UNL A   1     -25.361   0.775  26.967  0.00  0.00    +0.004 A 
ATOM      9  C   UNL A   1     -24.550   1.339  27.439  0.00  0.00    -0.019 A 
ATOM     10  C   UNL A   1     -23.317   1.957  26.891  0.00  0.00    -0.004 A 
ATOM     11  C   UNL A   1     -23.328   2.041  25.531  0.00  0.00    -0.001 A 
ATOM     12  C   UNL A   1     -24.205   1.365  24.781  0.00  0.00    -0.002 A 
ATOM     13  C   UNL A   1     -25.250   0.767  25.389  0.00  0.00    +0.006 A 
ATOM     14  O   UNL A   1     -27.181  -0.088  26.242  0.00  0.00    -0.343 OA
ATOM     15  C   UNL A   1     -26.420   0.188  25.096  0.00  0.00    +0.169 C 
ATOM     16  C   UNL A   1     -27.289   2.333  31.628  0.00  0.00    -0.000 A 
ATOM     17  C   UNL A   1     -26.565   3.228  31.424  0.00  0.00    -0.000 A 
ATOM     18  C   UNL A   1     -25.841   3.348  30.149  0.00  0.00    -0.004 A 
ATOM     19  C   UNL A   1     -26.020   2.374  29.188  0.00  0.00    -0.018 A 
ATOM     20  C   UNL A   1     -24.576   2.167  28.651  0.00  0.00    +0.052 C 
ENDROOT
TORSDOF 0
