MODEL 1801
MODEL 1
REMARK VINA RESULT:    -8.068      0.000      0.000
REMARK INTER + INTRA:          -8.068
REMARK INTER:                  -8.068
REMARK INTRA:                   0.000
REMARK UNBOUND:                 0.000
REMARK  Name = No_1801-gen_results/8p0m/2024-11-26-14-13-15/
REMARK  0 active torsions:
REMARK  status: ('A' for Active; 'I' for Inactive)
REMARK                            x       y       z     vdW  Elec       q    Type
REMARK                         _______ _______ _______ _____ _____    ______ ____
ROOT
ATOM      1  C   UNL A   1     -23.783  -3.857  28.838  0.00  0.00    -0.002 A 
ATOM      2  C   UNL A   1     -24.258  -4.794  28.750  0.00  0.00    -0.000 A 
ATOM      3  C   UNL A   1     -24.507  -2.806  29.443  0.00  0.00    +0.008 A 
ATOM      4  C   UNL A   1     -23.950  -1.461  29.742  0.00  0.00    +0.160 C 
ATOM      5  C   UNL A   1     -25.605  -5.242  29.142  0.00  0.00    -0.000 A 
ATOM      6  C   UNL A   1     -26.381  -4.253  29.746  0.00  0.00    -0.001 A 
ATOM      7  C   UNL A   1     -25.842  -3.024  29.956  0.00  0.00    -0.005 A 
ATOM      8  C   UNL A   1     -24.170  -0.643  30.494  0.00  0.00    +0.004 A 
ATOM      9  C   UNL A   1     -24.818  -0.502  31.366  0.00  0.00    -0.019 A 
ATOM     10  C   UNL A   1     -25.037   0.658  32.266  0.00  0.00    -0.004 A 
ATOM     11  C   UNL A   1     -24.523   1.817  31.767  0.00  0.00    -0.001 A 
ATOM     12  C   UNL A   1     -23.660   1.835  30.746  0.00  0.00    -0.002 A 
ATOM     13  C   UNL A   1     -23.470   0.701  30.041  0.00  0.00    +0.006 A 
ATOM     14  O   UNL A   1     -23.225  -1.062  28.620  0.00  0.00    -0.343 OA
ATOM     15  C   UNL A   1     -22.915   0.278  28.899  0.00  0.00    +0.169 C 
ATOM     16  C   UNL A   1     -27.744  -4.518  30.206  0.00  0.00    -0.000 A 
ATOM     17  C   UNL A   1     -28.401  -3.705  30.729  0.00  0.00    -0.000 A 
ATOM     18  C   UNL A   1     -27.899  -2.339  30.942  0.00  0.00    -0.004 A 
ATOM     19  C   UNL A   1     -26.621  -2.027  30.523  0.00  0.00    -0.018 A 
ATOM     20  C   UNL A   1     -26.089  -1.158  31.696  0.00  0.00    +0.052 C 
ENDROOT
TORSDOF 0
ENDMDL
ENDMDL
