MODEL 1802
MODEL 1
REMARK VINA RESULT:    -6.386      0.000      0.000
REMARK INTER + INTRA:          -7.403
REMARK INTER:                  -7.132
REMARK INTRA:                  -0.271
REMARK UNBOUND:                -0.271
REMARK  Name = No_1802-gen_results/8p0m/2024-11-26-14-13-15/
REMARK  2 active torsions:
REMARK  status: ('A' for Active; 'I' for Inactive)
REMARK    1  A    between atoms: C_4  and  C_14
REMARK    2  A    between atoms: C_5  and  C_11
REMARK                            x       y       z     vdW  Elec       q    Type
REMARK                         _______ _______ _______ _____ _____    ______ ____
ROOT
ATOM      1  C   UNL A   1     -24.287   1.820  25.664  0.00  0.00    -0.005 A 
ATOM      2  C   UNL A   1     -24.305   0.928  26.480  0.00  0.00    -0.026 A 
ATOM      3  C   UNL A   1     -23.460   0.713  27.447  0.00  0.00    -0.016 A 
ATOM      4  C   UNL A   1     -23.519  -0.393  28.435  0.00  0.00    +0.128 C 
ATOM      5  C   UNL A   1     -24.636  -1.270  28.335  0.00  0.00    +0.048 C 
ATOM      6  C   UNL A   1     -25.560  -1.012  27.356  0.00  0.00    +0.008 C 
ATOM      7  C   UNL A   1     -25.477   0.019  26.482  0.00  0.00    +0.026 C 
ATOM      8  C   UNL A   1     -23.027   2.443  25.464  0.00  0.00    -0.000 A 
ATOM      9  C   UNL A   1     -22.035   2.229  26.298  0.00  0.00    -0.000 A 
ATOM     10  C   UNL A   1     -22.179   1.346  27.405  0.00  0.00    -0.004 A 
ENDROOT
BRANCH   5  11
ATOM     11  C   UNL A   1     -24.907  -2.342  29.277  0.00  0.00    +0.171 C 
ATOM     12  N   UNL A   1     -25.536  -2.666  30.359  0.00  0.00    -0.115 NA
ATOM     13 CL   UNL A   1     -24.066  -3.860  28.690  0.00  0.00    -0.094 Cl
ENDBRANCH   5  11
BRANCH   4  14
ATOM     14  C   UNL A   1     -22.555  -0.660  29.545  0.00  0.00    +0.368 C 
ATOM     15  O   UNL A   1     -22.518  -0.259  30.564  0.00  0.00    -0.245 OA
ATOM     16  O   UNL A   1     -21.337  -1.319  29.148  0.00  0.00    -0.245 OA
ENDBRANCH   4  14
TORSDOF 2
ENDMDL
ENDMDL
