REMARK  Name = No_1802-gen_results/8p0m/2024-11-26-14-13-15/
REMARK  2 active torsions:
REMARK  status: ('A' for Active; 'I' for Inactive)
REMARK    1  A    between atoms: C_4  and  C_14
REMARK    2  A    between atoms: C_5  and  C_11
REMARK                            x       y       z     vdW  Elec       q    Type
REMARK                         _______ _______ _______ _____ _____    ______ ____
ROOT
ATOM      1  C   UNL A   1     -28.016  -0.814  28.878  0.00  0.00    -0.005 A 
ATOM      2  C   UNL A   1     -27.064  -0.119  28.608  0.00  0.00    -0.026 A 
ATOM      3  C   UNL A   1     -26.876   1.133  28.913  0.00  0.00    -0.016 A 
ATOM      4  C   UNL A   1     -25.688   1.952  28.567  0.00  0.00    +0.128 C 
ATOM      5  C   UNL A   1     -24.639   1.283  27.875  0.00  0.00    +0.048 C 
ATOM      6  C   UNL A   1     -24.807  -0.051  27.604  0.00  0.00    +0.008 C 
ATOM      7  C   UNL A   1     -25.902  -0.767  27.951  0.00  0.00    +0.026 C 
ATOM      8  C   UNL A   1     -29.216  -0.118  29.181  0.00  0.00    -0.000 A 
ATOM      9  C   UNL A   1     -29.201   1.177  29.401  0.00  0.00    -0.000 A 
ATOM     10  C   UNL A   1     -27.995   1.927  29.312  0.00  0.00    -0.004 A 
ENDROOT
BRANCH   5  11
ATOM     11  C   UNL A   1     -23.366   1.900  27.547  0.00  0.00    +0.171 C 
ATOM     12  N   UNL A   1     -22.163   2.131  27.962  0.00  0.00    -0.115 NA
ATOM     13 CL   UNL A   1     -23.475   2.598  25.856  0.00  0.00    -0.094 Cl
ENDBRANCH   5  11
BRANCH   4  14
ATOM     14  C   UNL A   1     -25.458   3.390  28.901  0.00  0.00    +0.368 C 
ATOM     15  O   UNL A   1     -25.473   3.905  29.868  0.00  0.00    -0.245 OA
ATOM     16  O   UNL A   1     -25.500   4.290  27.777  0.00  0.00    -0.245 OA
ENDBRANCH   4  14
TORSDOF 2
