MODEL 1803
MODEL 1
REMARK VINA RESULT:    -5.181      0.000      0.000
REMARK INTER + INTRA:          -5.967
REMARK INTER:                  -5.787
REMARK INTRA:                  -0.181
REMARK UNBOUND:                -0.181
REMARK  Name = No_1803-gen_results/8p0m/2024-11-26-14-13-15/
REMARK  2 active torsions:
REMARK  status: ('A' for Active; 'I' for Inactive)
REMARK    1  A    between atoms: C_2  and  C_3
REMARK    2  A    between atoms: C_2  and  C_9
REMARK                            x       y       z     vdW  Elec       q    Type
REMARK                         _______ _______ _______ _____ _____    ______ ____
ROOT
ATOM      1  C   UNL A   1     -24.248  -2.578  29.100  0.00  0.00    +0.015 A 
ATOM      2  C   UNL A   1     -25.491  -2.464  29.722  0.00  0.00    +0.001 A 
ATOM      3  C   UNL A   1     -26.353  -3.574  29.850  0.00  0.00    +0.000 A 
ATOM      4  C   UNL A   1     -25.940  -4.839  29.496  0.00  0.00    +0.000 A 
ATOM      5  C   UNL A   1     -24.684  -5.024  28.901  0.00  0.00    +0.000 A 
ATOM      6  C   UNL A   1     -23.904  -3.971  28.737  0.00  0.00    +0.001 A 
ENDROOT
BRANCH   1   8
ATOM      7  N   UNL A   1     -22.363  -1.531  28.950  0.00  0.00    -0.153 NA
ATOM      8  C   UNL A   1     -23.423  -1.444  28.974  0.00  0.00    +0.081 C 
BRANCH   8   9
ATOM      9  C   UNL A   1     -24.065  -0.370  28.150  0.00  0.00    +0.048 C 
ATOM     10  C   UNL A   1     -23.215   0.691  27.742  0.00  0.00    +0.007 C 
ENDBRANCH   8   9
ENDBRANCH   1   8
TORSDOF 2
ENDMDL
ENDMDL
