REMARK  Name = No_1803-gen_results/8p0m/2024-11-26-14-13-15/
REMARK  2 active torsions:
REMARK  status: ('A' for Active; 'I' for Inactive)
REMARK    1  A    between atoms: C_2  and  C_3
REMARK    2  A    between atoms: C_2  and  C_9
REMARK                            x       y       z     vdW  Elec       q    Type
REMARK                         _______ _______ _______ _____ _____    ______ ____
ROOT
ATOM      1  C   UNL A   1     -27.096   0.784  28.101  0.00  0.00    +0.015 A 
ATOM      2  C   UNL A   1     -26.841   0.349  26.800  0.00  0.00    +0.001 A 
ATOM      3  C   UNL A   1     -26.209   1.186  25.857  0.00  0.00    +0.000 A 
ATOM      4  C   UNL A   1     -25.691   2.407  26.224  0.00  0.00    +0.000 A 
ATOM      5  C   UNL A   1     -25.881   2.884  27.529  0.00  0.00    +0.000 A 
ATOM      6  C   UNL A   1     -26.520   2.115  28.393  0.00  0.00    +0.001 A 
ENDROOT
BRANCH   1   8
ATOM      7  N   UNL A   1     -28.054  -1.050  28.725  0.00  0.00    -0.153 NA
ATOM      8  C   UNL A   1     -27.746  -0.073  29.010  0.00  0.00    +0.081 C 
BRANCH   8   9
ATOM      9  C   UNL A   1     -27.280   0.142  30.417  0.00  0.00    +0.048 C 
ATOM     10  C   UNL A   1     -27.860  -0.702  31.399  0.00  0.00    +0.007 C 
ENDBRANCH   8   9
ENDBRANCH   1   8
TORSDOF 2
