MODEL 1804
MODEL 1
REMARK VINA RESULT:    -6.946      0.000      0.000
REMARK INTER + INTRA:          -9.183
REMARK INTER:                  -8.570
REMARK INTRA:                  -0.613
REMARK UNBOUND:                -0.613
REMARK  Name = No_1804-gen_results/8p0m/2024-11-26-14-13-15/
REMARK  4 active torsions:
REMARK  status: ('A' for Active; 'I' for Inactive)
REMARK    1  A    between atoms: C_3  and  O_12
REMARK    2  A    between atoms: C_5  and  C_8
REMARK    3  A    between atoms: O_12  and  C_13
REMARK    4  A    between atoms: C_13  and  C_14
REMARK                            x       y       z     vdW  Elec       q    Type
REMARK                         _______ _______ _______ _____ _____    ______ ____
ROOT
ATOM      1  F   UNL A   1     -12.291   2.595  38.491  0.00  0.00    -0.200 F 
ATOM      2  C   UNL A   1     -12.610   2.225  37.455  0.00  0.00    +0.181 A 
ATOM      3  C   UNL A   1     -11.663   1.682  36.695  0.00  0.00    +0.177 A 
ATOM      4  C   UNL A   1     -11.741   1.581  35.271  0.00  0.00    +0.047 A 
ATOM      5  C   UNL A   1     -13.005   1.972  34.654  0.00  0.00    +0.083 A 
ATOM      6  C   UNL A   1     -13.952   2.573  35.478  0.00  0.00    +0.016 A 
ATOM      7  C   UNL A   1     -13.744   2.789  36.731  0.00  0.00    +0.065 A 
ATOM      8 BR   UNL A   1     -15.087   3.613  37.795  0.00  0.00    -0.047 Br
ENDROOT
BRANCH   5   9
ATOM      9  C   UNL A   1     -13.163   1.759  33.235  0.00  0.00    +0.388 C 
ATOM     10  O   UNL A   1     -13.961   2.282  32.527  0.00  0.00    -0.241 OA
ATOM     11  O   UNL A   1     -12.116   1.087  32.751  0.00  0.00    -0.241 OA
ENDBRANCH   5   9
BRANCH   3  12
ATOM     12  O   UNL A   1     -10.471   1.306  37.141  0.00  0.00    -0.419 OA
BRANCH  12  13
ATOM     13  C   UNL A   1     -10.180   0.042  36.968  0.00  0.00    +0.346 C 
ATOM     14  O   UNL A   1      -9.362  -0.245  36.016  0.00  0.00    -0.244 OA
BRANCH  13  15
ATOM     15  C   UNL A   1     -10.647  -0.878  37.947  0.00  0.00    +0.076 A 
ATOM     16  C   UNL A   1     -10.671  -0.551  39.203  0.00  0.00    +0.006 A 
ATOM     17  C   UNL A   1     -11.768  -1.097  39.936  0.00  0.00    +0.000 A 
ATOM     18  C   UNL A   1     -12.239  -2.246  39.526  0.00  0.00    +0.000 A 
ATOM     19  C   UNL A   1     -11.259  -2.091  37.600  0.00  0.00    +0.006 A 
ATOM     20  C   UNL A   1     -12.164  -2.701  38.287  0.00  0.00    +0.000 A 
ENDBRANCH  13  15
ENDBRANCH  12  13
ENDBRANCH   3  12
TORSDOF 4
ENDMDL
ENDMDL
