REMARK  Name = No_1804-gen_results/8p0m/2024-11-26-14-13-15/
REMARK  4 active torsions:
REMARK  status: ('A' for Active; 'I' for Inactive)
REMARK    1  A    between atoms: C_3  and  O_12
REMARK    2  A    between atoms: C_5  and  C_8
REMARK    3  A    between atoms: O_12  and  C_13
REMARK    4  A    between atoms: C_13  and  C_14
REMARK                            x       y       z     vdW  Elec       q    Type
REMARK                         _______ _______ _______ _____ _____    ______ ____
ROOT
ATOM      1  F   UNL A   1     -28.073  -1.254  28.532  0.00  0.00    -0.200 F 
ATOM      2  C   UNL A   1     -27.359  -0.379  28.722  0.00  0.00    +0.181 A 
ATOM      3  C   UNL A   1     -26.810   0.189  27.651  0.00  0.00    +0.177 A 
ATOM      4  C   UNL A   1     -25.602   0.953  27.683  0.00  0.00    +0.047 A 
ATOM      5  C   UNL A   1     -25.037   1.233  29.000  0.00  0.00    +0.083 A 
ATOM      6  C   UNL A   1     -25.616   0.586  30.087  0.00  0.00    +0.016 A 
ATOM      7  C   UNL A   1     -26.606  -0.230  29.962  0.00  0.00    +0.065 A 
ATOM      8 BR   UNL A   1     -27.348  -1.075  31.495  0.00  0.00    -0.047 Br
ENDROOT
BRANCH   5   9
ATOM      9  C   UNL A   1     -23.893   2.110  29.076  0.00  0.00    +0.388 C 
ATOM     10  O   UNL A   1     -23.404   2.712  28.176  0.00  0.00    -0.241 OA
ATOM     11  O   UNL A   1     -23.600   2.376  30.351  0.00  0.00    -0.241 OA
ENDBRANCH   5   9
BRANCH   3  12
ATOM     12  O   UNL A   1     -27.225  -0.005  26.406  0.00  0.00    -0.419 OA
BRANCH  12  13
ATOM     13  C   UNL A   1     -28.103   0.859  25.966  0.00  0.00    +0.346 C 
ATOM     14  O   UNL A   1     -27.663   1.811  25.219  0.00  0.00    -0.244 OA
BRANCH  13  15
ATOM     15  C   UNL A   1     -29.477   0.574  26.199  0.00  0.00    +0.076 A 
ATOM     16  C   UNL A   1     -29.900   0.290  27.393  0.00  0.00    +0.006 A 
ATOM     17  C   UNL A   1     -31.211   0.774  27.687  0.00  0.00    +0.000 A 
ATOM     18  C   UNL A   1     -32.041   0.881  26.681  0.00  0.00    +0.000 A 
ATOM     19  C   UNL A   1     -30.455   0.757  25.210  0.00  0.00    +0.006 A 
ATOM     20  C   UNL A   1     -31.689   1.067  25.421  0.00  0.00    +0.000 A 
ENDBRANCH  13  15
ENDBRANCH  12  13
ENDBRANCH   3  12
TORSDOF 4
