REMARK  Name = No_1805-gen_results/8p0m/2024-11-26-14-13-15/
REMARK  4 active torsions:
REMARK  status: ('A' for Active; 'I' for Inactive)
REMARK    1  A    between atoms: C_1  and  C_6
REMARK    2  A    between atoms: C_3  and  N_14
REMARK    3  A    between atoms: C_5  and  C_10
REMARK    4  A    between atoms: N_14  and  C_15
REMARK                            x       y       z     vdW  Elec       q    Type
REMARK                         _______ _______ _______ _____ _____    ______ ____
ROOT
ATOM      1  C   UNL A   1     -28.016  -0.814  28.878  0.00  0.00    +0.069 A 
ATOM      2  C   UNL A   1     -27.064  -0.119  28.608  0.00  0.00    +0.020 A 
ATOM      3  C   UNL A   1     -26.972   0.714  27.506  0.00  0.00    +0.052 A 
ATOM      4  C   UNL A   1     -28.105   0.774  26.642  0.00  0.00    +0.019 A 
ATOM      5  C   UNL A   1     -29.201   0.104  27.053  0.00  0.00    +0.057 A 
ATOM      6  C   UNL A   1     -29.164  -0.639  28.148  0.00  0.00    +0.010 A 
ENDROOT
BRANCH   5   7
ATOM      7  C   UNL A   1     -30.489   0.131  26.337  0.00  0.00    +0.265 C 
ATOM      8  N   UNL A   1     -30.892   1.099  25.826  0.00  0.00    -0.200 NA
ATOM      9  O   UNL A   1     -31.184  -0.923  26.244  0.00  0.00    -0.268 OA
ATOM     10  C   UNL A   1     -32.146   1.285  25.028  0.00  0.00    +0.139 C 
ENDBRANCH   5   7
BRANCH   1  11
ATOM     11  C   UNL A   1     -28.022  -1.590  30.088  0.00  0.00    +0.334 C 
ATOM     12  O   UNL A   1     -28.845  -1.957  30.662  0.00  0.00    -0.254 OA
ATOM     13  F   UNL A   1     -26.827  -1.682  30.740  0.00  0.00    -0.159 F 
ENDBRANCH   1  11
BRANCH   3  14
ATOM     14  N   UNL A   1     -25.808   1.412  27.104  0.00  0.00    -0.285 N 
ATOM     15  C   UNL A   1     -26.025   2.811  26.822  0.00  0.00    +0.117 C 
BRANCH  14  16
ATOM     16  C   UNL A   1     -24.604   1.092  27.558  0.00  0.00    +0.052 A 
ATOM     17  C   UNL A   1     -23.479   1.931  27.230  0.00  0.00    +0.015 A 
ATOM     18  C   UNL A   1     -22.271   1.802  27.875  0.00  0.00    +0.001 A 
ATOM     19  C   UNL A   1     -22.108   0.718  28.802  0.00  0.00    +0.000 A 
ATOM     20  C   UNL A   1     -23.177  -0.230  29.030  0.00  0.00    +0.001 A 
ATOM     21  C   UNL A   1     -24.368   0.038  28.473  0.00  0.00    +0.015 A 
ENDBRANCH  14  16
ENDBRANCH   3  14
TORSDOF 4
