MODEL 1805
MODEL 1
REMARK VINA RESULT:    -7.287      0.000      0.000
REMARK INTER + INTRA:          -9.843
REMARK INTER:                  -8.991
REMARK INTRA:                  -0.852
REMARK UNBOUND:                -0.852
REMARK  Name = No_1805-gen_results/8p0m/2024-11-26-14-13-15/
REMARK  4 active torsions:
REMARK  status: ('A' for Active; 'I' for Inactive)
REMARK    1  A    between atoms: C_1  and  C_6
REMARK    2  A    between atoms: C_3  and  N_14
REMARK    3  A    between atoms: C_5  and  C_10
REMARK    4  A    between atoms: N_14  and  C_15
REMARK                            x       y       z     vdW  Elec       q    Type
REMARK                         _______ _______ _______ _____ _____    ______ ____
ROOT
ATOM      1  C   UNL A   1     -23.313   1.032  27.210  0.00  0.00    +0.069 A 
ATOM      2  C   UNL A   1     -23.437   0.277  28.147  0.00  0.00    +0.020 A 
ATOM      3  C   UNL A   1     -24.547  -0.512  28.394  0.00  0.00    +0.052 A 
ATOM      4  C   UNL A   1     -25.613  -0.447  27.449  0.00  0.00    +0.019 A 
ATOM      5  C   UNL A   1     -25.380   0.288  26.342  0.00  0.00    +0.057 A 
ATOM      6  C   UNL A   1     -24.257   0.978  26.216  0.00  0.00    +0.010 A 
ENDROOT
BRANCH   5   7
ATOM      7  C   UNL A   1     -26.328   0.392  25.218  0.00  0.00    +0.265 C 
ATOM      8  N   UNL A   1     -26.986   1.340  25.050  0.00  0.00    -0.200 NA
ATOM      9  O   UNL A   1     -26.432  -0.558  24.387  0.00  0.00    -0.268 OA
ATOM     10  C   UNL A   1     -27.957   1.624  23.945  0.00  0.00    +0.139 C 
ENDBRANCH   5   7
BRANCH   1  11
ATOM     11  C   UNL A   1     -22.084   1.753  27.022  0.00  0.00    +0.334 C 
ATOM     12  O   UNL A   1     -21.430   2.192  27.744  0.00  0.00    -0.254 OA
ATOM     13  F   UNL A   1     -21.818   2.149  25.744  0.00  0.00    -0.159 F 
ENDBRANCH   1  11
BRANCH   3  14
ATOM     14  N   UNL A   1     -24.759  -1.280  29.564  0.00  0.00    -0.285 N 
ATOM     15  C   UNL A   1     -25.506  -0.596  30.593  0.00  0.00    +0.117 C 
BRANCH  14  16
ATOM     16  C   UNL A   1     -24.900  -2.598  29.524  0.00  0.00    +0.052 A 
ATOM     17  C   UNL A   1     -26.126  -3.192  29.994  0.00  0.00    +0.015 A 
ATOM     18  C   UNL A   1     -26.433  -4.509  29.741  0.00  0.00    +0.001 A 
ATOM     19  C   UNL A   1     -25.440  -5.327  29.104  0.00  0.00    +0.000 A 
ATOM     20  C   UNL A   1     -24.141  -4.788  28.764  0.00  0.00    +0.001 A 
ATOM     21  C   UNL A   1     -23.964  -3.466  28.914  0.00  0.00    +0.015 A 
ENDBRANCH  14  16
ENDBRANCH   3  14
TORSDOF 4
ENDMDL
ENDMDL
