REMARK  Name = No_1806-gen_results/8p0m/2024-11-26-14-13-15/
REMARK  1 active torsions:
REMARK  status: ('A' for Active; 'I' for Inactive)
REMARK    1  A    between atoms: C_2  and  C_5
REMARK                            x       y       z     vdW  Elec       q    Type
REMARK                         _______ _______ _______ _____ _____    ______ ____
ROOT
ATOM      1  C   UNL A   1     -28.016  -0.814  28.878  0.00  0.00    +0.007 A 
ATOM      2  C   UNL A   1     -28.469  -0.785  29.829  0.00  0.00    +0.080 A 
ATOM      3  C   UNL A   1     -27.087   0.290  28.638  0.00  0.00    +0.005 A 
ATOM      4  C   UNL A   1     -26.252   0.411  27.422  0.00  0.00    +0.030 A 
ATOM      5  C   UNL A   1     -28.160   0.286  30.910  0.00  0.00    +0.007 A 
ATOM      6  C   UNL A   1     -27.386   1.251  30.751  0.00  0.00    +0.003 A 
ATOM      7  C   UNL A   1     -26.708   1.304  29.568  0.00  0.00    +0.028 A 
ATOM      8  C   UNL A   1     -25.215   1.055  27.182  0.00  0.00    +0.148 A 
ATOM      9  C   UNL A   1     -24.920   2.089  28.208  0.00  0.00    +0.089 A 
ATOM     10  C   UNL A   1     -25.596   2.199  29.301  0.00  0.00    +0.148 A 
ATOM     11 BR   UNL A   1     -23.387   3.234  27.712  0.00  0.00    -0.044 Br
ATOM     12  F   UNL A   1     -25.255   3.130  30.208  0.00  0.00    -0.204 F 
ATOM     13  F   UNL A   1     -24.553   1.014  26.057  0.00  0.00    -0.204 F 
ENDROOT
BRANCH   2  14
ATOM     14  C   UNL A   1     -29.431  -1.931  30.271  0.00  0.00    +0.388 C 
ATOM     15  O   UNL A   1     -30.470  -2.053  29.805  0.00  0.00    -0.241 OA
ATOM     16  O   UNL A   1     -29.164  -2.567  31.465  0.00  0.00    -0.241 OA
ENDBRANCH   2  14
TORSDOF 1
