MODEL 1806
MODEL 1
REMARK VINA RESULT:    -6.800      0.000      0.000
REMARK INTER + INTRA:          -7.279
REMARK INTER:                  -7.197
REMARK INTRA:                  -0.081
REMARK UNBOUND:                -0.081
REMARK  Name = No_1806-gen_results/8p0m/2024-11-26-14-13-15/
REMARK  1 active torsions:
REMARK  status: ('A' for Active; 'I' for Inactive)
REMARK    1  A    between atoms: C_2  and  C_5
REMARK                            x       y       z     vdW  Elec       q    Type
REMARK                         _______ _______ _______ _____ _____    ______ ____
ROOT
ATOM      1  C   UNL A   1     -28.018 -11.850  31.686  0.00  0.00    +0.007 A 
ATOM      2  C   UNL A   1     -28.080 -11.384  32.628  0.00  0.00    +0.080 A 
ATOM      3  C   UNL A   1     -29.008 -11.365  30.725  0.00  0.00    +0.005 A 
ATOM      4  C   UNL A   1     -29.055 -11.790  29.308  0.00  0.00    +0.030 A 
ATOM      5  C   UNL A   1     -29.084 -10.251  32.976  0.00  0.00    +0.007 A 
ATOM      6  C   UNL A   1     -29.953  -9.811  32.198  0.00  0.00    +0.003 A 
ATOM      7  C   UNL A   1     -29.950 -10.313  30.929  0.00  0.00    +0.028 A 
ATOM      8  C   UNL A   1     -29.577 -11.280  28.300  0.00  0.00    +0.148 A 
ATOM      9  C   UNL A   1     -30.547 -10.202  28.628  0.00  0.00    +0.089 A 
ATOM     10  C   UNL A   1     -30.713  -9.755  29.826  0.00  0.00    +0.148 A 
ATOM     11 BR   UNL A   1     -31.512  -9.541  27.035  0.00  0.00    -0.044 Br
ATOM     12  F   UNL A   1     -31.577  -8.751  30.052  0.00  0.00    -0.204 F 
ATOM     13  F   UNL A   1     -29.482 -11.755  27.088  0.00  0.00    -0.204 F 
ENDROOT
BRANCH   2  14
ATOM     14  C   UNL A   1     -27.047 -11.735  33.743  0.00  0.00    +0.388 C 
ATOM     15  O   UNL A   1     -26.720 -12.815  33.937  0.00  0.00    -0.241 OA
ATOM     16  O   UNL A   1     -26.808 -10.788  34.717  0.00  0.00    -0.241 OA
ENDBRANCH   2  14
TORSDOF 1
ENDMDL
ENDMDL
