MODEL 1807
MODEL 1
REMARK VINA RESULT:    -8.718      0.000      0.000
REMARK INTER + INTRA:         -13.691
REMARK INTER:                 -12.285
REMARK INTRA:                  -1.406
REMARK UNBOUND:                -1.406
REMARK  Name = No_1807-gen_results/8p0m/2024-11-26-14-13-15/
REMARK  7 active torsions:
REMARK  status: ('A' for Active; 'I' for Inactive)
REMARK    1  A    between atoms: C_5  and  O_17
REMARK    2  A    between atoms: C_7  and  C_15
REMARK    3  A    between atoms: O_17  and  C_18
REMARK    4  A    between atoms: C_19  and  C_24
REMARK    5  A    between atoms: C_29  and  C_31
REMARK    6  A    between atoms: C_31  and  C_32
REMARK    7  A    between atoms: C_31  and  C_34
REMARK                            x       y       z     vdW  Elec       q    Type
REMARK                         _______ _______ _______ _____ _____    ______ ____
ROOT
ATOM      1  C   UNL A   1     -12.253   1.708  35.142  0.00  0.00    +0.151 A 
ATOM      2  C   UNL A   1     -13.328   2.275  34.444  0.00  0.00    +0.114 A 
ATOM      3  C   UNL A   1     -14.285   2.960  35.183  0.00  0.00    +0.010 A 
ATOM      4  C   UNL A   1     -14.326   2.987  36.580  0.00  0.00    +0.000 A 
ATOM      5  C   UNL A   1     -13.214   2.404  37.215  0.00  0.00    +0.003 A 
ATOM      6  C   UNL A   1     -12.138   1.893  36.516  0.00  0.00    +0.035 A 
ATOM      7  C   UNL A   1     -13.217   2.384  38.736  0.00  0.00    -0.000 A 
ATOM      8  C   UNL A   1     -12.497   1.604  39.357  0.00  0.00    -0.004 A 
ATOM      9  C   UNL A   1     -11.704   0.603  38.824  0.00  0.00    -0.014 A 
ATOM     10  C   UNL A   1     -11.448   0.841  37.362  0.00  0.00    -0.001 A 
ENDROOT
BRANCH   2  11
ATOM     11  C   UNL A   1     -13.399   2.284  33.045  0.00  0.00    +0.391 C 
ATOM     12  O   UNL A   1     -14.094   3.082  32.421  0.00  0.00    -0.240 OA
ATOM     13  O   UNL A   1     -12.917   1.270  32.397  0.00  0.00    -0.240 OA
ENDBRANCH   2  11
BRANCH   1  14
ATOM     14  O   UNL A   1     -11.160   1.445  34.416  0.00  0.00    -0.453 OA
BRANCH  14  19
ATOM     15  C   UNL A   1      -8.780   0.373  34.743  0.00  0.00    +0.006 A 
ATOM     16  C   UNL A   1      -8.791   1.409  34.550  0.00  0.00    +0.052 A 
ATOM     17  C   UNL A   1      -7.459  -0.273  34.797  0.00  0.00    +0.018 A 
ATOM     18  C   UNL A   1      -7.180  -1.697  34.899  0.00  0.00    +0.002 A 
ATOM     19  C   UNL A   1     -10.106   2.189  34.481  0.00  0.00    +0.147 A 
ATOM     20  C   UNL A   1      -5.786  -2.069  34.836  0.00  0.00    +0.003 A 
ATOM     21  C   UNL A   1      -4.765  -1.107  34.777  0.00  0.00    +0.044 A 
ATOM     22  C   UNL A   1      -6.129   0.389  34.725  0.00  0.00    +0.081 A 
ATOM     23  C   UNL A   1      -4.961   0.147  34.668  0.00  0.00    +0.022 A 
ATOM     24  C   UNL A   1     -10.245   3.500  34.702  0.00  0.00    +0.038 A 
ATOM     25  C   UNL A   1      -9.057   4.323  34.715  0.00  0.00    +0.005 A 
ATOM     26  C   UNL A   1      -7.828   3.768  34.798  0.00  0.00    +0.019 A 
ATOM     27  C   UNL A   1      -7.688   2.456  34.820  0.00  0.00    +0.084 A 
ATOM     28  N   UNL A   1      -6.546   1.946  34.729  0.00  0.00    -0.245 NA
BRANCH  21  29
ATOM     29  C   UNL A   1      -3.365  -1.811  34.712  0.00  0.00    +0.234 C 
ATOM     30  O   UNL A   1      -2.871  -2.353  35.710  0.00  0.00    -0.283 OA
ENDBRANCH  21  29
ENDBRANCH  14  19
ENDBRANCH   1  14
BRANCH   9  31
ATOM     31  C   UNL A   1     -10.731  -0.204  39.503  0.00  0.00    +0.066 C 
BRANCH  31  32
ATOM     32  C   UNL A   1      -9.541  -0.293  38.933  0.00  0.00    -0.018 C 
ATOM     33  C   UNL A   1      -8.488   0.399  39.481  0.00  0.00    -0.004 C 
ENDBRANCH  31  32
BRANCH  31  34
ATOM     34  C   UNL A   1     -11.213  -1.426  40.081  0.00  0.00    -0.018 C 
ATOM     35  C   UNL A   1     -12.044  -2.234  39.189  0.00  0.00    -0.004 C 
ENDBRANCH  31  34
ENDBRANCH   9  31
TORSDOF 7
ENDMDL
ENDMDL
