REMARK  Name = No_1807-gen_results/8p0m/2024-11-26-14-13-15/
REMARK  7 active torsions:
REMARK  status: ('A' for Active; 'I' for Inactive)
REMARK    1  A    between atoms: C_5  and  O_17
REMARK    2  A    between atoms: C_7  and  C_15
REMARK    3  A    between atoms: O_17  and  C_18
REMARK    4  A    between atoms: C_19  and  C_24
REMARK    5  A    between atoms: C_29  and  C_31
REMARK    6  A    between atoms: C_31  and  C_32
REMARK    7  A    between atoms: C_31  and  C_34
REMARK                            x       y       z     vdW  Elec       q    Type
REMARK                         _______ _______ _______ _____ _____    ______ ____
ROOT
ATOM      1  C   UNL A   1     -30.543   0.740  28.304  0.00  0.00    +0.151 A 
ATOM      2  C   UNL A   1     -30.611   0.746  26.904  0.00  0.00    +0.114 A 
ATOM      3  C   UNL A   1     -30.105   1.857  26.240  0.00  0.00    +0.010 A 
ATOM      4  C   UNL A   1     -29.677   3.025  26.878  0.00  0.00    +0.000 A 
ATOM      5  C   UNL A   1     -29.629   2.947  28.283  0.00  0.00    +0.003 A 
ATOM      6  C   UNL A   1     -29.928   1.791  28.977  0.00  0.00    +0.035 A 
ATOM      7  C   UNL A   1     -29.193   4.197  29.031  0.00  0.00    -0.000 A 
ATOM      8  C   UNL A   1     -29.458   4.342  30.223  0.00  0.00    -0.004 A 
ATOM      9  C   UNL A   1     -30.240   3.512  31.006  0.00  0.00    -0.014 A 
ATOM     10  C   UNL A   1     -30.378   2.154  30.378  0.00  0.00    -0.001 A 
ENDROOT
BRANCH   2  11
ATOM     11  C   UNL A   1     -31.046  -0.362  26.165  0.00  0.00    +0.391 C 
ATOM     12  O   UNL A   1     -30.487  -0.733  25.136  0.00  0.00    -0.240 OA
ATOM     13  O   UNL A   1     -32.212  -0.860  26.430  0.00  0.00    -0.240 OA
ENDBRANCH   2  11
BRANCH   1  14
ATOM     14  O   UNL A   1     -30.623  -0.462  28.886  0.00  0.00    -0.453 OA
BRANCH  14  19
ATOM     15  C   UNL A   1     -28.016  -0.814  28.878  0.00  0.00    +0.006 A 
ATOM     16  C   UNL A   1     -28.469  -0.785  29.829  0.00  0.00    +0.052 A 
ATOM     17  C   UNL A   1     -26.546  -0.876  28.850  0.00  0.00    +0.018 A 
ATOM     18  C   UNL A   1     -25.683  -0.777  27.683  0.00  0.00    +0.002 A 
ATOM     19  C   UNL A   1     -29.991  -0.730  29.981  0.00  0.00    +0.147 A 
ATOM     20  C   UNL A   1     -24.264  -0.773  27.951  0.00  0.00    +0.003 A 
ATOM     21  C   UNL A   1     -23.755  -0.950  29.247  0.00  0.00    +0.044 A 
ATOM     22  C   UNL A   1     -25.628  -1.019  30.012  0.00  0.00    +0.081 A 
ATOM     23  C   UNL A   1     -24.469  -1.022  30.299  0.00  0.00    +0.022 A 
ATOM     24  C   UNL A   1     -30.681  -1.140  31.049  0.00  0.00    +0.038 A 
ATOM     25  C   UNL A   1     -29.962  -1.380  32.280  0.00  0.00    +0.005 A 
ATOM     26  C   UNL A   1     -28.614  -1.477  32.289  0.00  0.00    +0.019 A 
ATOM     27  C   UNL A   1     -27.924  -1.306  31.177  0.00  0.00    +0.084 A 
ATOM     28  N   UNL A   1     -26.673  -1.231  31.221  0.00  0.00    -0.245 NA
BRANCH  21  29
ATOM     29  C   UNL A   1     -22.187  -0.892  29.222  0.00  0.00    +0.234 C 
ATOM     30  O   UNL A   1     -21.588   0.041  28.672  0.00  0.00    -0.283 OA
ENDBRANCH  21  29
ENDBRANCH  14  19
ENDBRANCH   1  14
BRANCH   9  31
ATOM     31  C   UNL A   1     -30.426   3.563  32.428  0.00  0.00    +0.066 C 
BRANCH  31  32
ATOM     32  C   UNL A   1     -31.324   4.428  32.872  0.00  0.00    -0.018 C 
ATOM     33  C   UNL A   1     -31.616   4.452  34.214  0.00  0.00    -0.004 C 
ENDBRANCH  31  32
BRANCH  31  34
ATOM     34  C   UNL A   1     -29.238   3.468  33.227  0.00  0.00    -0.018 C 
ATOM     35  C   UNL A   1     -29.475   3.461  34.670  0.00  0.00    -0.004 C 
ENDBRANCH  31  34
ENDBRANCH   9  31
TORSDOF 7
