MODEL 1808
MODEL 1
REMARK VINA RESULT:    -6.028      0.000      0.000
REMARK INTER + INTRA:          -7.798
REMARK INTER:                  -7.438
REMARK INTRA:                  -0.360
REMARK UNBOUND:                -0.360
REMARK  Name = No_1808-gen_results/8p0m/2024-11-26-14-13-15/
REMARK  4 active torsions:
REMARK  status: ('A' for Active; 'I' for Inactive)
REMARK    1  A    between atoms: C_3  and  O_7
REMARK    2  A    between atoms: O_7  and  C_8
REMARK    3  A    between atoms: C_8  and  C_9
REMARK    4  A    between atoms: C_10  and  C_11
REMARK                            x       y       z     vdW  Elec       q    Type
REMARK                         _______ _______ _______ _____ _____    ______ ____
ROOT
ATOM      1  C   UNL A   1     -23.036  -1.120  29.385  0.00  0.00    +0.232 C 
ENDROOT
BRANCH   1   2
ATOM      2  C   UNL A   1     -23.058  -0.178  28.338  0.00  0.00    +0.016 C 
ATOM      3  C   UNL A   1     -23.896   0.947  28.467  0.00  0.00    -0.025 C 
BRANCH   3   4
ATOM      4  C   UNL A   1     -23.789   2.102  27.680  0.00  0.00    +0.052 C 
ATOM      5  C   UNL A   1     -23.077   1.949  26.422  0.00  0.00    +0.130 C 
ATOM      6  N   UNL A   1     -23.348   2.950  25.512  0.00  0.00    -0.273 NA
ATOM      7  C   UNL A   1     -24.390   3.773  25.899  0.00  0.00    +0.067 C 
ATOM      8  C   UNL A   1     -24.912   2.973  27.338  0.00  0.00    +0.053 C 
ENDBRANCH   3   4
ENDBRANCH   1   2
BRANCH   1   9
ATOM      9  O   UNL A   1     -23.058  -2.429  28.858  0.00  0.00    -0.471 OA
BRANCH   9  12
ATOM     10  C   UNL A   1     -24.163  -4.587  28.737  0.00  0.00    +0.037 A 
ATOM     11  C   UNL A   1     -24.990  -5.180  29.010  0.00  0.00    +0.003 A 
ATOM     12  C   UNL A   1     -24.215  -3.207  29.130  0.00  0.00    +0.139 A 
ATOM     13  C   UNL A   1     -25.303  -2.641  29.662  0.00  0.00    +0.037 A 
ATOM     14  C   UNL A   1     -26.273  -4.780  29.569  0.00  0.00    +0.000 A 
ATOM     15  C   UNL A   1     -26.346  -3.502  29.917  0.00  0.00    +0.003 A 
ENDBRANCH   9  12
ENDBRANCH   1   9
TORSDOF 4
ENDMDL
ENDMDL
