REMARK  Name = No_1808-gen_results/8p0m/2024-11-26-14-13-15/
REMARK  4 active torsions:
REMARK  status: ('A' for Active; 'I' for Inactive)
REMARK    1  A    between atoms: C_3  and  O_7
REMARK    2  A    between atoms: O_7  and  C_8
REMARK    3  A    between atoms: C_8  and  C_9
REMARK    4  A    between atoms: C_10  and  C_11
REMARK                            x       y       z     vdW  Elec       q    Type
REMARK                         _______ _______ _______ _____ _____    ______ ____
ROOT
ATOM      1  C   UNL A   1     -26.498   1.339  26.660  0.00  0.00    +0.232 C 
ENDROOT
BRANCH   1   2
ATOM      2  C   UNL A   1     -25.229   0.728  26.610  0.00  0.00    +0.016 C 
ATOM      3  C   UNL A   1     -24.088   1.553  26.623  0.00  0.00    -0.025 C 
BRANCH   3   4
ATOM      4  C   UNL A   1     -22.791   1.098  26.897  0.00  0.00    +0.052 C 
ATOM      5  C   UNL A   1     -21.770   2.126  27.016  0.00  0.00    +0.130 C 
ATOM      6  N   UNL A   1     -20.638   1.702  27.682  0.00  0.00    -0.273 NA
ATOM      7  C   UNL A   1     -20.786   0.463  28.277  0.00  0.00    +0.067 C 
ATOM      8  C   UNL A   1     -22.456   0.154  27.961  0.00  0.00    +0.053 C 
ENDBRANCH   3   4
ENDBRANCH   1   2
BRANCH   1   9
ATOM      9  O   UNL A   1     -27.500   0.358  26.816  0.00  0.00    -0.471 OA
BRANCH   9  12
ATOM     10  C   UNL A   1     -28.016  -0.814  28.878  0.00  0.00    +0.037 A 
ATOM     11  C   UNL A   1     -28.469  -0.785  29.829  0.00  0.00    +0.003 A 
ATOM     12  C   UNL A   1     -28.196   0.348  28.055  0.00  0.00    +0.139 A 
ATOM     13  C   UNL A   1     -29.019   1.350  28.378  0.00  0.00    +0.037 A 
ATOM     14  C   UNL A   1     -29.411   0.180  30.378  0.00  0.00    +0.000 A 
ATOM     15  C   UNL A   1     -29.606   1.250  29.619  0.00  0.00    +0.003 A 
ENDBRANCH   9  12
ENDBRANCH   1   9
TORSDOF 4
