REMARK  Name = No_1809-gen_results/8p0m/2024-11-26-14-13-15/
REMARK  5 active torsions:
REMARK  status: ('A' for Active; 'I' for Inactive)
REMARK    1  A    between atoms: C_5  and  C_7
REMARK    2  A    between atoms: C_7  and  C_8
REMARK    3  A    between atoms: C_7  and  C_9
REMARK    4  A    between atoms: C_7  and  C_11
REMARK    5  A    between atoms: C_9  and  C_21
REMARK                            x       y       z     vdW  Elec       q    Type
REMARK                         _______ _______ _______ _____ _____    ______ ____
ROOT
ATOM      1  C   UNL A   1     -30.370   0.226  26.160  0.00  0.00    +0.148 C 
ENDROOT
BRANCH   1   6
ATOM      2  C   UNL A   1     -28.016  -0.814  28.878  0.00  0.00    +0.196 A 
ATOM      3  C   UNL A   1     -27.064  -0.119  28.608  0.00  0.00    +0.053 A 
ATOM      4  C   UNL A   1     -26.972   0.714  27.506  0.00  0.00    +0.061 A 
ATOM      5  C   UNL A   1     -28.105   0.774  26.642  0.00  0.00    +0.008 A 
ATOM      6  C   UNL A   1     -29.201   0.104  27.053  0.00  0.00    -0.001 A 
ATOM      7  C   UNL A   1     -29.210  -0.603  28.185  0.00  0.00    +0.039 A 
ATOM      8  O   UNL A   1     -28.021  -1.577  30.052  0.00  0.00    -0.287 OA
ATOM      9 CL   UNL A   1     -25.494   1.529  27.037  0.00  0.00    -0.082 Cl
ENDBRANCH   1   6
BRANCH   1  10
ATOM     10  C   UNL A   1     -31.071   1.201  26.093  0.00  0.00    -0.005 A 
ATOM     11  C   UNL A   1     -30.985   2.190  27.079  0.00  0.00    -0.003 A 
ATOM     12  C   UNL A   1     -31.675   3.493  26.967  0.00  0.00    -0.000 A 
ATOM     13  C   UNL A   1     -31.832   1.663  25.008  0.00  0.00    -0.003 A 
ATOM     14  C   UNL A   1     -32.517   2.850  24.816  0.00  0.00    -0.000 A 
ATOM     15  C   UNL A   1     -32.373   3.792  25.864  0.00  0.00    -0.000 A 
ENDBRANCH   1  10
BRANCH   1  16
ATOM     16  C   UNL A   1     -31.392  -0.962  26.680  0.00  0.00    +0.375 C 
ATOM     17  O   UNL A   1     -31.680  -1.032  27.791  0.00  0.00    -0.245 OA
ATOM     18  O   UNL A   1     -31.798  -1.885  25.845  0.00  0.00    -0.245 OA
ENDBRANCH   1  16
BRANCH   1  19
ATOM     19  C   UNL A   1     -30.057  -0.481  24.824  0.00  0.00    -0.008 C 
ATOM     20  C   UNL A   1     -28.896   0.178  24.272  0.00  0.00    -0.006 C 
BRANCH  19  21
ATOM     21  C   UNL A   1     -30.214  -1.632  24.257  0.00  0.00    +0.133 C 
ATOM     22  N   UNL A   1     -29.724  -1.957  23.071  0.00  0.00    -0.127 NA
ENDBRANCH  19  21
ENDBRANCH   1  19
TORSDOF 5
