MODEL 1809
MODEL 1
REMARK VINA RESULT:    -7.433      0.000      0.000
REMARK INTER + INTRA:          -7.994
REMARK INTER:                  -9.606
REMARK INTRA:                   1.612
REMARK UNBOUND:                 1.612
REMARK  Name = No_1809-gen_results/8p0m/2024-11-26-14-13-15/
REMARK  5 active torsions:
REMARK  status: ('A' for Active; 'I' for Inactive)
REMARK    1  A    between atoms: C_5  and  C_7
REMARK    2  A    between atoms: C_7  and  C_8
REMARK    3  A    between atoms: C_7  and  C_9
REMARK    4  A    between atoms: C_7  and  C_11
REMARK    5  A    between atoms: C_9  and  C_21
REMARK                            x       y       z     vdW  Elec       q    Type
REMARK                         _______ _______ _______ _____ _____    ______ ____
ROOT
ATOM      1  C   UNL A   1     -24.602  -1.237  29.433  0.00  0.00    +0.148 C 
ENDROOT
BRANCH   1   6
ATOM      2  C   UNL A   1     -24.351   1.987  27.547  0.00  0.00    +0.196 A 
ATOM      3  C   UNL A   1     -24.821   1.647  26.487  0.00  0.00    +0.053 A 
ATOM      4  C   UNL A   1     -25.212   0.358  26.165  0.00  0.00    +0.061 A 
ATOM      5  C   UNL A   1     -25.074  -0.634  27.179  0.00  0.00    +0.008 A 
ATOM      6  C   UNL A   1     -24.689  -0.192  28.394  0.00  0.00    -0.001 A 
ATOM      7  C   UNL A   1     -24.418   1.095  28.620  0.00  0.00    +0.039 A 
ATOM      8  O   UNL A   1     -24.041   3.332  27.782  0.00  0.00    -0.287 OA
ATOM      9 CL   UNL A   1     -25.679  -0.130  24.548  0.00  0.00    -0.082 Cl
ENDBRANCH   1   6
BRANCH   1  10
ATOM     10  C   UNL A   1     -24.876  -2.394  29.252  0.00  0.00    -0.005 A 
ATOM     11  C   UNL A   1     -23.887  -3.285  28.820  0.00  0.00    -0.003 A 
ATOM     12  C   UNL A   1     -24.102  -4.747  28.756  0.00  0.00    -0.000 A 
ATOM     13  C   UNL A   1     -26.021  -3.098  29.654  0.00  0.00    -0.003 A 
ATOM     14  C   UNL A   1     -26.317  -4.450  29.624  0.00  0.00    -0.000 A 
ATOM     15  C   UNL A   1     -25.258  -5.276  29.174  0.00  0.00    -0.000 A 
ENDBRANCH   1  10
BRANCH   1  16
ATOM     16  C   UNL A   1     -25.684  -0.747  30.580  0.00  0.00    +0.375 C 
ATOM     17  O   UNL A   1     -25.659  -1.208  31.633  0.00  0.00    -0.245 OA
ATOM     18  O   UNL A   1     -26.634   0.095  30.262  0.00  0.00    -0.245 OA
ENDBRANCH   1  16
BRANCH   1  19
ATOM     19  C   UNL A   1     -23.371  -0.959  30.322  0.00  0.00    -0.008 C 
ATOM     20  C   UNL A   1     -22.251  -0.774  29.429  0.00  0.00    -0.006 C 
BRANCH  19  21
ATOM     21  C   UNL A   1     -23.085  -0.473  31.485  0.00  0.00    +0.133 C 
ATOM     22  N   UNL A   1     -22.431  -1.127  32.432  0.00  0.00    -0.127 NA
ENDBRANCH  19  21
ENDBRANCH   1  19
TORSDOF 5
ENDMDL
ENDMDL
