REMARK  Name = No_181-gen_results/8p0m/2024-11-26-14-13-15/
REMARK  0 active torsions:
REMARK  status: ('A' for Active; 'I' for Inactive)
REMARK                            x       y       z     vdW  Elec       q    Type
REMARK                         _______ _______ _______ _____ _____    ______ ____
ROOT
ATOM      1  C   UNL A   1     -28.016  -0.814  28.878  0.00  0.00    +0.000 A 
ATOM      2  C   UNL A   1     -27.064  -0.119  28.608  0.00  0.00    +0.000 A 
ATOM      3  C   UNL A   1     -25.790  -0.234  29.130  0.00  0.00    +0.000 A 
ATOM      4  C   UNL A   1     -25.519  -1.281  30.116  0.00  0.00    +0.000 A 
ATOM      5  C   UNL A   1     -26.676  -2.096  30.388  0.00  0.00    +0.000 A 
ATOM      6  C   UNL A   1     -27.850  -1.881  29.834  0.00  0.00    +0.000 A 
ENDROOT
TORSDOF 0
