REMARK  Name = No_1810-gen_results/8p0m/2024-11-26-14-13-15/
REMARK  3 active torsions:
REMARK  status: ('A' for Active; 'I' for Inactive)
REMARK    1  A    between atoms: C_2  and  C_5
REMARK    2  A    between atoms: C_3  and  C_11
REMARK    3  A    between atoms: C_11  and  C_12
REMARK                            x       y       z     vdW  Elec       q    Type
REMARK                         _______ _______ _______ _____ _____    ______ ____
ROOT
ATOM      1  C   UNL A   1     -28.016  -0.814  28.878  0.00  0.00    +0.007 A 
ATOM      2  C   UNL A   1     -28.469  -0.785  29.829  0.00  0.00    +0.071 A 
ATOM      3  C   UNL A   1     -28.196   0.348  28.055  0.00  0.00    +0.039 A 
ATOM      4  C   UNL A   1     -29.019   1.350  28.378  0.00  0.00    +0.003 A 
ATOM      5  C   UNL A   1     -29.595   1.286  29.605  0.00  0.00    +0.000 A 
ATOM      6  C   UNL A   1     -29.346   0.209  30.375  0.00  0.00    +0.004 A 
ENDROOT
BRANCH   2   7
ATOM      7  C   UNL A   1     -28.317  -1.981  30.856  0.00  0.00    +0.419 C 
ATOM      8  F   UNL A   1     -27.642  -1.725  31.698  0.00  0.00    -0.166 F 
ATOM      9  F   UNL A   1     -29.578  -2.436  31.252  0.00  0.00    -0.166 F 
ATOM     10  F   UNL A   1     -27.767  -3.040  30.132  0.00  0.00    -0.166 F 
ENDBRANCH   2   7
BRANCH   3  11
ATOM     11  C   UNL A   1     -27.449   0.379  26.665  0.00  0.00    +0.196 C 
ATOM     12  O   UNL A   1     -28.068   0.039  25.636  0.00  0.00    -0.287 OA
BRANCH  11  13
ATOM     13  C   UNL A   1     -26.031   0.393  26.670  0.00  0.00    +0.039 A 
ATOM     14  C   UNL A   1     -25.227   0.043  27.696  0.00  0.00    +0.005 A 
ATOM     15  C   UNL A   1     -24.204   0.684  28.251  0.00  0.00    +0.030 A 
ATOM     16  C   UNL A   1     -23.512   1.543  27.325  0.00  0.00    +0.140 A 
ATOM     17  C   UNL A   1     -24.116   1.875  26.096  0.00  0.00    +0.030 A 
ATOM     18  C   UNL A   1     -25.247   0.632  25.511  0.00  0.00    +0.005 A 
ATOM     19  F   UNL A   1     -22.446   2.153  27.607  0.00  0.00    -0.204 F 
ENDBRANCH  11  13
ENDBRANCH   3  11
TORSDOF 3
