MODEL 1810
MODEL 1
REMARK VINA RESULT:    -7.620      0.000      0.000
REMARK INTER + INTRA:          -9.914
REMARK INTER:                  -8.956
REMARK INTRA:                  -0.958
REMARK UNBOUND:                -0.958
REMARK  Name = No_1810-gen_results/8p0m/2024-11-26-14-13-15/
REMARK  3 active torsions:
REMARK  status: ('A' for Active; 'I' for Inactive)
REMARK    1  A    between atoms: C_2  and  C_5
REMARK    2  A    between atoms: C_3  and  C_11
REMARK    3  A    between atoms: C_11  and  C_12
REMARK                            x       y       z     vdW  Elec       q    Type
REMARK                         _______ _______ _______ _____ _____    ______ ____
ROOT
ATOM      1  C   UNL A   1     -23.957   1.009  27.153  0.00  0.00    +0.007 A 
ATOM      2  C   UNL A   1     -23.919   1.169  26.112  0.00  0.00    +0.071 A 
ATOM      3  C   UNL A   1     -24.852  -0.017  27.605  0.00  0.00    +0.039 A 
ATOM      4  C   UNL A   1     -25.720  -0.634  26.798  0.00  0.00    +0.003 A 
ATOM      5  C   UNL A   1     -25.632  -0.338  25.476  0.00  0.00    +0.000 A 
ATOM      6  C   UNL A   1     -24.730   0.583  25.085  0.00  0.00    +0.004 A 
ENDROOT
BRANCH   2   7
ATOM      7  C   UNL A   1     -22.944   2.241  25.472  0.00  0.00    +0.419 C 
ATOM      8  F   UNL A   1     -22.672   1.986  24.428  0.00  0.00    -0.166 F 
ATOM      9  F   UNL A   1     -23.475   3.524  25.629  0.00  0.00    -0.166 F 
ATOM     10  F   UNL A   1     -21.793   2.232  26.262  0.00  0.00    -0.166 F 
ENDBRANCH   2   7
BRANCH   3  11
ATOM     11  C   UNL A   1     -24.861  -0.349  29.148  0.00  0.00    +0.196 C 
ATOM     12  O   UNL A   1     -24.579   0.552  29.964  0.00  0.00    -0.287 OA
BRANCH  11  13
ATOM     13  C   UNL A   1     -24.784  -1.711  29.537  0.00  0.00    +0.039 A 
ATOM     14  C   UNL A   1     -23.822  -2.592  29.194  0.00  0.00    +0.005 A 
ATOM     15  C   UNL A   1     -23.911  -3.817  28.686  0.00  0.00    +0.030 A 
ATOM     16  C   UNL A   1     -25.118  -4.499  29.077  0.00  0.00    +0.140 A 
ATOM     17  C   UNL A   1     -26.182  -3.767  29.642  0.00  0.00    +0.030 A 
ATOM     18  C   UNL A   1     -25.649  -2.300  30.496  0.00  0.00    +0.005 A 
ATOM     19  F   UNL A   1     -25.352  -5.707  28.806  0.00  0.00    -0.204 F 
ENDBRANCH  11  13
ENDBRANCH   3  11
TORSDOF 3
ENDMDL
ENDMDL
