MODEL 1811
MODEL 1
REMARK VINA RESULT:    -5.334      0.000      0.000
REMARK INTER + INTRA:          -5.679
REMARK INTER:                  -5.646
REMARK INTRA:                  -0.034
REMARK UNBOUND:                -0.034
REMARK  Name = No_1811-gen_results/8p0m/2024-11-26-14-13-15/
REMARK  1 active torsions:
REMARK  status: ('A' for Active; 'I' for Inactive)
REMARK    1  A    between atoms: C_2  and  C_7
REMARK                            x       y       z     vdW  Elec       q    Type
REMARK                         _______ _______ _______ _____ _____    ______ ____
ROOT
ATOM      1  C   UNL A   1     -10.335  -9.418  19.149  0.00  0.00    +0.007 A 
ATOM      2  C   UNL A   1      -9.739 -10.013  18.515  0.00  0.00    +0.080 A 
ATOM      3  C   UNL A   1      -9.721  -8.983  20.413  0.00  0.00    +0.000 A 
ATOM      4  C   UNL A   1      -8.596  -9.358  20.726  0.00  0.00    +0.000 A 
ATOM      5  C   UNL A   1      -8.344 -10.482  18.618  0.00  0.00    +0.007 A 
ATOM      6  C   UNL A   1      -7.791 -10.137  19.813  0.00  0.00    +0.000 A 
ENDROOT
BRANCH   2   7
ATOM      7  C   UNL A   1     -10.316 -10.461  17.084  0.00  0.00    +0.388 C 
ATOM      8  O   UNL A   1      -9.522 -10.985  16.216  0.00  0.00    -0.241 OA
ATOM      9  O   UNL A   1     -11.516 -10.528  16.906  0.00  0.00    -0.241 OA
ENDBRANCH   2   7
TORSDOF 1
ENDMDL
ENDMDL
