MODEL 1812
MODEL 1
REMARK VINA RESULT:    -5.838      0.000      0.000
REMARK INTER + INTRA:          -6.746
REMARK INTER:                  -6.521
REMARK INTRA:                  -0.225
REMARK UNBOUND:                -0.225
REMARK  Name = No_1812-gen_results/8p0m/2024-11-26-14-13-15/
REMARK  2 active torsions:
REMARK  status: ('A' for Active; 'I' for Inactive)
REMARK    1  A    between atoms: C_2  and  C_7
REMARK    2  A    between atoms: N_9  and  C_10
REMARK                            x       y       z     vdW  Elec       q    Type
REMARK                         _______ _______ _______ _____ _____    ______ ____
ROOT
ATOM      1  C   UNL A   1     -23.523   0.487  28.368  0.00  0.00    +0.005 A 
ATOM      2  C   UNL A   1     -22.837  -0.149  28.854  0.00  0.00    +0.055 A 
ATOM      3  C   UNL A   1     -22.910   1.617  27.572  0.00  0.00    +0.000 A 
ATOM      4  C   UNL A   1     -21.509   1.669  27.411  0.00  0.00    +0.000 A 
ATOM      5  C   UNL A   1     -21.368  -0.332  28.824  0.00  0.00    +0.005 A 
ATOM      6  C   UNL A   1     -20.770   0.687  28.095  0.00  0.00    +0.000 A 
ENDROOT
BRANCH   2   7
ATOM      7  C   UNL A   1     -23.459  -1.367  29.696  0.00  0.00    +0.269 C 
ATOM      8  O   UNL A   1     -23.486  -1.459  30.778  0.00  0.00    -0.268 OA
ATOM      9  N   UNL A   1     -23.861  -2.399  28.843  0.00  0.00    -0.174 NA
BRANCH   9  10
ATOM     10  C   UNL A   1     -24.196  -3.423  29.048  0.00  0.00    +0.084 C 
ATOM     11  C   UNL A   1     -24.377  -4.392  28.644  0.00  0.00    -0.008 C 
ATOM     12  C   UNL A   1     -24.818  -5.687  29.175  0.00  0.00    +0.032 C 
ENDBRANCH   9  10
ENDBRANCH   2   7
TORSDOF 2
ENDMDL
ENDMDL
