REMARK  Name = No_1813-gen_results/8p0m/2024-11-26-14-13-15/
REMARK  1 active torsions:
REMARK  status: ('A' for Active; 'I' for Inactive)
REMARK    1  A    between atoms: C_3  and  C_9
REMARK                            x       y       z     vdW  Elec       q    Type
REMARK                         _______ _______ _______ _____ _____    ______ ____
ROOT
ATOM      1  C   UNL A   1     -28.016  -0.814  28.878  0.00  0.00    +0.041 A 
ATOM      2  C   UNL A   1     -27.064  -0.119  28.608  0.00  0.00    +0.060 A 
ATOM      3  C   UNL A   1     -25.792  -0.430  29.076  0.00  0.00    +0.011 A 
ATOM      4  C   UNL A   1     -25.576  -1.565  29.936  0.00  0.00    +0.003 A 
ATOM      5  C   UNL A   1     -26.735  -2.300  30.217  0.00  0.00    +0.030 A 
ATOM      6  C   UNL A   1     -27.918  -1.954  29.763  0.00  0.00    +0.141 A 
ATOM      7 CL   UNL A   1     -27.146   1.292  27.641  0.00  0.00    -0.082 Cl
ATOM      8  F   UNL A   1     -28.965  -2.704  30.073  0.00  0.00    -0.204 F 
ENDROOT
BRANCH   3   9
ATOM      9  C   UNL A   1     -24.514   0.369  28.773  0.00  0.00    +0.003 A 
ATOM     10  C   UNL A   1     -23.388  -0.111  28.938  0.00  0.00    +0.030 A 
ATOM     11  C   UNL A   1     -22.170   0.636  28.757  0.00  0.00    +0.140 A 
ATOM     12  C   UNL A   1     -22.219   1.708  27.910  0.00  0.00    +0.030 A 
ATOM     13  C   UNL A   1     -23.487   2.259  27.597  0.00  0.00    +0.002 A 
ATOM     14  C   UNL A   1     -24.633   1.562  27.986  0.00  0.00    +0.000 A 
ATOM     15  F   UNL A   1     -21.006   0.026  28.972  0.00  0.00    -0.204 F 
ENDBRANCH   3   9
TORSDOF 1
