REMARK  Name = No_1814-gen_results/8p0m/2024-11-26-14-13-15/
REMARK  0 active torsions:
REMARK  status: ('A' for Active; 'I' for Inactive)
REMARK                            x       y       z     vdW  Elec       q    Type
REMARK                         _______ _______ _______ _____ _____    ______ ____
ROOT
ATOM      1  C   UNL A   1     -28.016  -0.814  28.878  0.00  0.00    +0.000 A 
ATOM      2  C   UNL A   1     -28.469  -0.785  29.829  0.00  0.00    +0.000 A 
ATOM      3  C   UNL A   1     -28.192   0.147  27.871  0.00  0.00    +0.000 A 
ATOM      4  C   UNL A   1     -29.282   1.012  27.961  0.00  0.00    +0.000 A 
ATOM      5  C   UNL A   1     -29.644   0.090  30.159  0.00  0.00    +0.000 A 
ATOM      6  C   UNL A   1     -29.930   0.993  29.182  0.00  0.00    +0.000 A 
ENDROOT
TORSDOF 0
