MODEL 1814
MODEL 1
REMARK VINA RESULT:    -4.353      0.000      0.000
REMARK INTER + INTRA:          -4.353
REMARK INTER:                  -4.353
REMARK INTRA:                   0.000
REMARK UNBOUND:                 0.000
REMARK  Name = No_1814-gen_results/8p0m/2024-11-26-14-13-15/
REMARK  0 active torsions:
REMARK  status: ('A' for Active; 'I' for Inactive)
REMARK                            x       y       z     vdW  Elec       q    Type
REMARK                         _______ _______ _______ _____ _____    ______ ____
ROOT
ATOM      1  C   UNL A   1     -24.143  -4.777  28.602  0.00  0.00    +0.000 A 
ATOM      2  C   UNL A   1     -24.907  -5.353  29.043  0.00  0.00    +0.000 A 
ATOM      3  C   UNL A   1     -23.987  -3.391  28.755  0.00  0.00    +0.000 A 
ATOM      4  C   UNL A   1     -25.072  -2.647  29.218  0.00  0.00    +0.000 A 
ATOM      5  C   UNL A   1     -26.158  -4.761  29.627  0.00  0.00    +0.000 A 
ATOM      6  C   UNL A   1     -26.112  -3.404  29.724  0.00  0.00    +0.000 A 
ENDROOT
TORSDOF 0
ENDMDL
ENDMDL
