MODEL 1815
MODEL 1
REMARK VINA RESULT:    -4.474      0.000      0.000
REMARK INTER + INTRA:          -4.474
REMARK INTER:                  -4.474
REMARK INTRA:                   0.000
REMARK UNBOUND:                 0.000
REMARK  Name = No_1815-gen_results/8p0m/2024-11-26-14-13-15/
REMARK  0 active torsions:
REMARK  status: ('A' for Active; 'I' for Inactive)
REMARK                            x       y       z     vdW  Elec       q    Type
REMARK                         _______ _______ _______ _____ _____    ______ ____
ROOT
ATOM      1  C   UNL A   1     -24.034  -4.302  28.754  0.00  0.00    +0.030 A 
ATOM      2  C   UNL A   1     -24.920  -4.855  28.896  0.00  0.00    +0.140 A 
ATOM      3  C   UNL A   1     -24.108  -2.845  29.154  0.00  0.00    +0.002 A 
ATOM      4  C   UNL A   1     -25.263  -2.365  29.805  0.00  0.00    +0.000 A 
ATOM      5  C   UNL A   1     -26.216  -4.613  29.568  0.00  0.00    +0.030 A 
ATOM      6  C   UNL A   1     -26.318  -3.284  29.956  0.00  0.00    +0.002 A 
ATOM      7  F   UNL A   1     -24.839  -6.256  28.522  0.00  0.00    -0.204 F 
ENDROOT
TORSDOF 0
ENDMDL
ENDMDL
