MODEL 1816
MODEL 1
REMARK VINA RESULT:    -7.567      0.000      0.000
REMARK INTER + INTRA:         -10.798
REMARK INTER:                  -9.336
REMARK INTRA:                  -1.462
REMARK UNBOUND:                -1.462
REMARK  Name = No_1816-gen_results/8p0m/2024-11-26-14-13-15/
REMARK  4 active torsions:
REMARK  status: ('A' for Active; 'I' for Inactive)
REMARK    1  A    between atoms: C_2  and  C_7
REMARK    2  A    between atoms: C_7  and  C_8
REMARK    3  A    between atoms: C_7  and  C_14
REMARK    4  A    between atoms: C_15  and  C_21
REMARK                            x       y       z     vdW  Elec       q    Type
REMARK                         _______ _______ _______ _____ _____    ______ ____
ROOT
ATOM      1  C   UNL A   1     -24.838  -1.078  29.196  0.00  0.00    +0.067 C 
ENDROOT
BRANCH   1   2
ATOM      2  C   UNL A   1     -25.288  -0.494  30.493  0.00  0.00    -0.012 A 
ATOM      3  C   UNL A   1     -26.478   0.117  30.593  0.00  0.00    +0.076 A 
ATOM      4  C   UNL A   1     -24.465  -0.610  31.603  0.00  0.00    -0.025 A 
ATOM      5  C   UNL A   1     -26.896   0.690  31.746  0.00  0.00    +0.006 A 
ATOM      6  C   UNL A   1     -23.137  -1.226  31.522  0.00  0.00    +0.031 C 
ATOM      7  C   UNL A   1     -26.098   0.560  32.879  0.00  0.00    -0.000 A 
ATOM      8  C   UNL A   1     -24.917  -0.063  32.807  0.00  0.00    -0.004 A 
BRANCH   3   9
ATOM      9  C   UNL A   1     -27.457   0.255  29.389  0.00  0.00    +0.388 C 
ATOM     10  O   UNL A   1     -28.129  -0.546  28.951  0.00  0.00    -0.241 OA
ATOM     11  O   UNL A   1     -27.391   1.458  28.810  0.00  0.00    -0.241 OA
ENDBRANCH   3   9
ENDBRANCH   1   2
BRANCH   1  13
ATOM     12  C   UNL A   1     -25.985  -3.139  29.628  0.00  0.00    -0.004 A 
ATOM     13  C   UNL A   1     -25.024  -2.554  29.186  0.00  0.00    -0.014 A 
ATOM     14  C   UNL A   1     -23.975  -3.244  28.588  0.00  0.00    -0.004 A 
ATOM     15  C   UNL A   1     -23.979  -4.682  28.518  0.00  0.00    -0.000 A 
ATOM     16  C   UNL A   1     -25.117  -5.280  29.075  0.00  0.00    -0.000 A 
ATOM     17  C   UNL A   1     -26.074  -4.583  29.643  0.00  0.00    -0.000 A 
ENDBRANCH   1  13
BRANCH   1  18
ATOM     18  C   UNL A   1     -24.350  -0.342  28.353  0.00  0.00    -0.014 A 
ATOM     19  C   UNL A   1     -25.047  -0.287  26.994  0.00  0.00    -0.004 A 
ATOM     20  C   UNL A   1     -24.583   0.720  26.064  0.00  0.00    -0.000 A 
ATOM     21  C   UNL A   1     -23.523   1.491  26.362  0.00  0.00    -0.000 A 
ATOM     22  C   UNL A   1     -22.942   1.528  27.611  0.00  0.00    -0.000 A 
ATOM     23  C   UNL A   1     -23.363   0.624  28.588  0.00  0.00    -0.004 A 
ENDBRANCH   1  18
TORSDOF 4
ENDMDL
ENDMDL
