REMARK  Name = No_1816-gen_results/8p0m/2024-11-26-14-13-15/
REMARK  4 active torsions:
REMARK  status: ('A' for Active; 'I' for Inactive)
REMARK    1  A    between atoms: C_2  and  C_7
REMARK    2  A    between atoms: C_7  and  C_8
REMARK    3  A    between atoms: C_7  and  C_14
REMARK    4  A    between atoms: C_15  and  C_21
REMARK                            x       y       z     vdW  Elec       q    Type
REMARK                         _______ _______ _______ _____ _____    ______ ____
ROOT
ATOM      1  C   UNL A   1     -27.106   1.102  27.759  0.00  0.00    +0.067 C 
ENDROOT
BRANCH   1   2
ATOM      2  C   UNL A   1     -27.799   0.828  26.467  0.00  0.00    -0.012 A 
ATOM      3  C   UNL A   1     -29.110   1.078  26.327  0.00  0.00    +0.076 A 
ATOM      4  C   UNL A   1     -27.064   0.329  25.403  0.00  0.00    -0.025 A 
ATOM      5  C   UNL A   1     -29.774   0.803  25.180  0.00  0.00    +0.006 A 
ATOM      6  C   UNL A   1     -25.642  -0.004  25.532  0.00  0.00    +0.031 C 
ATOM      7  C   UNL A   1     -29.049   0.329  24.091  0.00  0.00    -0.000 A 
ATOM      8  C   UNL A   1     -27.738   0.092  24.202  0.00  0.00    -0.004 A 
BRANCH   3   9
ATOM      9  C   UNL A   1     -29.983   1.663  27.477  0.00  0.00    +0.388 C 
ATOM     10  O   UNL A   1     -29.811   2.624  28.053  0.00  0.00    -0.241 OA
ATOM     11  O   UNL A   1     -30.989   0.852  27.821  0.00  0.00    -0.241 OA
ENDBRANCH   3   9
ENDBRANCH   1   2
BRANCH   1  13
ATOM     12  C   UNL A   1     -28.016  -0.814  28.878  0.00  0.00    -0.004 A 
ATOM     13  C   UNL A   1     -27.064  -0.119  28.608  0.00  0.00    -0.014 A 
ATOM     14  C   UNL A   1     -25.792  -0.430  29.076  0.00  0.00    -0.004 A 
ATOM     15  C   UNL A   1     -25.576  -1.565  29.936  0.00  0.00    -0.000 A 
ATOM     16  C   UNL A   1     -26.735  -2.300  30.217  0.00  0.00    -0.000 A 
ATOM     17  C   UNL A   1     -27.918  -1.954  29.763  0.00  0.00    -0.000 A 
ENDBRANCH   1  13
BRANCH   1  18
ATOM     18  C   UNL A   1     -26.716   2.235  27.994  0.00  0.00    -0.014 A 
ATOM     19  C   UNL A   1     -26.069   2.477  29.357  0.00  0.00    -0.004 A 
ATOM     20  C   UNL A   1     -25.441   3.764  29.561  0.00  0.00    -0.000 A 
ATOM     21  C   UNL A   1     -25.522   4.722  28.622  0.00  0.00    -0.000 A 
ATOM     22  C   UNL A   1     -26.012   4.499  27.353  0.00  0.00    -0.000 A 
ATOM     23  C   UNL A   1     -26.592   3.265  27.052  0.00  0.00    -0.004 A 
ENDBRANCH   1  18
TORSDOF 4
