REMARK  Name = No_1817-gen_results/8p0m/2024-11-26-14-13-15/
REMARK  5 active torsions:
REMARK  status: ('A' for Active; 'I' for Inactive)
REMARK    1  A    between atoms: C_3  and  N_14
REMARK    2  A    between atoms: C_4  and  C_7
REMARK    3  A    between atoms: C_7  and  N_8
REMARK    4  A    between atoms: N_14  and  C_15
REMARK    5  A    between atoms: C_16  and  C_17
REMARK                            x       y       z     vdW  Elec       q    Type
REMARK                         _______ _______ _______ _____ _____    ______ ____
ROOT
ATOM      1  C   UNL A   1     -28.016  -0.814  28.878  0.00  0.00    +0.016 A 
ATOM      2  C   UNL A   1     -28.469  -0.785  29.829  0.00  0.00    +0.001 A 
ATOM      3  C   UNL A   1     -26.546  -0.876  28.850  0.00  0.00    +0.068 A 
ATOM      4  C   UNL A   1     -25.804  -1.032  30.057  0.00  0.00    +0.009 A 
ATOM      5  C   UNL A   1     -26.537  -1.039  31.217  0.00  0.00    -0.002 A 
ATOM      6  C   UNL A   1     -27.884  -0.953  31.186  0.00  0.00    -0.000 A 
ENDROOT
BRANCH   4   7
ATOM      7  C   UNL A   1     -24.355  -1.112  30.035  0.00  0.00    +0.102 C 
BRANCH   7   8
ATOM      8  N   UNL A   1     -23.701   0.059  29.844  0.00  0.00    -0.254 NA
ATOM      9  C   UNL A   1     -23.784   1.140  30.581  0.00  0.00    +0.164 C 
ATOM     10  C   UNL A   1     -23.372   0.429  28.476  0.00  0.00    +0.075 C 
ATOM     11  C   UNL A   1     -22.893   1.711  28.233  0.00  0.00    +0.036 C 
ATOM     12  N   UNL A   1     -23.941   2.200  30.436  0.00  0.00    -0.201 NA
ATOM     13  C   UNL A   1     -23.381   2.724  29.219  0.00  0.00    +0.092 C 
ENDBRANCH   7   8
ENDBRANCH   4   7
BRANCH   3  14
ATOM     14  N   UNL A   1     -25.819  -0.834  27.649  0.00  0.00    -0.211 NA
BRANCH  14  15
ATOM     15  C   UNL A   1     -26.161  -0.053  26.568  0.00  0.00    +0.086 C 
ATOM     16  C   UNL A   1     -26.900   1.122  26.741  0.00  0.00    +0.018 C 
BRANCH  16  17
ATOM     17  C   UNL A   1     -26.989   1.745  27.867  0.00  0.00    -0.003 C 
ATOM     18  C   UNL A   1     -27.575   3.096  28.008  0.00  0.00    -0.026 C 
ATOM     19  C   UNL A   1     -28.100   3.569  26.853  0.00  0.00    +0.031 C 
ENDBRANCH  16  17
ENDBRANCH  14  15
ENDBRANCH   3  14
TORSDOF 5
