MODEL 1817
MODEL 1
REMARK VINA RESULT:    -6.309      0.000      0.000
REMARK INTER + INTRA:          -8.952
REMARK INTER:                  -8.153
REMARK INTRA:                  -0.799
REMARK UNBOUND:                -0.799
REMARK  Name = No_1817-gen_results/8p0m/2024-11-26-14-13-15/
REMARK  5 active torsions:
REMARK  status: ('A' for Active; 'I' for Inactive)
REMARK    1  A    between atoms: C_3  and  N_14
REMARK    2  A    between atoms: C_4  and  C_7
REMARK    3  A    between atoms: C_7  and  N_8
REMARK    4  A    between atoms: N_14  and  C_15
REMARK    5  A    between atoms: C_16  and  C_17
REMARK                            x       y       z     vdW  Elec       q    Type
REMARK                         _______ _______ _______ _____ _____    ______ ____
ROOT
ATOM      1  C   UNL A   1     -23.218   0.781  28.231  0.00  0.00    +0.016 A 
ATOM      2  C   UNL A   1     -22.718   1.589  27.775  0.00  0.00    +0.001 A 
ATOM      3  C   UNL A   1     -24.314   0.168  27.464  0.00  0.00    +0.068 A 
ATOM      4  C   UNL A   1     -24.573   0.570  26.121  0.00  0.00    +0.009 A 
ATOM      5  C   UNL A   1     -23.798   1.595  25.641  0.00  0.00    -0.002 A 
ATOM      6  C   UNL A   1     -22.821   2.139  26.398  0.00  0.00    -0.000 A 
ENDROOT
BRANCH   4   7
ATOM      7  C   UNL A   1     -25.641  -0.044  25.353  0.00  0.00    +0.102 C 
BRANCH   7   8
ATOM      8  N   UNL A   1     -26.752   0.711  25.180  0.00  0.00    -0.254 NA
ATOM      9  C   UNL A   1     -27.463   1.298  26.112  0.00  0.00    +0.164 C 
ATOM     10  C   UNL A   1     -27.607   0.396  24.045  0.00  0.00    +0.075 C 
ATOM     11  C   UNL A   1     -28.851   1.010  23.962  0.00  0.00    +0.036 C 
ATOM     12  N   UNL A   1     -28.502   1.378  26.398  0.00  0.00    -0.201 NA
ATOM     13  C   UNL A   1     -29.426   1.370  25.295  0.00  0.00    +0.092 C 
ENDBRANCH   7   8
ENDBRANCH   4   7
BRANCH   3  14
ATOM     14  N   UNL A   1     -25.113  -0.859  27.993  0.00  0.00    -0.211 NA
BRANCH  14  15
ATOM     15  C   UNL A   1     -25.016  -1.322  29.286  0.00  0.00    +0.086 C 
ATOM     16  C   UNL A   1     -24.562  -2.619  29.549  0.00  0.00    +0.018 C 
BRANCH  16  17
ATOM     17  C   UNL A   1     -23.875  -3.314  28.707  0.00  0.00    -0.003 C 
ATOM     18  C   UNL A   1     -24.076  -4.763  28.490  0.00  0.00    -0.026 C 
ATOM     19  C   UNL A   1     -25.121  -5.265  29.189  0.00  0.00    +0.031 C 
ENDBRANCH  16  17
ENDBRANCH  14  15
ENDBRANCH   3  14
TORSDOF 5
ENDMDL
ENDMDL
