MODEL 1818
MODEL 1
REMARK VINA RESULT:    -6.206      0.000      0.000
REMARK INTER + INTRA:          -6.730
REMARK INTER:                  -6.568
REMARK INTRA:                  -0.161
REMARK UNBOUND:                -0.161
REMARK  Name = No_1818-gen_results/8p0m/2024-11-26-14-13-15/
REMARK  1 active torsions:
REMARK  status: ('A' for Active; 'I' for Inactive)
REMARK    1  A    between atoms: C_3  and  C_7
REMARK                            x       y       z     vdW  Elec       q    Type
REMARK                         _______ _______ _______ _____ _____    ______ ____
ROOT
ATOM      1  C   UNL A   1     -24.848  -5.069  28.977  0.00  0.00    +0.000 A 
ATOM      2  C   UNL A   1     -24.106  -4.151  28.713  0.00  0.00    +0.002 A 
ATOM      3  C   UNL A   1     -24.385  -2.820  29.020  0.00  0.00    +0.018 A 
ATOM      4  C   UNL A   1     -25.655  -2.489  29.636  0.00  0.00    +0.002 A 
ATOM      5  C   UNL A   1     -26.474  -3.610  29.906  0.00  0.00    +0.000 A 
ATOM      6  C   UNL A   1     -26.127  -4.828  29.575  0.00  0.00    +0.000 A 
ENDROOT
BRANCH   3   7
ATOM      7  C   UNL A   1     -23.518  -1.646  28.737  0.00  0.00    +0.085 A 
ATOM      8  N   UNL A   1     -22.343  -1.547  29.156  0.00  0.00    -0.224 NA
ATOM      9  C   UNL A   1     -21.612  -0.451  29.017  0.00  0.00    +0.199 A 
ATOM     10  N   UNL A   1     -22.135   0.650  28.435  0.00  0.00    -0.222 NA
ATOM     11  C   UNL A   1     -24.034  -0.422  28.131  0.00  0.00    +0.040 A 
ATOM     12  C   UNL A   1     -23.291   0.690  27.975  0.00  0.00    +0.102 A 
ENDBRANCH   3   7
TORSDOF 1
ENDMDL
ENDMDL
