REMARK  Name = No_1819-gen_results/8p0m/2024-11-26-14-13-15/
REMARK  8 active torsions:
REMARK  status: ('A' for Active; 'I' for Inactive)
REMARK    1  A    between atoms: C_2  and  C_7
REMARK    2  A    between atoms: C_3  and  C_15
REMARK    3  A    between atoms: C_11  and  O_22
REMARK    4  A    between atoms: C_15  and  C_16
REMARK    5  A    between atoms: O_22  and  C_23
REMARK    6  A    between atoms: C_23  and  C_24
REMARK    7  A    between atoms: C_27  and  C_30
REMARK    8  A    between atoms: N_32  and  C_33
REMARK                            x       y       z     vdW  Elec       q    Type
REMARK                         _______ _______ _______ _____ _____    ______ ____
ROOT
ATOM      1  C   UNL A   1     -30.074  -0.836  29.861  0.00  0.00    +0.249 C 
ATOM      2  O   UNL A   1     -30.689  -1.655  30.223  0.00  0.00    -0.270 OA
ATOM      3  N   UNL A   1     -30.602   0.433  29.598  0.00  0.00    -0.274 N 
ATOM      4  C   UNL A   1     -32.010   0.551  29.476  0.00  0.00    +0.123 C 
ATOM      5  C   UNL A   1     -32.346   1.539  28.751  0.00  0.00    +0.136 C 
ATOM      6  C   UNL A   1     -31.443   2.578  28.271  0.00  0.00    +0.033 C 
ATOM      7  C   UNL A   1     -30.050   2.320  28.414  0.00  0.00    +0.024 C 
ATOM      8  C   UNL A   1     -29.644   1.255  28.964  0.00  0.00    +0.094 C 
ENDROOT
BRANCH   1  10
ATOM      9  C   UNL A   1     -28.016  -0.814  28.878  0.00  0.00    +0.001 A 
ATOM     10  C   UNL A   1     -28.469  -0.785  29.829  0.00  0.00    +0.053 A 
ATOM     11  C   UNL A   1     -26.504  -0.778  28.877  0.00  0.00    -0.018 A 
ATOM     12  C   UNL A   1     -25.810  -0.853  30.103  0.00  0.00    -0.004 A 
ATOM     13  C   UNL A   1     -27.991  -0.892  31.226  0.00  0.00    +0.004 A 
ATOM     14  C   UNL A   1     -26.604  -0.868  31.265  0.00  0.00    -0.000 A 
BRANCH  11  15
ATOM     15  C   UNL A   1     -25.659  -0.680  27.665  0.00  0.00    +0.053 C 
BRANCH  15  16
ATOM     16  C   UNL A   1     -25.878   0.358  26.726  0.00  0.00    -0.018 A 
ATOM     17  C   UNL A   1     -24.977   0.627  25.780  0.00  0.00    -0.004 A 
ATOM     18  C   UNL A   1     -25.184   1.497  24.746  0.00  0.00    -0.000 A 
ATOM     19  C   UNL A   1     -26.307   2.391  24.957  0.00  0.00    -0.000 A 
ATOM     20  C   UNL A   1     -26.901   1.369  26.625  0.00  0.00    -0.004 A 
ATOM     21  C   UNL A   1     -27.155   2.259  25.833  0.00  0.00    -0.000 A 
ENDBRANCH  15  16
ENDBRANCH  11  15
ENDBRANCH   1  10
BRANCH   5  22
ATOM     22  O   UNL A   1     -33.633   1.992  28.966  0.00  0.00    -0.350 OA
BRANCH  22  23
ATOM     23  C   UNL A   1     -34.038   2.936  29.730  0.00  0.00    +0.169 C 
BRANCH  23  24
ATOM     24  C   UNL A   1     -35.100   3.479  29.467  0.00  0.00    +0.007 A 
ATOM     25  C   UNL A   1     -36.007   3.102  28.504  0.00  0.00    -0.002 A 
ATOM     26  C   UNL A   1     -37.260   3.762  28.202  0.00  0.00    +0.004 A 
ATOM     27  C   UNL A   1     -37.552   4.899  29.009  0.00  0.00    +0.055 A 
ATOM     28  C   UNL A   1     -36.753   5.359  29.987  0.00  0.00    +0.004 A 
ATOM     29  C   UNL A   1     -35.542   4.704  30.260  0.00  0.00    -0.002 A 
BRANCH  27  30
ATOM     30  C   UNL A   1     -38.854   5.544  28.670  0.00  0.00    +0.269 C 
ATOM     31  O   UNL A   1     -39.159   6.580  29.200  0.00  0.00    -0.268 OA
ATOM     32  N   UNL A   1     -39.612   4.945  27.772  0.00  0.00    -0.174 NA
BRANCH  32  33
ATOM     33  C   UNL A   1     -40.870   5.470  27.391  0.00  0.00    +0.084 C 
ATOM     34  C   UNL A   1     -41.541   4.835  26.566  0.00  0.00    -0.008 C 
ATOM     35  C   UNL A   1     -41.057   3.685  25.992  0.00  0.00    +0.032 C 
ENDBRANCH  32  33
ENDBRANCH  27  30
ENDBRANCH  23  24
ENDBRANCH  22  23
ENDBRANCH   5  22
TORSDOF 8
