MODEL 181
MODEL 1
REMARK VINA RESULT:    -4.278      0.000      0.000
REMARK INTER + INTRA:          -4.278
REMARK INTER:                  -4.278
REMARK INTRA:                   0.000
REMARK UNBOUND:                 0.000
REMARK  Name = No_181-gen_results/8p0m/2024-11-26-14-13-15/
REMARK  0 active torsions:
REMARK  status: ('A' for Active; 'I' for Inactive)
REMARK                            x       y       z     vdW  Elec       q    Type
REMARK                         _______ _______ _______ _____ _____    ______ ____
ROOT
ATOM      1  C   UNL A   1     -24.944  -5.389  28.970  0.00  0.00    +0.000 A 
ATOM      2  C   UNL A   1     -24.056  -4.666  28.583  0.00  0.00    +0.000 A 
ATOM      3  C   UNL A   1     -24.016  -3.289  28.684  0.00  0.00    +0.000 A 
ATOM      4  C   UNL A   1     -25.140  -2.590  29.310  0.00  0.00    +0.000 A 
ATOM      5  C   UNL A   1     -26.161  -3.494  29.775  0.00  0.00    +0.000 A 
ATOM      6  C   UNL A   1     -26.094  -4.798  29.609  0.00  0.00    +0.000 A 
ENDROOT
TORSDOF 0
ENDMDL
ENDMDL
