REMARK  Name = No_182-gen_results/8p0m/2024-11-26-14-13-15/
REMARK  13 active torsions:
REMARK  status: ('A' for Active; 'I' for Inactive)
REMARK    1  A    between atoms: C_2  and  C_20
REMARK    2  A    between atoms: C_4  and  C_7
REMARK    3  A    between atoms: C_7  and  C_8
REMARK    4  A    between atoms: C_8  and  C_9
REMARK    5  A    between atoms: C_10  and  C_11
REMARK    6  A    between atoms: C_12  and  C_13
REMARK    7  A    between atoms: C_13  and  C_14
REMARK    8  A    between atoms: C_13  and  C_24
REMARK    9  A    between atoms: N_25  and  C_26
REMARK   10  A    between atoms: C_26  and  C_27
REMARK   11  A    between atoms: C_27  and  N_28
REMARK   12  A    between atoms: C_27  and  C_33
REMARK   13  A    between atoms: C_33  and  C_34
REMARK                            x       y       z     vdW  Elec       q    Type
REMARK                         _______ _______ _______ _____ _____    ______ ____
ROOT
ATOM      1  C   UNL A   1     -24.481   2.243  25.886  0.00  0.00    +0.085 C 
ENDROOT
BRANCH   1   2
ATOM      2  C   UNL A   1     -25.442   1.295  25.678  0.00  0.00    -0.013 A 
ATOM      3  C   UNL A   1     -25.162  -0.008  25.270  0.00  0.00    -0.004 A 
ATOM      4  C   UNL A   1     -26.292  -0.821  24.963  0.00  0.00    -0.000 A 
ATOM      5  C   UNL A   1     -27.558  -0.214  24.822  0.00  0.00    -0.000 A 
ATOM      6  C   UNL A   1     -27.851   1.092  25.187  0.00  0.00    -0.000 A 
ATOM      7  C   UNL A   1     -26.771   1.929  25.535  0.00  0.00    -0.004 A 
ENDBRANCH   1   2
BRANCH   1   9
ATOM      8  C   UNL A   1     -22.452   1.497  26.776  0.00  0.00    -0.004 C 
ATOM      9  C   UNL A   1     -23.151   1.901  25.710  0.00  0.00    -0.016 C 
BRANCH   8  11
ATOM     10  C   UNL A   1     -23.308   0.521  28.655  0.00  0.00    -0.026 C 
ATOM     11  C   UNL A   1     -22.944   1.354  28.135  0.00  0.00    -0.005 C 
BRANCH  10  12
ATOM     12  C   UNL A   1     -23.705   0.096  29.844  0.00  0.00    +0.026 C 
ATOM     13  C   UNL A   1     -22.736   0.506  30.916  0.00  0.00    +0.005 C 
BRANCH  12  14
ATOM     14  C   UNL A   1     -24.381  -1.108  30.085  0.00  0.00    +0.031 C 
BRANCH  14  18
ATOM     15  C   UNL A   1     -28.016  -0.814  28.878  0.00  0.00    +0.006 A 
ATOM     16  C   UNL A   1     -28.469  -0.785  29.829  0.00  0.00    +0.080 A 
ATOM     17  C   UNL A   1     -26.546  -0.876  28.850  0.00  0.00    -0.004 A 
ATOM     18  C   UNL A   1     -25.804  -1.032  30.057  0.00  0.00    -0.022 A 
ATOM     19  C   UNL A   1     -27.944  -0.987  31.207  0.00  0.00    +0.006 A 
ATOM     20  C   UNL A   1     -26.582  -1.039  31.223  0.00  0.00    -0.004 A 
BRANCH  16  21
ATOM     21  C   UNL A   1     -30.104  -0.692  29.837  0.00  0.00    +0.388 C 
ATOM     22  O   UNL A   1     -30.511  -0.124  28.921  0.00  0.00    -0.241 OA
ATOM     23  O   UNL A   1     -30.759  -0.828  30.920  0.00  0.00    -0.241 OA
ENDBRANCH  16  21
ENDBRANCH  14  18
ENDBRANCH  12  14
ENDBRANCH  10  12
ENDBRANCH   8  11
ENDBRANCH   1   9
BRANCH   1  24
ATOM     24  C   UNL A   1     -24.849   3.602  26.272  0.00  0.00    +0.075 C 
ATOM     25  N   UNL A   1     -25.128   4.058  27.218  0.00  0.00    -0.271 NA
BRANCH  25  26
ATOM     26  C   UNL A   1     -25.479   3.456  28.401  0.00  0.00    +0.148 C 
BRANCH  26  27
ATOM     27  C   UNL A   1     -25.905   4.238  29.573  0.00  0.00    +0.114 C 
BRANCH  27  28
ATOM     28  N   UNL A   1     -26.177   3.573  30.697  0.00  0.00    -0.325 N 
ATOM     29  C   UNL A   1     -26.076   2.216  30.778  0.00  0.00    +0.076 A 
ATOM     30  C   UNL A   1     -26.365   1.845  32.182  0.00  0.00    +0.020 A 
ATOM     31  C   UNL A   1     -26.238   2.929  32.934  0.00  0.00    +0.020 A 
ATOM     32  C   UNL A   1     -26.187   4.183  32.012  0.00  0.00    +0.076 A 
ENDBRANCH  27  28
BRANCH  27  33
ATOM     33  C   UNL A   1     -27.111   5.129  29.181  0.00  0.00    +0.051 C 
BRANCH  33  34
ATOM     34  C   UNL A   1     -27.688   5.644  30.029  0.00  0.00    -0.024 C 
ATOM     35  C   UNL A   1     -28.883   6.528  29.683  0.00  0.00    -0.005 C 
ENDBRANCH  33  34
ENDBRANCH  27  33
ENDBRANCH  26  27
ENDBRANCH  25  26
ENDBRANCH   1  24
TORSDOF 13
