REMARK  Name = No_1821-gen_results/8p0m/2024-11-26-14-13-15/
REMARK  4 active torsions:
REMARK  status: ('A' for Active; 'I' for Inactive)
REMARK    1  A    between atoms: P_1  and  O_2
REMARK    2  A    between atoms: O_2  and  C_6
REMARK    3  A    between atoms: C_6  and  C_7
REMARK    4  A    between atoms: C_7  and  C_8
REMARK                            x       y       z     vdW  Elec       q    Type
REMARK                         _______ _______ _______ _____ _____    ______ ____
ROOT
ATOM      1  O   UNL A   1     -27.240   0.061  28.428  0.00  0.00    -0.270 OA
ENDROOT
BRANCH   1   2
ATOM      2  P   UNL A   1     -27.951  -0.579  29.040  0.00  0.00    +0.533 P 
ATOM      3  O   UNL A   1     -29.362  -0.577  28.619  0.00  0.00    -0.222 OA
ATOM      4  O   UNL A   1     -27.493  -2.089  29.156  0.00  0.00    -0.115 OA
ATOM      5  O   UNL A   1     -27.954  -0.128  30.635  0.00  0.00    -0.115 OA
ENDBRANCH   1   2
BRANCH   1   6
ATOM      6  C   UNL A   1     -25.916   0.179  28.671  0.00  0.00    +0.158 C 
BRANCH   6   7
ATOM      7  C   UNL A   1     -25.290   1.508  28.800  0.00  0.00    +0.059 C 
BRANCH   7   8
ATOM      8  C   UNL A   1     -24.628   1.942  27.768  0.00  0.00    -0.024 C 
ATOM      9  C   UNL A   1     -25.091   2.763  26.913  0.00  0.00    -0.005 C 
ENDBRANCH   7   8
ENDBRANCH   6   7
ENDBRANCH   1   6
TORSDOF 4
