MODEL 1822
MODEL 1
REMARK VINA RESULT:    -7.536      0.000      0.000
REMARK INTER + INTRA:          -9.064
REMARK INTER:                  -8.417
REMARK INTRA:                  -0.647
REMARK UNBOUND:                -0.647
REMARK  Name = No_1822-gen_results/8p0m/2024-11-26-14-13-15/
REMARK  2 active torsions:
REMARK  status: ('A' for Active; 'I' for Inactive)
REMARK    1  A    between atoms: C_7  and  C_11
REMARK    2  A    between atoms: C_11  and  C_12
REMARK                            x       y       z     vdW  Elec       q    Type
REMARK                         _______ _______ _______ _____ _____    ______ ____
ROOT
ATOM      1  C   UNL A   1     -26.138   0.192  26.331  0.00  0.00    -0.000 A 
ATOM      2  C   UNL A   1     -25.659  -0.318  27.318  0.00  0.00    -0.000 A 
ATOM      3  C   UNL A   1     -24.373  -0.045  27.780  0.00  0.00    -0.004 A 
ATOM      4  C   UNL A   1     -23.525   0.852  27.019  0.00  0.00    -0.000 A 
ATOM      5  C   UNL A   1     -24.109   1.402  25.879  0.00  0.00    -0.000 A 
ATOM      6  C   UNL A   1     -25.333   1.079  25.508  0.00  0.00    -0.000 A 
ATOM      7  C   UNL A   1     -23.623  -0.389  29.004  0.00  0.00    -0.018 A 
ATOM      8  C   UNL A   1     -22.400  -0.155  29.350  0.00  0.00    -0.004 A 
ATOM      9  C   UNL A   1     -21.746   0.858  28.532  0.00  0.00    -0.000 A 
ATOM     10  C   UNL A   1     -22.268   1.311  27.426  0.00  0.00    -0.000 A 
ENDROOT
BRANCH   7  11
ATOM     11  C   UNL A   1     -24.408  -1.384  29.942  0.00  0.00    +0.053 C 
BRANCH  11  12
ATOM     12  C   UNL A   1     -24.662  -2.507  29.647  0.00  0.00    -0.018 A 
ATOM     13  C   UNL A   1     -25.888  -3.153  29.967  0.00  0.00    -0.004 A 
ATOM     14  C   UNL A   1     -26.244  -4.499  29.695  0.00  0.00    -0.000 A 
ATOM     15  C   UNL A   1     -25.344  -5.263  28.975  0.00  0.00    -0.000 A 
ATOM     16  C   UNL A   1     -24.115  -4.674  28.586  0.00  0.00    -0.000 A 
ATOM     17  C   UNL A   1     -23.761  -3.419  28.899  0.00  0.00    -0.004 A 
ENDBRANCH  11  12
ENDBRANCH   7  11
TORSDOF 2
ENDMDL
ENDMDL
