REMARK  Name = No_1822-gen_results/8p0m/2024-11-26-14-13-15/
REMARK  2 active torsions:
REMARK  status: ('A' for Active; 'I' for Inactive)
REMARK    1  A    between atoms: C_7  and  C_11
REMARK    2  A    between atoms: C_11  and  C_12
REMARK                            x       y       z     vdW  Elec       q    Type
REMARK                         _______ _______ _______ _____ _____    ______ ____
ROOT
ATOM      1  C   UNL A   1     -28.016  -0.814  28.878  0.00  0.00    -0.000 A 
ATOM      2  C   UNL A   1     -27.064  -0.119  28.608  0.00  0.00    -0.000 A 
ATOM      3  C   UNL A   1     -25.765  -0.390  29.036  0.00  0.00    -0.004 A 
ATOM      4  C   UNL A   1     -25.530  -1.530  29.901  0.00  0.00    -0.000 A 
ATOM      5  C   UNL A   1     -26.658  -2.292  30.203  0.00  0.00    -0.000 A 
ATOM      6  C   UNL A   1     -27.855  -1.956  29.763  0.00  0.00    -0.000 A 
ATOM      7  C   UNL A   1     -24.439   0.180  28.728  0.00  0.00    -0.018 A 
ATOM      8  C   UNL A   1     -23.267  -0.077  29.208  0.00  0.00    -0.004 A 
ATOM      9  C   UNL A   1     -23.205  -1.324  29.959  0.00  0.00    -0.000 A 
ATOM     10  C   UNL A   1     -24.272  -1.991  30.302  0.00  0.00    -0.000 A 
ENDROOT
BRANCH   7  11
ATOM     11  C   UNL A   1     -24.521   1.453  27.801  0.00  0.00    +0.053 C 
BRANCH  11  12
ATOM     12  C   UNL A   1     -24.869   2.524  28.182  0.00  0.00    -0.018 A 
ATOM     13  C   UNL A   1     -24.945   3.675  27.349  0.00  0.00    -0.004 A 
ATOM     14  C   UNL A   1     -25.300   4.992  27.738  0.00  0.00    -0.000 A 
ATOM     15  C   UNL A   1     -25.691   5.185  29.051  0.00  0.00    -0.000 A 
ATOM     16  C   UNL A   1     -25.678   4.075  29.931  0.00  0.00    -0.000 A 
ATOM     17  C   UNL A   1     -25.284   2.845  29.570  0.00  0.00    -0.004 A 
ENDBRANCH  11  12
ENDBRANCH   7  11
TORSDOF 2
