REMARK  Name = No_1823-gen_results/8p0m/2024-11-26-14-13-15/
REMARK  1 active torsions:
REMARK  status: ('A' for Active; 'I' for Inactive)
REMARK    1  A    between atoms: C_10  and  C_11
REMARK                            x       y       z     vdW  Elec       q    Type
REMARK                         _______ _______ _______ _____ _____    ______ ____
ROOT
ATOM      1  C   UNL A   1     -28.016  -0.814  28.878  0.00  0.00    +0.019 A 
ATOM      2  C   UNL A   1     -27.064  -0.119  28.608  0.00  0.00    +0.081 A 
ATOM      3  N   UNL A   1     -26.985   0.597  27.522  0.00  0.00    -0.244 NA
ATOM      4  C   UNL A   1     -27.961  -1.542  30.166  0.00  0.00    +0.002 A 
ATOM      5  C   UNL A   1     -26.781  -1.620  30.884  0.00  0.00    +0.000 A 
ATOM      6  C   UNL A   1     -25.646  -0.970  30.463  0.00  0.00    +0.002 A 
ATOM      7  C   UNL A   1     -25.756  -0.177  29.286  0.00  0.00    +0.017 A 
ATOM      8  C   UNL A   1     -25.902   0.896  26.809  0.00  0.00    +0.099 A 
ATOM      9  C   UNL A   1     -24.613   0.890  27.482  0.00  0.00    +0.020 A 
ATOM     10  C   UNL A   1     -24.542   0.337  28.708  0.00  0.00    -0.001 A 
ENDROOT
BRANCH  10  11
ATOM     11  C   UNL A   1     -23.221   0.284  29.379  0.00  0.00    -0.022 C 
ATOM     12  C   UNL A   1     -22.163  -0.423  28.901  0.00  0.00    -0.005 C 
ATOM     13  C   UNL A   1     -23.172   0.910  30.703  0.00  0.00    +0.031 C 
ENDBRANCH  10  11
TORSDOF 1
