MODEL 1823
MODEL 1
REMARK VINA RESULT:    -5.649      0.000      0.000
REMARK INTER + INTRA:          -6.134
REMARK INTER:                  -5.979
REMARK INTRA:                  -0.155
REMARK UNBOUND:                -0.155
REMARK  Name = No_1823-gen_results/8p0m/2024-11-26-14-13-15/
REMARK  1 active torsions:
REMARK  status: ('A' for Active; 'I' for Inactive)
REMARK    1  A    between atoms: C_10  and  C_11
REMARK                            x       y       z     vdW  Elec       q    Type
REMARK                         _______ _______ _______ _____ _____    ______ ____
ROOT
ATOM      1  C   UNL A   1     -23.502   1.429  26.437  0.00  0.00    +0.019 A 
ATOM      2  C   UNL A   1     -23.394   0.808  27.469  0.00  0.00    +0.081 A 
ATOM      3  N   UNL A   1     -22.380   0.933  28.278  0.00  0.00    -0.244 NA
ATOM      4  C   UNL A   1     -24.731   1.192  25.647  0.00  0.00    +0.002 A 
ATOM      5  C   UNL A   1     -25.571   0.134  25.946  0.00  0.00    +0.000 A 
ATOM      6  C   UNL A   1     -25.331  -0.684  27.024  0.00  0.00    +0.002 A 
ATOM      7  C   UNL A   1     -24.211  -0.362  27.841  0.00  0.00    +0.017 A 
ATOM      8  C   UNL A   1     -21.819   0.002  29.046  0.00  0.00    +0.099 A 
ATOM      9  C   UNL A   1     -22.632  -1.130  29.458  0.00  0.00    +0.020 A 
ATOM     10  C   UNL A   1     -23.814  -1.318  28.841  0.00  0.00    -0.001 A 
ENDROOT
BRANCH  10  11
ATOM     11  C   UNL A   1     -24.626  -2.499  29.223  0.00  0.00    -0.022 C 
ATOM     12  C   UNL A   1     -25.638  -2.454  30.129  0.00  0.00    -0.005 C 
ATOM     13  C   UNL A   1     -24.153  -3.777  28.684  0.00  0.00    +0.031 C 
ENDBRANCH  10  11
TORSDOF 1
ENDMDL
ENDMDL
