REMARK  Name = No_1824-gen_results/8p0m/2024-11-26-14-13-15/
REMARK  4 active torsions:
REMARK  status: ('A' for Active; 'I' for Inactive)
REMARK    1  A    between atoms: C_2  and  C_3
REMARK    2  A    between atoms: C_7  and  C_11
REMARK    3  A    between atoms: C_9  and  C_19
REMARK    4  A    between atoms: C_17  and  C_18
REMARK                            x       y       z     vdW  Elec       q    Type
REMARK                         _______ _______ _______ _____ _____    ______ ____
ROOT
ATOM      1  O   UNL A   1     -28.123  -1.335  28.487  0.00  0.00    -0.270 OA
ATOM      2  C   UNL A   1     -27.481  -0.404  28.709  0.00  0.00    +0.249 C 
ATOM      3  N   UNL A   1     -27.423   0.175  30.055  0.00  0.00    -0.277 N 
ATOM      4  C   UNL A   1     -28.581  -0.229  30.924  0.00  0.00    +0.094 C 
ATOM      5  C   UNL A   1     -28.216  -0.407  32.120  0.00  0.00    +0.022 C 
ATOM      6  C   UNL A   1     -27.033   0.205  32.748  0.00  0.00    +0.004 C 
ATOM      7  C   UNL A   1     -26.077   0.648  31.797  0.00  0.00    +0.020 C 
ATOM      8  C   UNL A   1     -26.294   0.556  30.506  0.00  0.00    +0.080 C 
ENDROOT
BRANCH   8   9
ATOM      9  C   UNL A   1     -26.296   1.862  30.234  0.00  0.00    +0.044 C 
ATOM     10  C   UNL A   1     -26.746   2.811  30.881  0.00  0.00    -0.025 C 
ATOM     11  C   UNL A   1     -26.785   4.228  30.287  0.00  0.00    -0.009 C 
ATOM     12  C   UNL A   1     -26.173   4.379  29.054  0.00  0.00    -0.026 C 
ATOM     13  C   UNL A   1     -26.233   5.643  28.424  0.00  0.00    -0.030 C 
ATOM     14  C   UNL A   1     -25.857   2.576  28.870  0.00  0.00    +0.032 C 
ATOM     15  C   UNL A   1     -25.855   5.603  27.088  0.00  0.00    +0.030 C 
ENDBRANCH   8   9
BRANCH   2  16
ATOM     16  C   UNL A   1     -26.380  -0.087  27.939  0.00  0.00    +0.050 A 
ATOM     17  C   UNL A   1     -26.156   0.116  26.968  0.00  0.00    +0.004 A 
ATOM     18  C   UNL A   1     -24.900   0.604  26.225  0.00  0.00    -0.002 A 
ATOM     19  C   UNL A   1     -24.030   1.055  26.984  0.00  0.00    +0.010 A 
ATOM     20  C   UNL A   1     -24.038   0.905  28.374  0.00  0.00    -0.006 A 
ATOM     21  C   UNL A   1     -25.158   0.474  28.958  0.00  0.00    -0.018 A 
BRANCH  19  22
ATOM     22  C   UNL A   1     -22.747   1.725  26.396  0.00  0.00    +0.193 C 
ATOM     23  N   UNL A   1     -21.814   2.106  27.266  0.00  0.00    -0.110 NA
ATOM     24 CL   UNL A   1     -22.764   2.265  24.821  0.00  0.00    -0.089 Cl
ENDBRANCH  19  22
BRANCH  21  25
ATOM     25  C   UNL A   1     -24.533  -0.716  29.700  0.00  0.00    +0.026 C 
ATOM     26  C   UNL A   1     -24.299  -1.980  29.128  0.00  0.00    +0.005 C 
ENDBRANCH  21  25
ENDBRANCH   2  16
TORSDOF 4
