MODEL 1824
MODEL 1
REMARK VINA RESULT:    -6.447      0.000      0.000
REMARK INTER + INTRA:          -9.420
REMARK INTER:                  -7.955
REMARK INTRA:                  -1.465
REMARK UNBOUND:                -1.465
REMARK  Name = No_1824-gen_results/8p0m/2024-11-26-14-13-15/
REMARK  4 active torsions:
REMARK  status: ('A' for Active; 'I' for Inactive)
REMARK    1  A    between atoms: C_2  and  C_3
REMARK    2  A    between atoms: C_7  and  C_11
REMARK    3  A    between atoms: C_9  and  C_19
REMARK    4  A    between atoms: C_17  and  C_18
REMARK                            x       y       z     vdW  Elec       q    Type
REMARK                         _______ _______ _______ _____ _____    ______ ____
ROOT
ATOM      1  O   UNL A   1     -24.989  -1.178  28.042  0.00  0.00    -0.270 OA
ATOM      2  C   UNL A   1     -25.014  -0.153  27.518  0.00  0.00    +0.249 C 
ATOM      3  N   UNL A   1     -23.880   0.773  27.606  0.00  0.00    -0.277 N 
ATOM      4  C   UNL A   1     -22.970   0.486  28.767  0.00  0.00    +0.094 C 
ATOM      5  C   UNL A   1     -21.761   0.684  28.461  0.00  0.00    +0.022 C 
ATOM      6  C   UNL A   1     -21.290   1.580  27.392  0.00  0.00    +0.004 C 
ATOM      7  C   UNL A   1     -22.297   1.859  26.430  0.00  0.00    +0.020 C 
ATOM      8  C   UNL A   1     -23.518   1.394  26.555  0.00  0.00    +0.080 C 
ENDROOT
BRANCH   8   9
ATOM      9  C   UNL A   1     -24.141   2.567  26.678  0.00  0.00    +0.044 C 
ATOM     10  C   UNL A   1     -24.403   3.424  25.830  0.00  0.00    -0.025 C 
ATOM     11  C   UNL A   1     -24.985   4.787  26.235  0.00  0.00    -0.009 C 
ATOM     12  C   UNL A   1     -25.308   4.929  27.574  0.00  0.00    -0.026 C 
ATOM     13  C   UNL A   1     -25.785   6.181  28.022  0.00  0.00    -0.030 C 
ATOM     14  C   UNL A   1     -24.587   3.299  28.030  0.00  0.00    +0.032 C 
ATOM     15  C   UNL A   1     -25.793   6.297  29.407  0.00  0.00    +0.030 C 
ENDBRANCH   8   9
BRANCH   2  16
ATOM     16  C   UNL A   1     -25.807   0.072  26.410  0.00  0.00    +0.050 A 
ATOM     17  C   UNL A   1     -25.777  -0.071  25.404  0.00  0.00    +0.004 A 
ATOM     18  C   UNL A   1     -26.789   0.089  24.256  0.00  0.00    -0.002 A 
ATOM     19  C   UNL A   1     -27.958   0.212  24.651  0.00  0.00    +0.010 A 
ATOM     20  C   UNL A   1     -28.322   0.456  25.979  0.00  0.00    -0.006 A 
ATOM     21  C   UNL A   1     -27.396   0.303  26.928  0.00  0.00    -0.018 A 
BRANCH  19  22
ATOM     22  C   UNL A   1     -29.134   0.243  23.624  0.00  0.00    +0.193 C 
ATOM     23  N   UNL A   1     -29.644   1.437  23.329  0.00  0.00    -0.110 NA
ATOM     24 CL   UNL A   1     -29.923  -1.175  23.252  0.00  0.00    -0.089 Cl
ENDBRANCH  19  22
BRANCH  21  25
ATOM     25  C   UNL A   1     -27.529   1.704  27.542  0.00  0.00    +0.026 C 
ATOM     26  C   UNL A   1     -28.199   2.782  26.935  0.00  0.00    +0.005 C 
ENDBRANCH  21  25
ENDBRANCH   2  16
TORSDOF 4
ENDMDL
ENDMDL
