MODEL 1825
MODEL 1
REMARK VINA RESULT:    -4.085      0.000      0.000
REMARK INTER + INTRA:          -4.624
REMARK INTER:                  -4.563
REMARK INTRA:                  -0.061
REMARK UNBOUND:                -0.061
REMARK  Name = No_1825-gen_results/8p0m/2024-11-26-14-13-15/
REMARK  2 active torsions:
REMARK  status: ('A' for Active; 'I' for Inactive)
REMARK    1  A    between atoms: C_2  and  C_4
REMARK    2  A    between atoms: C_4  and  N_6
REMARK                            x       y       z     vdW  Elec       q    Type
REMARK                         _______ _______ _______ _____ _____    ______ ____
ROOT
ATOM      1 CL   UNL A   1      -7.585 -10.069  20.583  0.00  0.00    -0.045 Cl
ATOM      2  C   UNL A   1      -8.263  -9.091  19.921  0.00  0.00    +0.346 C 
ATOM      3  F   UNL A   1      -7.781  -7.990  19.982  0.00  0.00    -0.185 F 
ATOM      4  F   UNL A   1      -9.494  -8.960  20.569  0.00  0.00    -0.185 F 
ENDROOT
BRANCH   2   5
ATOM      5  C   UNL A   1      -8.632  -9.412  18.492  0.00  0.00    +0.172 C 
BRANCH   5   6
ATOM      6  N   UNL A   1      -9.788  -9.438  18.174  0.00  0.00    -0.210 NA
ATOM      7  C   UNL A   1     -10.332 -10.297  17.622  0.00  0.00    +0.108 C 
ENDBRANCH   5   6
ENDBRANCH   2   5
TORSDOF 2
ENDMDL
ENDMDL
