REMARK  Name = No_1825-gen_results/8p0m/2024-11-26-14-13-15/
REMARK  2 active torsions:
REMARK  status: ('A' for Active; 'I' for Inactive)
REMARK    1  A    between atoms: C_2  and  C_4
REMARK    2  A    between atoms: C_4  and  N_6
REMARK                            x       y       z     vdW  Elec       q    Type
REMARK                         _______ _______ _______ _____ _____    ______ ____
ROOT
ATOM      1 CL   UNL A   1     -28.149  -0.820  28.908  0.00  0.00    -0.045 Cl
ATOM      2  C   UNL A   1     -27.834   0.496  29.060  0.00  0.00    +0.346 C 
ATOM      3  F   UNL A   1     -27.790   1.142  28.045  0.00  0.00    -0.185 F 
ATOM      4  F   UNL A   1     -26.523   0.532  29.543  0.00  0.00    -0.185 F 
ENDROOT
BRANCH   2   5
ATOM      5  C   UNL A   1     -28.632   1.237  30.107  0.00  0.00    +0.172 C 
BRANCH   5   6
ATOM      6  N   UNL A   1     -29.765   0.911  30.323  0.00  0.00    -0.210 NA
ATOM      7  C   UNL A   1     -30.375   0.114  29.747  0.00  0.00    +0.108 C 
ENDBRANCH   5   6
ENDBRANCH   2   5
TORSDOF 2
