MODEL 1826
MODEL 1
REMARK VINA RESULT:    -7.587      0.000      0.000
REMARK INTER + INTRA:         -11.094
REMARK INTER:                  -9.804
REMARK INTRA:                  -1.289
REMARK UNBOUND:                -1.289
REMARK  Name = No_1826-gen_results/8p0m/2024-11-26-14-13-15/
REMARK  5 active torsions:
REMARK  status: ('A' for Active; 'I' for Inactive)
REMARK    1  A    between atoms: C_3  and  N_4
REMARK    2  A    between atoms: C_6  and  C_26
REMARK    3  A    between atoms: C_8  and  N_19
REMARK    4  A    between atoms: C_10  and  N_11
REMARK    5  A    between atoms: C_24  and  C_25
REMARK                            x       y       z     vdW  Elec       q    Type
REMARK                         _______ _______ _______ _____ _____    ______ ____
ROOT
ATOM      1  N   UNL A   1      -9.409   2.499  35.925  0.00  0.00    -0.284 N 
ATOM      2  C   UNL A   1      -8.579   3.426  35.623  0.00  0.00    +0.135 C 
ATOM      3  C   UNL A   1      -7.318   3.428  36.284  0.00  0.00    +0.037 C 
ATOM      4  C   UNL A   1      -8.975   1.614  36.953  0.00  0.00    +0.135 C 
ATOM      5  C   UNL A   1      -7.066   2.695  37.469  0.00  0.00    +0.006 C 
ATOM      6  C   UNL A   1      -8.052   1.828  37.850  0.00  0.00    +0.037 C 
ENDROOT
BRANCH   1   9
ATOM      7  C   UNL A   1     -10.803   1.500  34.082  0.00  0.00    +0.015 A 
ATOM      8  C   UNL A   1     -11.775   1.304  33.726  0.00  0.00    +0.001 A 
ATOM      9  C   UNL A   1     -10.676   2.250  35.272  0.00  0.00    +0.050 A 
ATOM     10  C   UNL A   1     -13.081   1.705  34.257  0.00  0.00    +0.000 A 
ATOM     11  C   UNL A   1     -13.025   2.446  35.427  0.00  0.00    +0.001 A 
ATOM     12  C   UNL A   1     -11.783   2.707  36.010  0.00  0.00    +0.015 A 
BRANCH  11  13
ATOM     13  C   UNL A   1     -14.293   2.911  36.089  0.00  0.00    +0.000 A 
ATOM     14  C   UNL A   1     -15.309   3.401  35.583  0.00  0.00    +0.000 A 
ATOM     15  C   UNL A   1     -16.461   3.904  36.305  0.00  0.00    +0.000 A 
ATOM     16  C   UNL A   1     -16.440   3.836  37.712  0.00  0.00    +0.000 A 
ATOM     17  C   UNL A   1     -15.308   3.335  38.313  0.00  0.00    +0.000 A 
ATOM     18  C   UNL A   1     -14.225   2.920  37.590  0.00  0.00    +0.000 A 
ENDBRANCH  11  13
ENDBRANCH   1   9
BRANCH   4  19
ATOM     19  N   UNL A   1      -9.977   0.604  37.301  0.00  0.00    -0.258 NA
ATOM     20  C   UNL A   1      -9.945  -0.610  36.769  0.00  0.00    +0.073 C 
ATOM     21  C   UNL A   1     -10.841   0.784  38.426  0.00  0.00    +0.073 C 
ATOM     22  C   UNL A   1     -11.350   0.180  39.047  0.00  0.00    +0.017 C 
ATOM     23  C   UNL A   1     -11.566  -1.213  38.548  0.00  0.00    +0.003 C 
ATOM     24  C   UNL A   1     -10.765  -1.578  37.477  0.00  0.00    +0.017 C 
ENDBRANCH   4  19
BRANCH   2  25
ATOM     25  N   UNL A   1      -8.724   4.156  34.512  0.00  0.00    -0.258 NA
ATOM     26  C   UNL A   1      -8.072   3.769  33.355  0.00  0.00    +0.074 C 
ATOM     27  C   UNL A   1      -8.162   4.681  32.226  0.00  0.00    +0.026 C 
ATOM     28  C   UNL A   1      -9.554   5.192  34.416  0.00  0.00    +0.074 C 
ATOM     29  C   UNL A   1      -9.599   6.114  33.388  0.00  0.00    +0.026 C 
ATOM     30  C   UNL A   1      -8.740   5.562  32.401  0.00  0.00    +0.081 C 
BRANCH  30  31
ATOM     31  C   UNL A   1      -8.805   6.726  31.338  0.00  0.00    +0.241 C 
ATOM     32  O   UNL A   1      -8.265   7.060  30.443  0.00  0.00    -0.273 OA
ATOM     33  N   UNL A   1     -10.083   7.625  31.512  0.00  0.00    -0.203 NA
ATOM     34  C   UNL A   1     -10.333   8.711  30.657  0.00  0.00    +0.139 C 
ENDBRANCH  30  31
ENDBRANCH   2  25
TORSDOF 5
ENDMDL
ENDMDL
