REMARK  Name = No_1826-gen_results/8p0m/2024-11-26-14-13-15/
REMARK  5 active torsions:
REMARK  status: ('A' for Active; 'I' for Inactive)
REMARK    1  A    between atoms: C_3  and  N_4
REMARK    2  A    between atoms: C_6  and  C_26
REMARK    3  A    between atoms: C_8  and  N_19
REMARK    4  A    between atoms: C_10  and  N_11
REMARK    5  A    between atoms: C_24  and  C_25
REMARK                            x       y       z     vdW  Elec       q    Type
REMARK                         _______ _______ _______ _____ _____    ______ ____
ROOT
ATOM      1  N   UNL A   1     -26.369   0.264  27.309  0.00  0.00    -0.284 N 
ATOM      2  C   UNL A   1     -26.793   0.661  26.168  0.00  0.00    +0.135 C 
ATOM      3  C   UNL A   1     -25.938   0.482  25.043  0.00  0.00    +0.037 C 
ATOM      4  C   UNL A   1     -25.042  -0.254  27.310  0.00  0.00    +0.135 C 
ATOM      5  C   UNL A   1     -24.552   0.216  25.162  0.00  0.00    +0.006 C 
ATOM      6  C   UNL A   1     -24.105  -0.046  26.427  0.00  0.00    +0.037 C 
ENDROOT
BRANCH   1   9
ATOM      7  C   UNL A   1     -28.016  -0.814  28.878  0.00  0.00    +0.015 A 
ATOM      8  C   UNL A   1     -28.469  -0.785  29.829  0.00  0.00    +0.001 A 
ATOM      9  C   UNL A   1     -27.136   0.236  28.535  0.00  0.00    +0.050 A 
ATOM     10  C   UNL A   1     -28.360   0.205  30.904  0.00  0.00    +0.000 A 
ATOM     11  C   UNL A   1     -27.509   1.264  30.629  0.00  0.00    +0.001 A 
ATOM     12  C   UNL A   1     -26.816   1.285  29.417  0.00  0.00    +0.015 A 
BRANCH  11  13
ATOM     13  C   UNL A   1     -27.293   2.346  31.651  0.00  0.00    +0.000 A 
ATOM     14  C   UNL A   1     -26.936   3.519  31.489  0.00  0.00    +0.000 A 
ATOM     15  C   UNL A   1     -26.669   4.479  32.542  0.00  0.00    +0.000 A 
ATOM     16  C   UNL A   1     -26.825   4.057  33.877  0.00  0.00    +0.000 A 
ATOM     17  C   UNL A   1     -27.180   2.746  34.097  0.00  0.00    +0.000 A 
ATOM     18  C   UNL A   1     -27.372   1.863  33.071  0.00  0.00    +0.000 A 
ENDBRANCH  11  13
ENDBRANCH   1   9
BRANCH   4  19
ATOM     19  N   UNL A   1     -24.582  -0.646  28.644  0.00  0.00    -0.258 NA
ATOM     20  C   UNL A   1     -24.600  -1.913  29.035  0.00  0.00    +0.073 C 
ATOM     21  C   UNL A   1     -23.834   0.261  29.459  0.00  0.00    +0.073 C 
ATOM     22  C   UNL A   1     -23.167   0.176  30.205  0.00  0.00    +0.017 C 
ATOM     23  C   UNL A   1     -23.145  -1.151  30.895  0.00  0.00    +0.003 C 
ATOM     24  C   UNL A   1     -23.790  -2.171  30.213  0.00  0.00    +0.017 C 
ENDBRANCH   4  19
BRANCH   2  25
ATOM     25  N   UNL A   1     -28.089   0.915  25.956  0.00  0.00    -0.258 NA
ATOM     26  C   UNL A   1     -28.709   1.924  26.669  0.00  0.00    +0.074 C 
ATOM     27  C   UNL A   1     -30.147   2.054  26.489  0.00  0.00    +0.026 C 
ATOM     28  C   UNL A   1     -28.809   0.318  25.009  0.00  0.00    +0.074 C 
ATOM     29  C   UNL A   1     -30.183   0.366  24.871  0.00  0.00    +0.026 C 
ATOM     30  C   UNL A   1     -30.582   1.357  25.807  0.00  0.00    +0.081 C 
BRANCH  30  31
ATOM     31  C   UNL A   1     -32.145   1.258  25.620  0.00  0.00    +0.241 C 
ATOM     32  O   UNL A   1     -32.868   0.833  24.912  0.00  0.00    -0.273 OA
ATOM     33  N   UNL A   1     -32.934   1.821  26.858  0.00  0.00    -0.203 NA
ATOM     34  C   UNL A   1     -34.338   1.814  26.893  0.00  0.00    +0.139 C 
ENDBRANCH  30  31
ENDBRANCH   2  25
TORSDOF 5
