MODEL 1828
MODEL 1
REMARK VINA RESULT:    -6.941      0.000      0.000
REMARK INTER + INTRA:          -9.234
REMARK INTER:                  -8.564
REMARK INTRA:                  -0.670
REMARK UNBOUND:                -0.670
REMARK  Name = No_1828-gen_results/8p0m/2024-11-26-14-13-15/
REMARK  4 active torsions:
REMARK  status: ('A' for Active; 'I' for Inactive)
REMARK    1  A    between atoms: C_2  and  N_9
REMARK    2  A    between atoms: N_9  and  C_10
REMARK    3  A    between atoms: N_9  and  C_13
REMARK    4  A    between atoms: C_10  and  C_12
REMARK                            x       y       z     vdW  Elec       q    Type
REMARK                         _______ _______ _______ _____ _____    ______ ____
ROOT
ATOM      1  N   UNL A   1     -24.937  -0.969  29.003  0.00  0.00    -0.282 N 
ENDROOT
BRANCH   1   3
ATOM      2  C   UNL A   1     -26.478  -2.548  29.703  0.00  0.00    +0.029 A 
ATOM      3  C   UNL A   1     -25.393  -2.295  29.234  0.00  0.00    +0.081 A 
ATOM      4  C   UNL A   1     -24.465  -3.270  28.867  0.00  0.00    +0.154 A 
ATOM      5  C   UNL A   1     -24.776  -4.666  29.107  0.00  0.00    +0.032 A 
ATOM      6  C   UNL A   1     -26.056  -4.883  29.665  0.00  0.00    +0.014 A 
ATOM      7  C   UNL A   1     -26.859  -3.900  29.984  0.00  0.00    +0.059 A 
ATOM      8 CL   UNL A   1     -28.345  -4.313  30.720  0.00  0.00    -0.082 Cl
ATOM      9  F   UNL A   1     -23.226  -2.838  28.486  0.00  0.00    -0.203 F 
ENDBRANCH   1   3
BRANCH   1  10
ATOM     10  C   UNL A   1     -25.650  -0.399  27.943  0.00  0.00    +0.061 C 
ATOM     11  C   UNL A   1     -25.354  -0.496  26.608  0.00  0.00    -0.010 C 
ATOM     12  C   UNL A   1     -26.135   0.076  25.649  0.00  0.00    +0.032 C 
ENDBRANCH   1  10
BRANCH   1  13
ATOM     13  C   UNL A   1     -24.320  -0.184  29.910  0.00  0.00    +0.100 C 
ATOM     14  C   UNL A   1     -24.131  -0.521  31.058  0.00  0.00    +0.027 C 
BRANCH  13  15
ATOM     15  C   UNL A   1     -23.058   0.261  29.214  0.00  0.00    -0.004 A 
ATOM     16  C   UNL A   1     -21.914  -0.377  29.342  0.00  0.00    -0.003 A 
ATOM     17  C   UNL A   1     -20.821  -0.060  28.518  0.00  0.00    -0.000 A 
ATOM     18  C   UNL A   1     -20.830   1.078  27.769  0.00  0.00    -0.000 A 
ATOM     19  C   UNL A   1     -22.008   1.872  27.691  0.00  0.00    -0.000 A 
ATOM     20  C   UNL A   1     -23.120   1.475  28.381  0.00  0.00    -0.003 A 
ENDBRANCH  13  15
ENDBRANCH   1  13
TORSDOF 4
ENDMDL
ENDMDL
