REMARK  Name = No_1828-gen_results/8p0m/2024-11-26-14-13-15/
REMARK  4 active torsions:
REMARK  status: ('A' for Active; 'I' for Inactive)
REMARK    1  A    between atoms: C_2  and  N_9
REMARK    2  A    between atoms: N_9  and  C_10
REMARK    3  A    between atoms: N_9  and  C_13
REMARK    4  A    between atoms: C_10  and  C_12
REMARK                            x       y       z     vdW  Elec       q    Type
REMARK                         _______ _______ _______ _____ _____    ______ ____
ROOT
ATOM      1  N   UNL A   1     -27.163   1.060  27.820  0.00  0.00    -0.282 N 
ENDROOT
BRANCH   1   3
ATOM      2  C   UNL A   1     -28.016  -0.814  28.878  0.00  0.00    +0.029 A 
ATOM      3  C   UNL A   1     -27.064  -0.119  28.608  0.00  0.00    +0.081 A 
ATOM      4  C   UNL A   1     -25.765  -0.390  29.036  0.00  0.00    +0.154 A 
ATOM      5  C   UNL A   1     -25.530  -1.530  29.901  0.00  0.00    +0.032 A 
ATOM      6  C   UNL A   1     -26.689  -2.289  30.181  0.00  0.00    +0.014 A 
ATOM      7  C   UNL A   1     -27.873  -1.951  29.737  0.00  0.00    +0.059 A 
ATOM      8 CL   UNL A   1     -29.194  -2.923  30.219  0.00  0.00    -0.082 Cl
ATOM      9  F   UNL A   1     -24.814   0.557  28.778  0.00  0.00    -0.203 F 
ENDBRANCH   1   3
BRANCH   1  10
ATOM     10  C   UNL A   1     -27.416   2.162  28.643  0.00  0.00    +0.061 C 
ATOM     11  C   UNL A   1     -26.500   3.077  29.096  0.00  0.00    -0.010 C 
ATOM     12  C   UNL A   1     -26.858   4.137  29.874  0.00  0.00    +0.032 C 
ENDBRANCH   1  10
BRANCH   1  13
ATOM     13  C   UNL A   1     -26.621   1.232  26.597  0.00  0.00    +0.100 C 
ATOM     14  C   UNL A   1     -25.615   0.664  26.233  0.00  0.00    +0.027 C 
BRANCH  13  15
ATOM     15  C   UNL A   1     -27.779   1.040  25.650  0.00  0.00    -0.004 A 
ATOM     16  C   UNL A   1     -27.733   0.207  24.632  0.00  0.00    -0.003 A 
ATOM     17  C   UNL A   1     -28.895  -0.100  23.904  0.00  0.00    -0.000 A 
ATOM     18  C   UNL A   1     -30.021   0.651  24.056  0.00  0.00    -0.000 A 
ATOM     19  C   UNL A   1     -30.082   1.650  25.067  0.00  0.00    -0.000 A 
ATOM     20  C   UNL A   1     -28.994   1.843  25.873  0.00  0.00    -0.003 A 
ENDBRANCH  13  15
ENDBRANCH   1  13
TORSDOF 4
