REMARK  Name = No_1829-gen_results/8p0m/2024-11-26-14-13-15/
REMARK  4 active torsions:
REMARK  status: ('A' for Active; 'I' for Inactive)
REMARK    1  A    between atoms: C_1  and  C_2
REMARK    2  A    between atoms: C_1  and  C_8
REMARK    3  A    between atoms: C_3  and  C_26
REMARK    4  A    between atoms: C_5  and  C_10
REMARK                            x       y       z     vdW  Elec       q    Type
REMARK                         _______ _______ _______ _____ _____    ______ ____
ROOT
ATOM      1  C   UNL A   1     -27.064  -0.119  28.608  0.00  0.00    -0.022 A 
ATOM      2  C   UNL A   1     -27.001   0.691  27.491  0.00  0.00    -0.004 A 
ATOM      3  C   UNL A   1     -25.855   1.482  27.083  0.00  0.00    +0.004 A 
ATOM      4  C   UNL A   1     -24.690   1.453  27.881  0.00  0.00    +0.071 A 
ATOM      5  C   UNL A   1     -24.738   0.601  29.042  0.00  0.00    +0.004 A 
ATOM      6  C   UNL A   1     -25.823  -0.169  29.389  0.00  0.00    -0.004 A 
ENDROOT
BRANCH   2   7
ATOM      7  C   UNL A   1     -28.141   0.761  26.523  0.00  0.00    -0.000 A 
ATOM      8  C   UNL A   1     -28.722   0.068  25.839  0.00  0.00    -0.000 A 
ATOM      9  C   UNL A   1     -29.889   0.266  25.078  0.00  0.00    -0.000 A 
ATOM     10  C   UNL A   1     -30.280   1.571  24.882  0.00  0.00    -0.000 A 
ATOM     11  C   UNL A   1     -28.529   2.292  26.381  0.00  0.00    -0.000 A 
ATOM     12  C   UNL A   1     -29.554   2.615  25.544  0.00  0.00    -0.000 A 
ENDBRANCH   2   7
BRANCH   4  13
ATOM     13  C   UNL A   1     -23.515   2.199  27.548  0.00  0.00    +0.419 C 
ATOM     14  F   UNL A   1     -22.756   1.714  26.999  0.00  0.00    -0.166 F 
ATOM     15  F   UNL A   1     -22.958   2.717  28.750  0.00  0.00    -0.166 F 
ATOM     16  F   UNL A   1     -23.954   3.380  26.964  0.00  0.00    -0.166 F 
ENDBRANCH   4  13
BRANCH   1  17
ATOM     17  C   UNL A   1     -28.016  -0.814  28.878  0.00  0.00    +0.027 C 
BRANCH  17  18
ATOM     18  C   UNL A   1     -28.735  -0.464  30.142  0.00  0.00    +0.008 C 
ATOM     19  C   UNL A   1     -29.811  -1.305  30.601  0.00  0.00    +0.005 C 
ATOM     20  C   UNL A   1     -30.846  -1.358  30.453  0.00  0.00    +0.026 C 
ATOM     21  C   UNL A   1     -31.455  -0.281  29.644  0.00  0.00    -0.026 A 
ATOM     22  C   UNL A   1     -32.669  -0.395  29.090  0.00  0.00    -0.005 A 
ATOM     23  C   UNL A   1     -33.174   0.612  28.254  0.00  0.00    -0.000 A 
ATOM     24  C   UNL A   1     -32.465   1.408  27.873  0.00  0.00    -0.000 A 
ATOM     25  C   UNL A   1     -31.122   1.690  28.264  0.00  0.00    -0.005 A 
ATOM     26  C   UNL A   1     -30.631   0.749  29.152  0.00  0.00    -0.026 A 
ATOM     27  C   UNL A   1     -29.192   0.867  30.307  0.00  0.00    +0.022 C 
ATOM     28  C   UNL A   1     -27.738  -0.149  31.383  0.00  0.00    +0.001 C 
ATOM     29  C   UNL A   1     -27.807   0.876  32.187  0.00  0.00    +0.000 C 
ATOM     30  C   UNL A   1     -28.990   2.003  30.847  0.00  0.00    +0.004 C 
ATOM     31  C   UNL A   1     -28.266   2.050  31.907  0.00  0.00    +0.000 C 
ENDBRANCH  17  18
ENDBRANCH   1  17
TORSDOF 4
