MODEL 1829
MODEL 1
REMARK VINA RESULT:    -8.722      0.000      0.000
REMARK INTER + INTRA:         -14.034
REMARK INTER:                 -10.762
REMARK INTRA:                  -3.273
REMARK UNBOUND:                -3.273
REMARK  Name = No_1829-gen_results/8p0m/2024-11-26-14-13-15/
REMARK  4 active torsions:
REMARK  status: ('A' for Active; 'I' for Inactive)
REMARK    1  A    between atoms: C_1  and  C_2
REMARK    2  A    between atoms: C_1  and  C_8
REMARK    3  A    between atoms: C_3  and  C_26
REMARK    4  A    between atoms: C_5  and  C_10
REMARK                            x       y       z     vdW  Elec       q    Type
REMARK                         _______ _______ _______ _____ _____    ______ ____
ROOT
ATOM      1  C   UNL A   1     -25.525   0.431  31.848  0.00  0.00    -0.022 A 
ATOM      2  C   UNL A   1     -24.542   1.269  31.360  0.00  0.00    -0.004 A 
ATOM      3  C   UNL A   1     -24.345   2.655  31.743  0.00  0.00    +0.004 A 
ATOM      4  C   UNL A   1     -25.224   3.231  32.686  0.00  0.00    +0.071 A 
ATOM      5  C   UNL A   1     -26.246   2.363  33.213  0.00  0.00    +0.004 A 
ATOM      6  C   UNL A   1     -26.391   1.042  32.863  0.00  0.00    -0.004 A 
ENDROOT
BRANCH   2   7
ATOM      7  C   UNL A   1     -23.503   0.767  30.406  0.00  0.00    -0.000 A 
ATOM      8  C   UNL A   1     -22.662   0.007  30.385  0.00  0.00    -0.000 A 
ATOM      9  C   UNL A   1     -21.846  -0.457  29.337  0.00  0.00    -0.000 A 
ATOM     10  C   UNL A   1     -21.841   0.294  28.184  0.00  0.00    -0.000 A 
ATOM     11  C   UNL A   1     -23.591   1.677  29.111  0.00  0.00    -0.000 A 
ATOM     12  C   UNL A   1     -22.734   1.412  28.086  0.00  0.00    -0.000 A 
ENDBRANCH   2   7
BRANCH   4  13
ATOM     13  C   UNL A   1     -25.097   4.589  33.121  0.00  0.00    +0.419 C 
ATOM     14  F   UNL A   1     -25.668   5.326  32.628  0.00  0.00    -0.166 F 
ATOM     15  F   UNL A   1     -23.723   4.951  33.062  0.00  0.00    -0.166 F 
ATOM     16  F   UNL A   1     -25.278   4.576  34.498  0.00  0.00    -0.166 F 
ENDBRANCH   4  13
BRANCH   1  17
ATOM     17  C   UNL A   1     -25.616  -0.738  31.552  0.00  0.00    +0.027 C 
BRANCH  17  18
ATOM     18  C   UNL A   1     -26.613  -1.060  30.485  0.00  0.00    +0.008 C 
ATOM     19  C   UNL A   1     -27.491  -2.190  30.654  0.00  0.00    +0.005 C 
ATOM     20  C   UNL A   1     -27.461  -3.212  30.430  0.00  0.00    +0.026 C 
ATOM     21  C   UNL A   1     -26.286  -3.689  29.670  0.00  0.00    -0.026 A 
ATOM     22  C   UNL A   1     -25.940  -4.981  29.613  0.00  0.00    -0.005 A 
ATOM     23  C   UNL A   1     -24.767  -5.383  28.957  0.00  0.00    -0.000 A 
ATOM     24  C   UNL A   1     -24.005  -4.594  28.675  0.00  0.00    -0.000 A 
ATOM     25  C   UNL A   1     -24.119  -3.172  28.701  0.00  0.00    -0.005 A 
ATOM     26  C   UNL A   1     -25.308  -2.756  29.274  0.00  0.00    -0.026 A 
ATOM     27  C   UNL A   1     -26.163  -1.122  29.143  0.00  0.00    +0.022 C 
ATOM     28  C   UNL A   1     -27.483   0.224  30.009  0.00  0.00    +0.001 C 
ATOM     29  C   UNL A   1     -27.711   0.588  28.777  0.00  0.00    +0.000 C 
ATOM     30  C   UNL A   1     -26.087  -0.531  28.017  0.00  0.00    +0.004 C 
ATOM     31  C   UNL A   1     -26.944   0.390  27.757  0.00  0.00    +0.000 C 
ENDBRANCH  17  18
ENDBRANCH   1  17
TORSDOF 4
ENDMDL
ENDMDL
