MODEL 182
MODEL 1
REMARK VINA RESULT:    -7.395      0.000      0.000
REMARK INTER + INTRA:         -15.522
REMARK INTER:                 -13.016
REMARK INTRA:                  -2.507
REMARK UNBOUND:                -2.507
REMARK  Name = No_182-gen_results/8p0m/2024-11-26-14-13-15/
REMARK  13 active torsions:
REMARK  status: ('A' for Active; 'I' for Inactive)
REMARK    1  A    between atoms: C_2  and  C_20
REMARK    2  A    between atoms: C_4  and  C_7
REMARK    3  A    between atoms: C_7  and  C_8
REMARK    4  A    between atoms: C_8  and  C_9
REMARK    5  A    between atoms: C_10  and  C_11
REMARK    6  A    between atoms: C_12  and  C_13
REMARK    7  A    between atoms: C_13  and  C_14
REMARK    8  A    between atoms: C_13  and  C_24
REMARK    9  A    between atoms: N_25  and  C_26
REMARK   10  A    between atoms: C_26  and  C_27
REMARK   11  A    between atoms: C_27  and  N_28
REMARK   12  A    between atoms: C_27  and  C_33
REMARK   13  A    between atoms: C_33  and  C_34
REMARK                            x       y       z     vdW  Elec       q    Type
REMARK                         _______ _______ _______ _____ _____    ______ ____
ROOT
ATOM      1  C   UNL A   1     -25.294   0.274  27.015  0.00  0.00    +0.085 C 
ENDROOT
BRANCH   1   2
ATOM      2  C   UNL A   1     -24.086   0.903  27.118  0.00  0.00    -0.013 A 
ATOM      3  C   UNL A   1     -23.579   1.762  26.144  0.00  0.00    -0.004 A 
ATOM      4  C   UNL A   1     -22.244   2.217  26.349  0.00  0.00    -0.000 A 
ATOM      5  C   UNL A   1     -21.445   1.588  27.326  0.00  0.00    -0.000 A 
ATOM      6  C   UNL A   1     -21.920   0.702  28.283  0.00  0.00    -0.000 A 
ATOM      7  C   UNL A   1     -23.248   0.248  28.147  0.00  0.00    -0.004 A 
ENDBRANCH   1   2
BRANCH   1   9
ATOM      8  C   UNL A   1     -26.201  -0.444  24.983  0.00  0.00    -0.004 C 
ATOM      9  C   UNL A   1     -25.456  -0.715  26.059  0.00  0.00    -0.016 C 
BRANCH   8  11
ATOM     10  C   UNL A   1     -27.717   1.023  24.106  0.00  0.00    -0.026 C 
ATOM     11  C   UNL A   1     -26.868   0.811  24.681  0.00  0.00    -0.005 C 
BRANCH  10  12
ATOM     12  C   UNL A   1     -28.556   1.985  23.757  0.00  0.00    +0.026 C 
ATOM     13  C   UNL A   1     -28.251   3.260  24.490  0.00  0.00    +0.005 C 
BRANCH  12  14
ATOM     14  C   UNL A   1     -29.905   1.798  23.429  0.00  0.00    +0.031 C 
BRANCH  14  18
ATOM     15  C   UNL A   1     -31.166  -1.815  23.771  0.00  0.00    +0.006 A 
ATOM     16  C   UNL A   1     -31.659  -1.695  24.695  0.00  0.00    +0.080 A 
ATOM     17  C   UNL A   1     -30.546  -0.611  23.196  0.00  0.00    -0.004 A 
ATOM     18  C   UNL A   1     -30.503   0.607  23.935  0.00  0.00    -0.022 A 
ATOM     19  C   UNL A   1     -31.712  -0.579  25.678  0.00  0.00    +0.006 A 
ATOM     20  C   UNL A   1     -31.155   0.559  25.175  0.00  0.00    -0.004 A 
BRANCH  16  21
ATOM     21  C   UNL A   1     -32.363  -3.042  25.306  0.00  0.00    +0.388 C 
ATOM     22  O   UNL A   1     -31.666  -3.607  26.028  0.00  0.00    -0.241 OA
ATOM     23  O   UNL A   1     -33.342  -3.594  24.708  0.00  0.00    -0.241 OA
ENDBRANCH  16  21
ENDBRANCH  14  18
ENDBRANCH  12  14
ENDBRANCH  10  12
ENDBRANCH   8  11
ENDBRANCH   1   9
BRANCH   1  24
ATOM     24  C   UNL A   1     -26.394   0.625  27.907  0.00  0.00    +0.075 C 
ATOM     25  N   UNL A   1     -26.839   0.136  28.770  0.00  0.00    -0.271 NA
BRANCH  25  26
ATOM     26  C   UNL A   1     -26.679  -1.153  29.214  0.00  0.00    +0.148 C 
BRANCH  26  27
ATOM     27  C   UNL A   1     -25.401  -1.632  29.764  0.00  0.00    +0.114 C 
BRANCH  27  28
ATOM     28  N   UNL A   1     -25.074  -2.908  29.555  0.00  0.00    -0.325 N 
ATOM     29  C   UNL A   1     -25.991  -3.913  29.639  0.00  0.00    +0.076 A 
ATOM     30  C   UNL A   1     -25.294  -5.165  29.263  0.00  0.00    +0.020 A 
ATOM     31  C   UNL A   1     -24.180  -4.845  28.620  0.00  0.00    +0.020 A 
ATOM     32  C   UNL A   1     -23.891  -3.329  28.830  0.00  0.00    +0.076 A 
ENDBRANCH  27  28
BRANCH  27  33
ATOM     33  C   UNL A   1     -25.347  -1.314  31.280  0.00  0.00    +0.051 C 
BRANCH  33  34
ATOM     34  C   UNL A   1     -24.495  -0.640  31.651  0.00  0.00    -0.024 C 
ATOM     35  C   UNL A   1     -24.738   0.862  31.773  0.00  0.00    -0.005 C 
ENDBRANCH  33  34
ENDBRANCH  27  33
ENDBRANCH  26  27
ENDBRANCH  25  26
ENDBRANCH   1  24
TORSDOF 13
ENDMDL
ENDMDL
