MODEL 1830
MODEL 1
REMARK VINA RESULT:    -4.373      0.000      0.000
REMARK INTER + INTRA:          -4.373
REMARK INTER:                  -4.373
REMARK INTRA:                   0.000
REMARK UNBOUND:                 0.000
REMARK  Name = No_1830-gen_results/8p0m/2024-11-26-14-13-15/
REMARK  0 active torsions:
REMARK  status: ('A' for Active; 'I' for Inactive)
REMARK                            x       y       z     vdW  Elec       q    Type
REMARK                         _______ _______ _______ _____ _____    ______ ____
ROOT
ATOM      1  C   UNL A   1     -24.882  -5.424  29.002  0.00  0.00    +0.000 A 
ATOM      2  C   UNL A   1     -24.153  -4.757  28.634  0.00  0.00    +0.000 A 
ATOM      3  C   UNL A   1     -26.054  -4.751  29.575  0.00  0.00    +0.000 A 
ATOM      4  C   UNL A   1     -26.097  -3.433  29.774  0.00  0.00    +0.000 A 
ATOM      5  C   UNL A   1     -23.973  -3.330  28.749  0.00  0.00    +0.000 A 
ATOM      6  C   UNL A   1     -25.061  -2.727  29.307  0.00  0.00    +0.000 A 
ENDROOT
TORSDOF 0
ENDMDL
ENDMDL
