MODEL 1831
MODEL 1
REMARK VINA RESULT:    -3.955      0.000      0.000
REMARK INTER + INTRA:          -4.812
REMARK INTER:                  -4.649
REMARK INTRA:                  -0.164
REMARK UNBOUND:                -0.164
REMARK  Name = No_1831-gen_results/8p0m/2024-11-26-14-13-15/
REMARK  3 active torsions:
REMARK  status: ('A' for Active; 'I' for Inactive)
REMARK    1  A    between atoms: C_1  and  C_2
REMARK    2  A    between atoms: C_2  and  C_4
REMARK    3  A    between atoms: C_6  and  C_7
REMARK                            x       y       z     vdW  Elec       q    Type
REMARK                         _______ _______ _______ _____ _____    ______ ____
ROOT
ATOM      1  C   UNL A   1     -24.313  -3.932  28.851  0.00  0.00    +0.008 C 
ATOM      2  C   UNL A   1     -25.277  -4.848  29.304  0.00  0.00    -0.002 C 
ENDROOT
BRANCH   1   3
ATOM      3  C   UNL A   1     -24.263  -2.724  28.820  0.00  0.00    +0.183 C 
ATOM      4  F   UNL A   1     -24.876  -2.226  27.864  0.00  0.00    -0.233 F 
BRANCH   3   5
ATOM      5  C   UNL A   1     -23.549  -1.841  29.692  0.00  0.00    +0.040 C 
ATOM      6  C   UNL A   1     -22.542  -0.970  29.113  0.00  0.00    +0.003 C 
ENDBRANCH   3   5
ENDBRANCH   1   3
BRANCH   2   7
ATOM      7  C   UNL A   1     -26.409  -4.215  29.704  0.00  0.00    -0.000 C 
ATOM      8  C   UNL A   1     -27.579  -4.632  30.132  0.00  0.00    -0.000 C 
ENDBRANCH   2   7
TORSDOF 3
ENDMDL
ENDMDL
