REMARK  Name = No_1831-gen_results/8p0m/2024-11-26-14-13-15/
REMARK  3 active torsions:
REMARK  status: ('A' for Active; 'I' for Inactive)
REMARK    1  A    between atoms: C_1  and  C_2
REMARK    2  A    between atoms: C_2  and  C_4
REMARK    3  A    between atoms: C_6  and  C_7
REMARK                            x       y       z     vdW  Elec       q    Type
REMARK                         _______ _______ _______ _____ _____    ______ ____
ROOT
ATOM      1  C   UNL A   1     -28.016  -0.814  28.878  0.00  0.00    +0.008 C 
ATOM      2  C   UNL A   1     -28.637  -1.177  30.085  0.00  0.00    -0.002 C 
ENDROOT
BRANCH   1   3
ATOM      3  C   UNL A   1     -27.064  -0.119  28.608  0.00  0.00    +0.183 C 
ATOM      4  F   UNL A   1     -27.079   0.985  29.174  0.00  0.00    -0.233 F 
BRANCH   3   5
ATOM      5  C   UNL A   1     -25.996  -0.389  27.694  0.00  0.00    +0.040 C 
ATOM      6  C   UNL A   1     -24.719  -0.817  28.237  0.00  0.00    +0.003 C 
ENDBRANCH   3   5
ENDBRANCH   1   3
BRANCH   2   7
ATOM      7  C   UNL A   1     -28.082  -0.526  31.139  0.00  0.00    -0.000 C 
ATOM      8  C   UNL A   1     -27.428   0.607  31.263  0.00  0.00    -0.000 C 
ENDBRANCH   2   7
TORSDOF 3
