MODEL 1832
MODEL 1
REMARK VINA RESULT:    -6.582      0.000      0.000
REMARK INTER + INTRA:          -7.740
REMARK INTER:                  -7.351
REMARK INTRA:                  -0.389
REMARK UNBOUND:                -0.389
REMARK  Name = No_1832-gen_results/8p0m/2024-11-26-14-13-15/
REMARK  2 active torsions:
REMARK  status: ('A' for Active; 'I' for Inactive)
REMARK    1  A    between atoms: C_4  and  C_7
REMARK    2  A    between atoms: C_7  and  C_8
REMARK                            x       y       z     vdW  Elec       q    Type
REMARK                         _______ _______ _______ _____ _____    ______ ____
ROOT
ATOM      1  C   UNL A   1     -26.422  -3.470  30.040  0.00  0.00    +0.029 A 
ATOM      2  C   UNL A   1     -26.131  -4.392  29.620  0.00  0.00    +0.002 A 
ATOM      3  C   UNL A   1     -25.410  -2.402  30.052  0.00  0.00    +0.137 A 
ATOM      4  C   UNL A   1     -24.157  -2.584  29.397  0.00  0.00    +0.010 A 
ATOM      5  C   UNL A   1     -23.943  -3.819  28.840  0.00  0.00    -0.002 A 
ATOM      6  C   UNL A   1     -24.898  -4.773  28.880  0.00  0.00    -0.000 A 
ATOM      7  F   UNL A   1     -25.604  -1.213  30.657  0.00  0.00    -0.204 F 
ENDROOT
BRANCH   4   8
ATOM      8  C   UNL A   1     -23.161  -1.544  29.383  0.00  0.00    +0.055 C 
BRANCH   8   9
ATOM      9  C   UNL A   1     -23.449  -0.441  28.553  0.00  0.00    -0.018 A 
ATOM     10  C   UNL A   1     -24.342  -0.340  27.605  0.00  0.00    -0.004 A 
ATOM     11  C   UNL A   1     -24.372   0.716  26.662  0.00  0.00    -0.000 A 
ATOM     12  C   UNL A   1     -23.262   1.574  26.707  0.00  0.00    -0.000 A 
ATOM     13  C   UNL A   1     -22.438   0.655  28.415  0.00  0.00    -0.004 A 
ATOM     14  C   UNL A   1     -22.413   1.615  27.618  0.00  0.00    -0.000 A 
ENDBRANCH   8   9
ENDBRANCH   4   8
TORSDOF 2
ENDMDL
ENDMDL
