MODEL 1833
MODEL 1
REMARK VINA RESULT:    -7.135      0.000      0.000
REMARK INTER + INTRA:          -9.392
REMARK INTER:                  -8.386
REMARK INTRA:                  -1.006
REMARK UNBOUND:                -1.006
REMARK  Name = No_1833-gen_results/8p0m/2024-11-26-14-13-15/
REMARK  3 active torsions:
REMARK  status: ('A' for Active; 'I' for Inactive)
REMARK    1  A    between atoms: C_3  and  C_4
REMARK    2  A    between atoms: C_6  and  C_13
REMARK    3  A    between atoms: N_15  and  C_17
REMARK                            x       y       z     vdW  Elec       q    Type
REMARK                         _______ _______ _______ _____ _____    ______ ____
ROOT
ATOM      1  C   UNL A   1     -24.004   0.224  27.464  0.00  0.00    +0.004 A 
ATOM      2  C   UNL A   1     -24.689   0.367  26.478  0.00  0.00    +0.000 A 
ATOM      3  C   UNL A   1     -25.942   0.966  26.554  0.00  0.00    +0.000 A 
ATOM      4  C   UNL A   1     -24.560   0.510  28.797  0.00  0.00    +0.054 A 
ATOM      5  C   UNL A   1     -25.756   1.168  28.952  0.00  0.00    +0.004 A 
ATOM      6  C   UNL A   1     -26.558   1.398  27.821  0.00  0.00    +0.000 A 
ENDROOT
BRANCH   3   7
ATOM      7  C   UNL A   1     -26.882   1.189  25.419  0.00  0.00    +0.000 A 
ATOM      8  C   UNL A   1     -27.413   0.162  24.563  0.00  0.00    +0.000 A 
ATOM      9  C   UNL A   1     -28.339   0.502  23.599  0.00  0.00    +0.000 A 
ATOM     10  C   UNL A   1     -28.973   1.699  23.456  0.00  0.00    +0.000 A 
ATOM     11  C   UNL A   1     -27.306   2.558  25.105  0.00  0.00    +0.000 A 
ATOM     12  C   UNL A   1     -28.405   2.733  24.190  0.00  0.00    +0.000 A 
ENDBRANCH   3   7
BRANCH   4  13
ATOM     13  C   UNL A   1     -23.781   0.280  30.047  0.00  0.00    +0.253 C 
ATOM     14  O   UNL A   1     -23.342   1.203  30.699  0.00  0.00    -0.270 OA
ATOM     15  N   UNL A   1     -23.964  -0.935  30.638  0.00  0.00    -0.253 N 
ATOM     16  C   UNL A   1     -23.302  -1.217  31.933  0.00  0.00    +0.120 C 
BRANCH  15  17
ATOM     17  C   UNL A   1     -24.638  -2.057  30.029  0.00  0.00    +0.054 A 
ATOM     18  C   UNL A   1     -25.806  -2.315  30.381  0.00  0.00    +0.015 A 
ATOM     19  C   UNL A   1     -26.376  -3.555  29.993  0.00  0.00    +0.001 A 
ATOM     20  C   UNL A   1     -25.651  -4.447  29.176  0.00  0.00    +0.000 A 
ATOM     21  C   UNL A   1     -24.332  -4.083  28.807  0.00  0.00    +0.001 A 
ATOM     22  C   UNL A   1     -23.780  -2.957  29.247  0.00  0.00    +0.015 A 
ENDBRANCH  15  17
ENDBRANCH   4  13
TORSDOF 3
ENDMDL
ENDMDL
