REMARK  Name = No_1833-gen_results/8p0m/2024-11-26-14-13-15/
REMARK  3 active torsions:
REMARK  status: ('A' for Active; 'I' for Inactive)
REMARK    1  A    between atoms: C_3  and  C_4
REMARK    2  A    between atoms: C_6  and  C_13
REMARK    3  A    between atoms: N_15  and  C_17
REMARK                            x       y       z     vdW  Elec       q    Type
REMARK                         _______ _______ _______ _____ _____    ______ ____
ROOT
ATOM      1  C   UNL A   1     -28.016  -0.814  28.878  0.00  0.00    +0.004 A 
ATOM      2  C   UNL A   1     -27.064  -0.119  28.608  0.00  0.00    +0.000 A 
ATOM      3  C   UNL A   1     -25.792  -0.430  29.076  0.00  0.00    +0.000 A 
ATOM      4  C   UNL A   1     -27.882  -1.899  29.863  0.00  0.00    +0.054 A 
ATOM      5  C   UNL A   1     -26.653  -2.314  30.314  0.00  0.00    +0.004 A 
ATOM      6  C   UNL A   1     -25.515  -1.561  29.979  0.00  0.00    +0.000 A 
ENDROOT
BRANCH   3   7
ATOM      7  C   UNL A   1     -24.546   0.349  28.823  0.00  0.00    +0.000 A 
ATOM      8  C   UNL A   1     -23.241   0.022  29.332  0.00  0.00    +0.000 A 
ATOM      9  C   UNL A   1     -22.159   0.787  28.951  0.00  0.00    +0.000 A 
ATOM     10  C   UNL A   1     -22.131   1.744  27.982  0.00  0.00    +0.000 A 
ATOM     11  C   UNL A   1     -24.622   1.567  28.009  0.00  0.00    +0.000 A 
ATOM     12  C   UNL A   1     -23.388   2.156  27.555  0.00  0.00    +0.000 A 
ENDBRANCH   3   7
BRANCH   4  13
ATOM     13  C   UNL A   1     -29.042  -2.736  30.284  0.00  0.00    +0.253 C 
ATOM     14  O   UNL A   1     -28.979  -3.946  30.297  0.00  0.00    -0.270 OA
ATOM     15  N   UNL A   1     -29.977  -2.102  31.048  0.00  0.00    -0.253 N 
ATOM     16  C   UNL A   1     -31.117  -2.878  31.588  0.00  0.00    +0.120 C 
BRANCH  15  17
ATOM     17  C   UNL A   1     -30.043  -0.675  31.258  0.00  0.00    +0.054 A 
ATOM     18  C   UNL A   1     -30.825  -0.004  30.556  0.00  0.00    +0.015 A 
ATOM     19  C   UNL A   1     -30.706   1.410  30.567  0.00  0.00    +0.001 A 
ATOM     20  C   UNL A   1     -29.760   2.039  31.403  0.00  0.00    +0.000 A 
ATOM     21  C   UNL A   1     -28.911   1.212  32.180  0.00  0.00    +0.001 A 
ATOM     22  C   UNL A   1     -28.976  -0.113  32.096  0.00  0.00    +0.015 A 
ENDBRANCH  15  17
ENDBRANCH   4  13
TORSDOF 3
