MODEL 1834
MODEL 1
REMARK VINA RESULT:    -5.941      0.000      0.000
REMARK INTER + INTRA:          -6.343
REMARK INTER:                  -6.289
REMARK INTRA:                  -0.054
REMARK UNBOUND:                -0.054
REMARK  Name = No_1834-gen_results/8p0m/2024-11-26-14-13-15/
REMARK  1 active torsions:
REMARK  status: ('A' for Active; 'I' for Inactive)
REMARK    1  A    between atoms: C_2  and  C_5
REMARK                            x       y       z     vdW  Elec       q    Type
REMARK                         _______ _______ _______ _____ _____    ______ ____
ROOT
ATOM      1  C   UNL A   1     -27.906 -12.055  31.338  0.00  0.00    +0.003 A 
ATOM      2  C   UNL A   1     -28.002 -11.751  32.343  0.00  0.00    +0.042 A 
ATOM      3  C   UNL A   1     -28.881 -11.420  30.371  0.00  0.00    +0.000 A 
ATOM      4  C   UNL A   1     -29.055 -11.770  28.984  0.00  0.00    +0.000 A 
ATOM      5  C   UNL A   1     -30.075 -11.019  28.243  0.00  0.00    +0.000 A 
ATOM      6  C   UNL A   1     -30.788 -10.005  28.860  0.00  0.00    +0.000 A 
ATOM      7  C   UNL A   1     -30.617  -9.664  30.151  0.00  0.00    +0.000 A 
ATOM      8  C   UNL A   1     -29.700 -10.306  30.893  0.00  0.00    +0.000 A 
ATOM      9  C   UNL A   1     -28.805 -10.598  32.933  0.00  0.00    +0.003 A 
ATOM     10  C   UNL A   1     -29.583  -9.965  32.255  0.00  0.00    +0.000 A 
ENDROOT
BRANCH   2  11
ATOM     11  C   UNL A   1     -27.075 -12.325  33.414  0.00  0.00    +0.234 C 
ATOM     12  O   UNL A   1     -27.492 -12.299  34.485  0.00  0.00    -0.283 OA
ENDBRANCH   2  11
TORSDOF 1
ENDMDL
ENDMDL
