MODEL 1835
MODEL 1
REMARK VINA RESULT:    -4.798      0.000      0.000
REMARK INTER + INTRA:          -5.091
REMARK INTER:                  -5.078
REMARK INTRA:                  -0.013
REMARK UNBOUND:                -0.013
REMARK  Name = No_1835-gen_results/8p0m/2024-11-26-14-13-15/
REMARK  1 active torsions:
REMARK  status: ('A' for Active; 'I' for Inactive)
REMARK    1  A    between atoms: C_3  and  C_8
REMARK                            x       y       z     vdW  Elec       q    Type
REMARK                         _______ _______ _______ _____ _____    ______ ____
ROOT
ATOM      1  O   UNL A   1     -22.970  -2.256  28.871  0.00  0.00    -0.273 OA
ATOM      2  C   UNL A   1     -23.929  -2.839  29.135  0.00  0.00    +0.245 C 
ATOM      3  C   UNL A   1     -24.937  -2.685  29.504  0.00  0.00    +0.100 C 
ATOM      4  N   UNL A   1     -23.763  -4.327  28.738  0.00  0.00    -0.205 NA
ATOM      5  C   UNL A   1     -26.127  -3.488  29.818  0.00  0.00    +0.015 C 
ATOM      6  C   UNL A   1     -24.741  -5.256  28.968  0.00  0.00    +0.115 C 
ATOM      7  C   UNL A   1     -25.960  -4.858  29.498  0.00  0.00    +0.024 C 
ENDROOT
BRANCH   3   8
ATOM      8  C   UNL A   1     -25.449  -1.223  29.978  0.00  0.00    -0.022 C 
ATOM      9  C   UNL A   1     -25.493  -0.808  31.021  0.00  0.00    -0.030 C 
ATOM     10  C   UNL A   1     -24.326  -1.153  31.961  0.00  0.00    +0.030 C 
ENDBRANCH   3   8
TORSDOF 1
ENDMDL
ENDMDL
