REMARK  Name = No_1836-gen_results/8p0m/2024-11-26-14-13-15/
REMARK  2 active torsions:
REMARK  status: ('A' for Active; 'I' for Inactive)
REMARK    1  A    between atoms: C_12  and  C_15
REMARK    2  A    between atoms: C_17  and  C_18
REMARK                            x       y       z     vdW  Elec       q    Type
REMARK                         _______ _______ _______ _____ _____    ______ ____
ROOT
ATOM      1  C   UNL A   1     -28.016  -0.814  28.878  0.00  0.00    +0.017 A 
ATOM      2  C   UNL A   1     -28.469  -0.785  29.829  0.00  0.00    +0.001 A 
ATOM      3  C   UNL A   1     -26.546  -0.876  28.850  0.00  0.00    +0.080 A 
ATOM      4  C   UNL A   1     -25.804  -1.032  30.057  0.00  0.00    -0.004 A 
ATOM      5  C   UNL A   1     -26.537  -1.039  31.217  0.00  0.00    -0.003 A 
ATOM      6  C   UNL A   1     -27.884  -0.953  31.186  0.00  0.00    -0.000 A 
ATOM      7  C   UNL A   1     -24.366  -1.113  30.048  0.00  0.00    +0.045 C 
ATOM      8  C   UNL A   1     -23.625  -0.943  29.023  0.00  0.00    +0.082 C 
ATOM      9  C   UNL A   1     -22.378  -0.335  29.068  0.00  0.00    +0.018 C 
ATOM     10  C   UNL A   1     -21.993   0.717  28.817  0.00  0.00    +0.003 C 
ATOM     11  C   UNL A   1     -22.899   1.688  28.245  0.00  0.00    +0.018 C 
ATOM     12  C   UNL A   1     -23.998   1.361  27.581  0.00  0.00    +0.083 C 
ATOM     13  N   UNL A   1     -24.407  -0.488  27.913  0.00  0.00    -0.189 NA
ATOM     14  N   UNL A   1     -25.758  -0.568  27.730  0.00  0.00    -0.164 NA
ENDROOT
BRANCH  12  15
ATOM     15  C   UNL A   1     -24.793   1.988  26.755  0.00  0.00    +0.063 C 
ATOM     16  C   UNL A   1     -25.329   1.612  25.732  0.00  0.00    +0.068 C 
ATOM     17  C   UNL A   1     -25.487   3.167  27.392  0.00  0.00    +0.054 C 
ATOM     18  N   UNL A   1     -26.503   2.050  25.281  0.00  0.00    -0.273 NA
ATOM     19  C   UNL A   1     -26.497   3.552  26.407  0.00  0.00    +0.130 C 
BRANCH  17  20
ATOM     20  C   UNL A   1     -25.178   3.700  28.589  0.00  0.00    -0.020 A 
ATOM     21  C   UNL A   1     -25.793   4.862  29.078  0.00  0.00    -0.004 A 
ATOM     22  C   UNL A   1     -25.698   5.295  30.395  0.00  0.00    -0.000 A 
ATOM     23  C   UNL A   1     -25.344   4.321  31.383  0.00  0.00    -0.000 A 
ATOM     24  C   UNL A   1     -24.893   3.049  30.993  0.00  0.00    -0.000 A 
ATOM     25  C   UNL A   1     -24.961   2.733  29.678  0.00  0.00    -0.004 A 
ENDBRANCH  17  20
ENDBRANCH  12  15
TORSDOF 2
