REMARK  Name = No_1837-gen_results/8p0m/2024-11-26-14-13-15/
REMARK  14 active torsions:
REMARK  status: ('A' for Active; 'I' for Inactive)
REMARK    1  A    between atoms: C_1  and  C_2
REMARK    2  A    between atoms: C_1  and  N_8
REMARK    3  A    between atoms: C_5  and  C_15
REMARK    4  A    between atoms: C_9  and  C_10
REMARK    5  A    between atoms: C_11  and  C_12
REMARK    6  A    between atoms: C_12  and  C_13
REMARK    7  A    between atoms: C_12  and  C_14
REMARK    8  A    between atoms: N_20  and  C_21
REMARK    9  A    between atoms: C_21  and  C_23
REMARK   10  A    between atoms: C_23  and  O_24
REMARK   11  A    between atoms: O_24  and  C_25
REMARK   12  A    between atoms: C_25  and  C_26
REMARK   13  A    between atoms: C_26  and  C_28
REMARK   14  A    between atoms: C_29  and  C_30
REMARK                            x       y       z     vdW  Elec       q    Type
REMARK                         _______ _______ _______ _____ _____    ______ ____
ROOT
ATOM      1  C   UNL A   1     -30.777  -4.676  30.196  0.00  0.00    +0.119 C 
ENDROOT
BRANCH   1   2
ATOM      2  C   UNL A   1     -31.590  -4.466  28.860  0.00  0.00    +0.246 C 
ATOM      3  O   UNL A   1     -32.436  -3.684  28.837  0.00  0.00    -0.273 OA
ATOM      4  N   UNL A   1     -31.460  -5.547  27.991  0.00  0.00    -0.202 NA
BRANCH   4   5
ATOM      5  C   UNL A   1     -32.267  -5.536  26.830  0.00  0.00    +0.147 C 
BRANCH   5   6
ATOM      6  C   UNL A   1     -32.639  -6.903  26.512  0.00  0.00    +0.166 C 
BRANCH   6   7
ATOM      7  O   UNL A   1     -31.648  -7.580  26.138  0.00  0.00    -0.351 OA
BRANCH   7   8
ATOM      8  C   UNL A   1     -31.698  -8.630  25.217  0.00  0.00    +0.146 C 
BRANCH   8   9
ATOM      9  C   UNL A   1     -30.391  -8.935  24.854  0.00  0.00    +0.052 C 
ATOM     10  C   UNL A   1     -29.720  -7.859  24.097  0.00  0.00    +0.007 C 
BRANCH   9  11
ATOM     11  C   UNL A   1     -29.770 -10.226  24.970  0.00  0.00    -0.024 C 
ATOM     12  C   UNL A   1     -30.299 -11.065  25.878  0.00  0.00    -0.004 C 
BRANCH  12  13
ATOM     13  C   UNL A   1     -29.636 -12.314  26.049  0.00  0.00    -0.000 C 
ATOM     14  C   UNL A   1     -28.508 -12.546  25.277  0.00  0.00    -0.000 C 
ENDBRANCH  12  13
ENDBRANCH   9  11
ENDBRANCH   8   9
ENDBRANCH   7   8
ENDBRANCH   6   7
ENDBRANCH   5   6
ENDBRANCH   4   5
ENDBRANCH   1   2
BRANCH   1  16
ATOM     15  C   UNL A   1     -30.107  -2.364  29.991  0.00  0.00    +0.055 C 
ATOM     16  C   UNL A   1     -30.471  -3.442  30.808  0.00  0.00    -0.011 C 
BRANCH  15  18
ATOM     17  N   UNL A   1     -28.730  -0.530  30.043  0.00  0.00    -0.197 NA
ATOM     18  C   UNL A   1     -29.677  -1.313  30.597  0.00  0.00    +0.265 C 
ATOM     19  O   UNL A   1     -30.480  -0.636  31.386  0.00  0.00    -0.268 OA
BRANCH  17  20
ATOM     20  C   UNL A   1     -28.016  -0.814  28.878  0.00  0.00    +0.142 C 
BRANCH  20  21
ATOM     21  C   UNL A   1     -27.064  -0.119  28.608  0.00  0.00    -0.001 A 
ATOM     22  C   UNL A   1     -27.001   0.691  27.491  0.00  0.00    -0.002 A 
ATOM     23  C   UNL A   1     -25.855   1.482  27.083  0.00  0.00    +0.004 A 
ATOM     24  C   UNL A   1     -24.690   1.453  27.881  0.00  0.00    +0.048 A 
ATOM     25  C   UNL A   1     -24.738   0.601  29.042  0.00  0.00    +0.004 A 
ATOM     26  C   UNL A   1     -25.823  -0.169  29.389  0.00  0.00    -0.002 A 
BRANCH  24  27
ATOM     27  C   UNL A   1     -23.530   2.217  27.571  0.00  0.00    +0.242 C 
ATOM     28  N   UNL A   1     -23.440   2.762  26.342  0.00  0.00    -0.116 NA
ATOM     29  F   UNL A   1     -22.459   2.069  28.209  0.00  0.00    -0.181 F 
ENDBRANCH  24  27
ENDBRANCH  20  21
ENDBRANCH  17  20
ENDBRANCH  15  18
ENDBRANCH   1  16
BRANCH   1  30
ATOM     30  C   UNL A   1     -29.835  -5.581  29.942  0.00  0.00    +0.123 C 
ATOM     31  N   UNL A   1     -28.986  -5.686  31.145  0.00  0.00    -0.131 NA
ENDBRANCH   1  30
TORSDOF 14
