MODEL 1838
MODEL 1
REMARK VINA RESULT:    -5.488      0.000      0.000
REMARK INTER + INTRA:          -5.488
REMARK INTER:                  -5.488
REMARK INTRA:                   0.000
REMARK UNBOUND:                 0.000
REMARK  Name = No_1838-gen_results/8p0m/2024-11-26-14-13-15/
REMARK  0 active torsions:
REMARK  status: ('A' for Active; 'I' for Inactive)
REMARK                            x       y       z     vdW  Elec       q    Type
REMARK                         _______ _______ _______ _____ _____    ______ ____
ROOT
ATOM      1  O   UNL A   1     -26.667  -0.178  31.597  0.00  0.00    -0.274 OA
ATOM      2  C   UNL A   1     -26.075  -0.907  30.927  0.00  0.00    +0.236 C 
ATOM      3  C   UNL A   1     -26.432  -2.236  30.817  0.00  0.00    +0.112 C 
ATOM      4  N   UNL A   1     -24.815  -0.549  30.250  0.00  0.00    -0.224 N 
ATOM      5  C   UNL A   1     -25.866  -3.001  29.811  0.00  0.00    -0.009 A 
ATOM      6  C   UNL A   1     -26.163  -4.401  29.600  0.00  0.00    -0.004 A 
ATOM      7  C   UNL A   1     -25.577  -5.258  29.330  0.00  0.00    -0.000 A 
ATOM      8  C   UNL A   1     -24.179  -1.308  29.388  0.00  0.00    +0.255 C 
ATOM      9  C   UNL A   1     -24.617  -2.634  29.109  0.00  0.00    +0.051 A 
ATOM     10  C   UNL A   1     -24.277  -4.875  28.593  0.00  0.00    +0.000 A 
ATOM     11  C   UNL A   1     -23.855  -3.625  28.545  0.00  0.00    +0.004 A 
ATOM     12  O   UNL A   1     -23.136  -0.849  28.834  0.00  0.00    -0.270 OA
ATOM     13  C   UNL A   1     -24.420   0.896  30.300  0.00  0.00    +0.123 C 
ENDROOT
TORSDOF 0
ENDMDL
ENDMDL
