REMARK  Name = No_1838-gen_results/8p0m/2024-11-26-14-13-15/
REMARK  0 active torsions:
REMARK  status: ('A' for Active; 'I' for Inactive)
REMARK                            x       y       z     vdW  Elec       q    Type
REMARK                         _______ _______ _______ _____ _____    ______ ____
ROOT
ATOM      1  O   UNL A   1     -28.123  -1.335  28.487  0.00  0.00    -0.274 OA
ATOM      2  C   UNL A   1     -27.481  -0.404  28.709  0.00  0.00    +0.236 C 
ATOM      3  C   UNL A   1     -26.380  -0.087  27.939  0.00  0.00    +0.112 C 
ATOM      4  N   UNL A   1     -27.666   0.447  29.899  0.00  0.00    -0.224 N 
ATOM      5  C   UNL A   1     -25.805   1.166  28.075  0.00  0.00    -0.009 A 
ATOM      6  C   UNL A   1     -24.651   1.608  27.323  0.00  0.00    -0.004 A 
ATOM      7  C   UNL A   1     -23.780   2.187  27.560  0.00  0.00    -0.000 A 
ATOM      8  C   UNL A   1     -27.037   1.577  30.124  0.00  0.00    +0.255 C 
ATOM      9  C   UNL A   1     -26.008   2.035  29.254  0.00  0.00    +0.051 A 
ATOM     10  C   UNL A   1     -23.994   3.098  28.786  0.00  0.00    +0.000 A 
ATOM     11  C   UNL A   1     -25.049   2.964  29.569  0.00  0.00    +0.004 A 
ATOM     12  O   UNL A   1     -27.339   2.239  31.162  0.00  0.00    -0.270 OA
ATOM     13  C   UNL A   1     -28.880   0.170  30.733  0.00  0.00    +0.123 C 
ENDROOT
TORSDOF 0
