MODEL 1839
MODEL 1
REMARK VINA RESULT:    -6.035      0.000      0.000
REMARK INTER + INTRA:          -6.869
REMARK INTER:                  -6.387
REMARK INTRA:                  -0.481
REMARK UNBOUND:                -0.481
REMARK  Name = No_1839-gen_results/8p0m/2024-11-26-14-13-15/
REMARK  1 active torsions:
REMARK  status: ('A' for Active; 'I' for Inactive)
REMARK    1  A    between atoms: C_3  and  C_7
REMARK                            x       y       z     vdW  Elec       q    Type
REMARK                         _______ _______ _______ _____ _____    ______ ____
ROOT
ATOM      1  C   UNL A   1     -23.854  -3.433  28.896  0.00  0.00    +0.000 A 
ATOM      2  C   UNL A   1     -24.099  -4.443  28.723  0.00  0.00    +0.000 A 
ATOM      3  C   UNL A   1     -24.805  -2.629  29.562  0.00  0.00    +0.000 A 
ATOM      4  C   UNL A   1     -26.027  -3.127  29.969  0.00  0.00    +0.000 A 
ATOM      5  C   UNL A   1     -25.313  -5.215  29.053  0.00  0.00    +0.000 A 
ATOM      6  C   UNL A   1     -26.251  -4.482  29.690  0.00  0.00    +0.000 A 
ENDROOT
BRANCH   3   7
ATOM      7  C   UNL A   1     -24.565  -1.186  29.902  0.00  0.00    +0.000 A 
ATOM      8  C   UNL A   1     -24.956  -0.313  28.925  0.00  0.00    +0.000 A 
ATOM      9  C   UNL A   1     -23.292  -0.844  30.498  0.00  0.00    +0.000 A 
ATOM     10  C   UNL A   1     -24.328  -0.089  27.759  0.00  0.00    +0.000 A 
ATOM     11  C   UNL A   1     -22.905   0.357  28.129  0.00  0.00    +0.000 A 
ATOM     12  C   UNL A   1     -22.355  -0.295  29.351  0.00  0.00    +0.000 A 
ENDBRANCH   3   7
TORSDOF 1
ENDMDL
ENDMDL
