REMARK  Name = No_184-gen_results/8p0m/2024-11-26-14-13-15/
REMARK  2 active torsions:
REMARK  status: ('A' for Active; 'I' for Inactive)
REMARK    1  A    between atoms: C_2  and  C_18
REMARK    2  A    between atoms: C_12  and  C_15
REMARK                            x       y       z     vdW  Elec       q    Type
REMARK                         _______ _______ _______ _____ _____    ______ ____
ROOT
ATOM      1  C   UNL A   1     -28.016  -0.814  28.878  0.00  0.00    +0.009 A 
ATOM      2  C   UNL A   1     -28.469  -0.785  29.829  0.00  0.00    +0.080 A 
ATOM      3  C   UNL A   1     -26.546  -0.876  28.850  0.00  0.00    +0.035 A 
ATOM      4  C   UNL A   1     -25.804  -1.032  30.057  0.00  0.00    -0.015 A 
ATOM      5  C   UNL A   1     -24.370  -1.100  30.072  0.00  0.00    +0.053 C 
ATOM      6  C   UNL A   1     -27.990  -1.005  31.209  0.00  0.00    +0.006 A 
ATOM      7  C   UNL A   1     -26.562  -1.137  31.260  0.00  0.00    -0.004 A 
ATOM      8  C   UNL A   1     -23.634  -0.782  29.067  0.00  0.00    -0.015 A 
ATOM      9  C   UNL A   1     -22.176  -0.678  29.166  0.00  0.00    -0.004 A 
ATOM     10  C   UNL A   1     -21.561   0.461  28.857  0.00  0.00    -0.000 A 
ATOM     11  C   UNL A   1     -22.120   1.391  27.907  0.00  0.00    +0.007 A 
ATOM     12  C   UNL A   1     -23.541   1.273  27.666  0.00  0.00    +0.083 A 
ATOM     13  C   UNL A   1     -24.276   0.347  28.281  0.00  0.00    +0.042 A 
ATOM     14  C   UNL A   1     -25.699  -0.211  27.807  0.00  0.00    +0.195 C 
ATOM     15  O   UNL A   1     -26.180   0.219  26.754  0.00  0.00    -0.287 OA
ENDROOT
BRANCH  12  16
ATOM     16  C   UNL A   1     -24.154   2.295  26.797  0.00  0.00    +0.388 C 
ATOM     17  O   UNL A   1     -24.573   3.257  27.339  0.00  0.00    -0.241 OA
ATOM     18  O   UNL A   1     -24.202   1.969  25.554  0.00  0.00    -0.241 OA
ENDBRANCH  12  16
BRANCH   2  19
ATOM     19  C   UNL A   1     -30.079  -0.793  29.875  0.00  0.00    +0.388 C 
ATOM     20  O   UNL A   1     -30.651   0.160  30.482  0.00  0.00    -0.241 OA
ATOM     21  O   UNL A   1     -30.678  -1.681  29.271  0.00  0.00    -0.241 OA
ENDBRANCH   2  19
TORSDOF 2
