MODEL 1840
MODEL 1
REMARK VINA RESULT:    -6.523      0.000      0.000
REMARK INTER + INTRA:          -7.222
REMARK INTER:                  -6.904
REMARK INTRA:                  -0.318
REMARK UNBOUND:                -0.318
REMARK  Name = No_1840-gen_results/8p0m/2024-11-26-14-13-15/
REMARK  1 active torsions:
REMARK  status: ('A' for Active; 'I' for Inactive)
REMARK    1  A    between atoms: C_3  and  C_7
REMARK                            x       y       z     vdW  Elec       q    Type
REMARK                         _______ _______ _______ _____ _____    ______ ____
ROOT
ATOM      1  C   UNL A   1     -24.786  -4.904  28.962  0.00  0.00    +0.000 A 
ATOM      2  C   UNL A   1     -24.167  -3.901  28.691  0.00  0.00    +0.000 A 
ATOM      3  C   UNL A   1     -24.609  -2.615  29.001  0.00  0.00    +0.000 A 
ATOM      4  C   UNL A   1     -25.904  -2.446  29.630  0.00  0.00    +0.000 A 
ATOM      5  C   UNL A   1     -26.573  -3.660  29.907  0.00  0.00    +0.000 A 
ATOM      6  C   UNL A   1     -26.079  -4.825  29.571  0.00  0.00    +0.000 A 
ENDROOT
BRANCH   3   7
ATOM      7  C   UNL A   1     -23.898  -1.342  28.712  0.00  0.00    +0.000 A 
ATOM      8  C   UNL A   1     -24.368  -0.470  27.857  0.00  0.00    +0.000 A 
ATOM      9  C   UNL A   1     -23.633   0.720  27.540  0.00  0.00    +0.000 A 
ATOM     10  C   UNL A   1     -22.368   0.947  27.977  0.00  0.00    +0.000 A 
ATOM     11  C   UNL A   1     -22.547  -1.130  29.195  0.00  0.00    +0.000 A 
ATOM     12  C   UNL A   1     -21.809   0.022  28.815  0.00  0.00    +0.000 A 
ENDBRANCH   3   7
TORSDOF 1
ENDMDL
ENDMDL
