MODEL 1841
MODEL 1
REMARK VINA RESULT:    -5.281      0.000      0.000
REMARK INTER + INTRA:          -5.627
REMARK INTER:                  -5.590
REMARK INTRA:                  -0.037
REMARK UNBOUND:                -0.037
REMARK  Name = No_1841-gen_results/8p0m/2024-11-26-14-13-15/
REMARK  1 active torsions:
REMARK  status: ('A' for Active; 'I' for Inactive)
REMARK    1  A    between atoms: C_2  and  C_7
REMARK                            x       y       z     vdW  Elec       q    Type
REMARK                         _______ _______ _______ _____ _____    ______ ____
ROOT
ATOM      1  C   UNL A   1      -8.538 -10.513  18.425  0.00  0.00    +0.007 A 
ATOM      2  C   UNL A   1      -9.510 -10.117  18.333  0.00  0.00    +0.080 A 
ATOM      3  C   UNL A   1      -7.789 -10.145  19.637  0.00  0.00    +0.000 A 
ATOM      4  C   UNL A   1      -8.418  -9.408  20.682  0.00  0.00    +0.000 A 
ATOM      5  C   UNL A   1     -10.401  -9.389  19.278  0.00  0.00    +0.007 A 
ATOM      6  C   UNL A   1      -9.738  -9.021  20.410  0.00  0.00    +0.000 A 
ENDROOT
BRANCH   2   7
ATOM      7  C   UNL A   1     -10.362 -10.508  17.043  0.00  0.00    +0.388 C 
ATOM      8  O   UNL A   1     -11.475 -10.500  16.965  0.00  0.00    -0.241 OA
ATOM      9  O   UNL A   1      -9.612 -10.999  16.067  0.00  0.00    -0.241 OA
ENDBRANCH   2   7
TORSDOF 1
ENDMDL
ENDMDL
