REMARK  Name = No_1842-gen_results/8p0m/2024-11-26-14-13-15/
REMARK  1 active torsions:
REMARK  status: ('A' for Active; 'I' for Inactive)
REMARK    1  A    between atoms: C_5  and  C_10
REMARK                            x       y       z     vdW  Elec       q    Type
REMARK                         _______ _______ _______ _____ _____    ______ ____
ROOT
ATOM      1  C   UNL A   1     -28.016  -0.814  28.878  0.00  0.00    -0.005 A 
ATOM      2  C   UNL A   1     -27.064  -0.119  28.608  0.00  0.00    -0.026 A 
ATOM      3  C   UNL A   1     -26.972   0.714  27.506  0.00  0.00    -0.026 A 
ATOM      4  C   UNL A   1     -25.820   1.491  27.116  0.00  0.00    +0.037 C 
ATOM      5  C   UNL A   1     -24.656   1.424  27.918  0.00  0.00    +0.108 C 
ATOM      6  C   UNL A   1     -24.685   0.590  29.066  0.00  0.00    +0.016 C 
ATOM      7  C   UNL A   1     -25.810  -0.127  29.334  0.00  0.00    +0.027 C 
ATOM      8  C   UNL A   1     -29.218  -0.042  29.313  0.00  0.00    -0.000 A 
ATOM      9  C   UNL A   1     -30.280  -0.807  29.836  0.00  0.00    -0.000 A 
ATOM     10  C   UNL A   1     -31.556  -0.732  29.357  0.00  0.00    -0.000 A 
ATOM     11  C   UNL A   1     -31.831   0.295  28.555  0.00  0.00    -0.000 A 
ATOM     12  C   UNL A   1     -30.835   1.153  28.044  0.00  0.00    -0.000 A 
ATOM     13  C   UNL A   1     -29.537   0.839  28.332  0.00  0.00    -0.000 A 
ATOM     14  C   UNL A   1     -28.453   1.450  27.488  0.00  0.00    -0.005 A 
ENDROOT
BRANCH   5  15
ATOM     15  C   UNL A   1     -23.468   2.204  27.601  0.00  0.00    +0.365 C 
ATOM     16  O   UNL A   1     -22.560   2.219  28.483  0.00  0.00    -0.246 OA
ATOM     17  O   UNL A   1     -23.275   2.612  26.387  0.00  0.00    -0.246 OA
ENDBRANCH   5  15
TORSDOF 1
