MODEL 1843
MODEL 1
REMARK VINA RESULT:    -3.062      0.000      0.000
REMARK INTER + INTRA:          -3.062
REMARK INTER:                  -3.062
REMARK INTRA:                   0.000
REMARK UNBOUND:                 0.000
REMARK  Name = No_1843-gen_results/8p0m/2024-11-26-14-13-15/
REMARK  0 active torsions:
REMARK  status: ('A' for Active; 'I' for Inactive)
REMARK                            x       y       z     vdW  Elec       q    Type
REMARK                         _______ _______ _______ _____ _____    ______ ____
ROOT
ATOM      1  O   UNL A   1     -11.108 -10.466  16.949  0.00  0.00    -0.219 OA
ATOM      2  C   UNL A   1     -10.225 -10.323  17.668  0.00  0.00    +0.483 C 
ATOM      3  F   UNL A   1     -10.337  -9.669  18.647  0.00  0.00    -0.132 F 
ATOM      4  F   UNL A   1      -9.063 -10.854  17.360  0.00  0.00    -0.132 F 
ENDROOT
TORSDOF 0
ENDMDL
ENDMDL
