REMARK  Name = No_1844-gen_results/8p0m/2024-11-26-14-13-15/
REMARK  7 active torsions:
REMARK  status: ('A' for Active; 'I' for Inactive)
REMARK    1  A    between atoms: C_5  and  C_13
REMARK    2  A    between atoms: C_13  and  N_14
REMARK    3  A    between atoms: C_19  and  C_22
REMARK    4  A    between atoms: C_22  and  C_24
REMARK    5  A    between atoms: C_24  and  C_25
REMARK    6  A    between atoms: C_28  and  C_32
REMARK    7  A    between atoms: C_32  and  O_34
REMARK                            x       y       z     vdW  Elec       q    Type
REMARK                         _______ _______ _______ _____ _____    ______ ____
ROOT
ATOM      1  N   UNL A   1     -29.162   1.550  28.361  0.00  0.00    -0.244 N 
ATOM      2  C   UNL A   1     -29.584   2.656  28.155  0.00  0.00    +0.069 C 
ATOM      3  C   UNL A   1     -29.366   3.570  27.546  0.00  0.00    +0.016 C 
ATOM      4  C   UNL A   1     -28.101   3.542  26.747  0.00  0.00    -0.003 C 
ATOM      5  C   UNL A   1     -27.780   2.690  25.948  0.00  0.00    -0.017 C 
ATOM      6  C   UNL A   1     -28.589   1.641  25.530  0.00  0.00    +0.099 C 
ATOM      7  C   UNL A   1     -28.431   1.080  26.931  0.00  0.00    +0.234 C 
ATOM      8  O   UNL A   1     -27.525   0.503  26.882  0.00  0.00    -0.274 OA
ENDROOT
BRANCH   1   9
ATOM      9  C   UNL A   1     -28.632   1.195  29.358  0.00  0.00    +0.169 C 
ATOM     10 CL   UNL A   1     -28.991   1.829  30.749  0.00  0.00    -0.092 Cl
BRANCH   9  15
ATOM     11  O   UNL A   1     -28.123  -1.335  28.487  0.00  0.00    -0.273 OA
ATOM     12  C   UNL A   1     -27.064  -0.824  28.869  0.00  0.00    +0.248 C 
ATOM     13  N   UNL A   1     -25.977  -1.138  28.814  0.00  0.00    -0.179 NA
ATOM     14  C   UNL A   1     -24.767  -0.346  29.163  0.00  0.00    +0.073 A 
ATOM     15  C   UNL A   1     -27.168   0.755  29.289  0.00  0.00    +0.117 C 
ATOM     16  C   UNL A   1     -24.944   0.930  29.540  0.00  0.00    -0.006 A 
ATOM     17  C   UNL A   1     -26.170   1.450  29.584  0.00  0.00    +0.040 C 
ATOM     18  C   UNL A   1     -23.422  -0.954  29.098  0.00  0.00    +0.058 A 
ATOM     19  C   UNL A   1     -22.308  -0.073  29.213  0.00  0.00    +0.197 A 
ATOM     20  C   UNL A   1     -22.478   1.233  29.449  0.00  0.00    +0.042 A 
ATOM     21  C   UNL A   1     -23.691   1.742  29.696  0.00  0.00    +0.000 A 
ATOM     22  O   UNL A   1     -21.093  -0.605  29.046  0.00  0.00    -0.286 OA
ENDBRANCH   9  15
ENDBRANCH   1   9
BRANCH   6  23
ATOM     23  C   UNL A   1     -29.229   1.130  24.590  0.00  0.00    +0.017 C 
ATOM     24  C   UNL A   1     -29.845   1.954  23.605  0.00  0.00    +0.001 C 
BRANCH  23  25
ATOM     25  C   UNL A   1     -29.416  -0.228  24.552  0.00  0.00    +0.027 C 
BRANCH  25  26
ATOM     26  C   UNL A   1     -30.558  -0.852  24.396  0.00  0.00    -0.022 A 
ATOM     27  C   UNL A   1     -30.642  -2.328  24.435  0.00  0.00    -0.004 A 
ATOM     28  C   UNL A   1     -31.839  -0.208  24.617  0.00  0.00    +0.002 A 
ATOM     29  C   UNL A   1     -33.055  -0.854  24.648  0.00  0.00    +0.075 A 
ATOM     30  C   UNL A   1     -31.941  -2.881  24.478  0.00  0.00    -0.000 A 
ATOM     31  C   UNL A   1     -33.110  -2.182  24.558  0.00  0.00    +0.006 A 
BRANCH  29  32
ATOM     32  C   UNL A   1     -34.298  -0.049  24.708  0.00  0.00    +0.341 C 
ATOM     33  O   UNL A   1     -34.938   0.187  23.728  0.00  0.00    -0.245 OA
BRANCH  32  34
ATOM     34  O   UNL A   1     -34.640   0.462  25.860  0.00  0.00    -0.441 OA
ATOM     35  C   UNL A   1     -35.198   1.420  26.170  0.00  0.00    +0.256 C 
ENDBRANCH  32  34
ENDBRANCH  29  32
ENDBRANCH  25  26
ENDBRANCH  23  25
ENDBRANCH   6  23
TORSDOF 7
