MODEL 1844
MODEL 1
REMARK VINA RESULT:    -7.889      0.000      0.000
REMARK INTER + INTRA:         -12.698
REMARK INTER:                 -11.117
REMARK INTRA:                  -1.580
REMARK UNBOUND:                -1.580
REMARK  Name = No_1844-gen_results/8p0m/2024-11-26-14-13-15/
REMARK  7 active torsions:
REMARK  status: ('A' for Active; 'I' for Inactive)
REMARK    1  A    between atoms: C_5  and  C_13
REMARK    2  A    between atoms: C_13  and  N_14
REMARK    3  A    between atoms: C_19  and  C_22
REMARK    4  A    between atoms: C_22  and  C_24
REMARK    5  A    between atoms: C_24  and  C_25
REMARK    6  A    between atoms: C_28  and  C_32
REMARK    7  A    between atoms: C_32  and  O_34
REMARK                            x       y       z     vdW  Elec       q    Type
REMARK                         _______ _______ _______ _____ _____    ______ ____
ROOT
ATOM      1  N   UNL A   1     -28.612   0.554  23.948  0.00  0.00    -0.244 N 
ATOM      2  C   UNL A   1     -28.401   1.574  23.348  0.00  0.00    +0.069 C 
ATOM      3  C   UNL A   1     -28.120   2.643  23.524  0.00  0.00    +0.016 C 
ATOM      4  C   UNL A   1     -28.032   3.074  24.954  0.00  0.00    -0.003 C 
ATOM      5  C   UNL A   1     -27.364   2.549  25.818  0.00  0.00    -0.017 C 
ATOM      6  C   UNL A   1     -26.454   1.520  25.610  0.00  0.00    +0.099 C 
ATOM      7  C   UNL A   1     -27.654   0.639  25.318  0.00  0.00    +0.234 C 
ATOM      8  O   UNL A   1     -27.957   0.279  26.285  0.00  0.00    -0.274 OA
ENDROOT
BRANCH   1   9
ATOM      9  C   UNL A   1     -29.672   0.047  24.085  0.00  0.00    +0.169 C 
ATOM     10 CL   UNL A   1     -29.865  -1.505  23.947  0.00  0.00    -0.092 Cl
BRANCH   9  15
ATOM     11  O   UNL A   1     -31.052   1.420  25.991  0.00  0.00    -0.273 OA
ATOM     12  C   UNL A   1     -31.680   1.474  24.927  0.00  0.00    +0.248 C 
ATOM     13  N   UNL A   1     -32.593   2.050  24.583  0.00  0.00    -0.179 NA
ATOM     14  C   UNL A   1     -33.155   2.158  23.210  0.00  0.00    +0.073 A 
ATOM     15  C   UNL A   1     -30.914   0.821  23.636  0.00  0.00    +0.117 C 
ATOM     16  C   UNL A   1     -32.487   1.556  22.213  0.00  0.00    -0.006 A 
ATOM     17  C   UNL A   1     -31.357   0.898  22.468  0.00  0.00    +0.040 C 
ATOM     18  C   UNL A   1     -34.408   2.901  22.964  0.00  0.00    +0.058 A 
ATOM     19  C   UNL A   1     -34.750   3.160  21.605  0.00  0.00    +0.197 A 
ATOM     20  C   UNL A   1     -34.007   2.682  20.600  0.00  0.00    +0.042 A 
ATOM     21  C   UNL A   1     -32.983   1.851  20.827  0.00  0.00    +0.000 A 
ATOM     22  O   UNL A   1     -35.824   3.925  21.384  0.00  0.00    -0.286 OA
ENDBRANCH   9  15
ENDBRANCH   1   9
BRANCH   6  23
ATOM     23  C   UNL A   1     -25.256   1.173  25.610  0.00  0.00    +0.017 C 
ATOM     24  C   UNL A   1     -24.754   0.316  24.589  0.00  0.00    +0.001 C 
BRANCH  23  25
ATOM     25  C   UNL A   1     -24.438   1.547  26.645  0.00  0.00    +0.027 C 
BRANCH  25  26
ATOM     26  C   UNL A   1     -23.608   0.773  27.299  0.00  0.00    -0.022 A 
ATOM     27  C   UNL A   1     -22.244   1.224  27.647  0.00  0.00    -0.004 A 
ATOM     28  C   UNL A   1     -24.054  -0.350  28.104  0.00  0.00    +0.002 A 
ATOM     29  C   UNL A   1     -23.254  -1.081  28.954  0.00  0.00    +0.075 A 
ATOM     30  C   UNL A   1     -21.519   0.401  28.538  0.00  0.00    -0.000 A 
ATOM     31  C   UNL A   1     -21.987  -0.722  29.156  0.00  0.00    +0.006 A 
BRANCH  29  32
ATOM     32  C   UNL A   1     -23.800  -2.309  29.579  0.00  0.00    +0.341 C 
ATOM     33  O   UNL A   1     -24.415  -2.270  30.601  0.00  0.00    -0.245 OA
BRANCH  32  34
ATOM     34  O   UNL A   1     -23.526  -3.455  29.016  0.00  0.00    -0.441 OA
ATOM     35  C   UNL A   1     -24.169  -4.269  28.516  0.00  0.00    +0.256 C 
ENDBRANCH  32  34
ENDBRANCH  29  32
ENDBRANCH  25  26
ENDBRANCH  23  25
ENDBRANCH   6  23
TORSDOF 7
ENDMDL
ENDMDL
