REMARK  Name = No_1845-gen_results/8p0m/2024-11-26-14-13-15/
REMARK  2 active torsions:
REMARK  status: ('A' for Active; 'I' for Inactive)
REMARK    1  A    between atoms: C_10  and  C_11
REMARK    2  A    between atoms: C_11  and  C_13
REMARK                            x       y       z     vdW  Elec       q    Type
REMARK                         _______ _______ _______ _____ _____    ______ ____
ROOT
ATOM      1  C   UNL A   1     -28.016  -0.814  28.878  0.00  0.00    -0.000 A 
ATOM      2  C   UNL A   1     -28.469  -0.785  29.829  0.00  0.00    -0.000 A 
ATOM      3  C   UNL A   1     -28.182   0.428  28.113  0.00  0.00    -0.000 A 
ATOM      4  C   UNL A   1     -27.450   0.643  26.850  0.00  0.00    -0.000 A 
ATOM      5  C   UNL A   1     -26.181   0.036  26.715  0.00  0.00    -0.000 A 
ATOM      6  C   UNL A   1     -25.780  -0.933  27.694  0.00  0.00    -0.000 A 
ATOM      7  C   UNL A   1     -26.557  -1.213  28.741  0.00  0.00    -0.004 A 
ATOM      8  C   UNL A   1     -28.333  -2.029  30.737  0.00  0.00    -0.000 A 
ATOM      9  C   UNL A   1     -27.091  -2.724  30.569  0.00  0.00    -0.004 A 
ATOM     10  C   UNL A   1     -26.148  -2.364  29.569  0.00  0.00    -0.015 A 
ENDROOT
BRANCH  10  11
ATOM     11  C   UNL A   1     -25.019  -3.147  29.325  0.00  0.00    +0.087 C 
ATOM     12  C   UNL A   1     -23.750  -2.621  29.607  0.00  0.00    +0.013 C 
BRANCH  11  13
ATOM     13  C   UNL A   1     -25.157  -4.507  29.008  0.00  0.00    +0.211 C 
ATOM     14  O   UNL A   1     -26.290  -5.041  29.009  0.00  0.00    -0.288 OA
ENDBRANCH  11  13
ENDBRANCH  10  11
TORSDOF 2
