MODEL 1845
MODEL 1
REMARK VINA RESULT:    -6.412      0.000      0.000
REMARK INTER + INTRA:          -7.250
REMARK INTER:                  -7.162
REMARK INTRA:                  -0.088
REMARK UNBOUND:                -0.088
REMARK  Name = No_1845-gen_results/8p0m/2024-11-26-14-13-15/
REMARK  2 active torsions:
REMARK  status: ('A' for Active; 'I' for Inactive)
REMARK    1  A    between atoms: C_10  and  C_11
REMARK    2  A    between atoms: C_11  and  C_13
REMARK                            x       y       z     vdW  Elec       q    Type
REMARK                         _______ _______ _______ _____ _____    ______ ____
ROOT
ATOM      1  C   UNL A   1     -25.956  -3.106  29.993  0.00  0.00    -0.000 A 
ATOM      2  C   UNL A   1     -26.836  -2.549  30.149  0.00  0.00    -0.000 A 
ATOM      3  C   UNL A   1     -26.207  -4.505  29.626  0.00  0.00    -0.000 A 
ATOM      4  C   UNL A   1     -25.107  -5.379  29.176  0.00  0.00    -0.000 A 
ATOM      5  C   UNL A   1     -24.029  -4.777  28.489  0.00  0.00    -0.000 A 
ATOM      6  C   UNL A   1     -23.944  -3.345  28.473  0.00  0.00    -0.000 A 
ATOM      7  C   UNL A   1     -24.890  -2.595  29.039  0.00  0.00    -0.004 A 
ATOM      8  C   UNL A   1     -26.694  -1.052  30.512  0.00  0.00    -0.000 A 
ATOM      9  C   UNL A   1     -25.561  -0.423  29.901  0.00  0.00    -0.004 A 
ATOM     10  C   UNL A   1     -24.603  -1.151  29.146  0.00  0.00    -0.015 A 
ENDROOT
BRANCH  10  11
ATOM     11  C   UNL A   1     -23.431  -0.547  28.690  0.00  0.00    +0.087 C 
ATOM     12  C   UNL A   1     -23.494   0.324  27.593  0.00  0.00    +0.013 C 
BRANCH  11  13
ATOM     13  C   UNL A   1     -22.250  -0.637  29.443  0.00  0.00    +0.211 C 
ATOM     14  O   UNL A   1     -21.193  -1.043  28.907  0.00  0.00    -0.288 OA
ENDBRANCH  11  13
ENDBRANCH  10  11
TORSDOF 2
ENDMDL
ENDMDL
