MODEL 1846
MODEL 1
REMARK VINA RESULT:    -7.405      0.000      0.000
REMARK INTER + INTRA:          -9.424
REMARK INTER:                  -8.704
REMARK INTRA:                  -0.721
REMARK UNBOUND:                -0.721
REMARK  Name = No_1846-gen_results/8p0m/2024-11-26-14-13-15/
REMARK  3 active torsions:
REMARK  status: ('A' for Active; 'I' for Inactive)
REMARK    1  A    between atoms: C_1  and  C_6
REMARK    2  A    between atoms: C_3  and  C_14
REMARK    3  A    between atoms: C_5  and  C_10
REMARK                            x       y       z     vdW  Elec       q    Type
REMARK                         _______ _______ _______ _____ _____    ______ ____
ROOT
ATOM      1  C   UNL A   1     -10.796   1.205  35.091  0.00  0.00    +0.080 A 
ATOM      2  C   UNL A   1     -11.128   0.650  36.113  0.00  0.00    +0.007 A 
ATOM      3  C   UNL A   1     -10.336  -0.223  36.840  0.00  0.00    +0.000 A 
ATOM      4  C   UNL A   1      -9.015  -0.457  36.356  0.00  0.00    +0.004 A 
ATOM      5  C   UNL A   1      -8.628   0.292  35.302  0.00  0.00    +0.072 A 
ATOM      6  C   UNL A   1      -9.481   1.114  34.712  0.00  0.00    +0.010 A 
ENDROOT
BRANCH   3   7
ATOM      7  C   UNL A   1     -10.844  -1.007  38.029  0.00  0.00    +0.001 A 
ATOM      8  C   UNL A   1     -10.279  -0.828  39.175  0.00  0.00    +0.011 A 
ATOM      9  C   UNL A   1     -10.642  -1.616  40.364  0.00  0.00    +0.058 A 
ATOM     10  C   UNL A   1     -11.894  -2.292  40.233  0.00  0.00    +0.011 A 
ATOM     11  C   UNL A   1     -11.720  -2.097  37.879  0.00  0.00    +0.000 A 
ATOM     12  C   UNL A   1     -12.267  -2.728  38.930  0.00  0.00    +0.001 A 
ATOM     13 CL   UNL A   1     -10.061  -1.362  41.887  0.00  0.00    -0.082 Cl
ENDBRANCH   3   7
BRANCH   5  14
ATOM     14  C   UNL A   1      -7.210  -0.107  34.934  0.00  0.00    +0.419 C 
ATOM     15  F   UNL A   1      -6.465  -0.513  35.645  0.00  0.00    -0.166 F 
ATOM     16  F   UNL A   1      -6.762   0.903  34.142  0.00  0.00    -0.166 F 
ATOM     17  F   UNL A   1      -7.378  -1.138  33.952  0.00  0.00    -0.166 F 
ENDBRANCH   5  14
BRANCH   1  18
ATOM     18  C   UNL A   1     -11.683   2.142  34.459  0.00  0.00    +0.388 C 
ATOM     19  O   UNL A   1     -11.760   3.201  34.579  0.00  0.00    -0.241 OA
ATOM     20  O   UNL A   1     -12.390   1.613  33.370  0.00  0.00    -0.241 OA
ENDBRANCH   1  18
TORSDOF 3
ENDMDL
ENDMDL
