REMARK  Name = No_1846-gen_results/8p0m/2024-11-26-14-13-15/
REMARK  3 active torsions:
REMARK  status: ('A' for Active; 'I' for Inactive)
REMARK    1  A    between atoms: C_1  and  C_6
REMARK    2  A    between atoms: C_3  and  C_14
REMARK    3  A    between atoms: C_5  and  C_10
REMARK                            x       y       z     vdW  Elec       q    Type
REMARK                         _______ _______ _______ _____ _____    ______ ____
ROOT
ATOM      1  C   UNL A   1     -28.016  -0.814  28.878  0.00  0.00    +0.080 A 
ATOM      2  C   UNL A   1     -27.064  -0.119  28.608  0.00  0.00    +0.007 A 
ATOM      3  C   UNL A   1     -26.972   0.714  27.506  0.00  0.00    +0.000 A 
ATOM      4  C   UNL A   1     -28.105   0.774  26.642  0.00  0.00    +0.004 A 
ATOM      5  C   UNL A   1     -29.201   0.104  27.053  0.00  0.00    +0.072 A 
ATOM      6  C   UNL A   1     -29.164  -0.639  28.148  0.00  0.00    +0.010 A 
ENDROOT
BRANCH   3   7
ATOM      7  C   UNL A   1     -25.707   1.452  27.129  0.00  0.00    +0.001 A 
ATOM      8  C   UNL A   1     -24.571   0.949  27.477  0.00  0.00    +0.011 A 
ATOM      9  C   UNL A   1     -23.295   1.645  27.238  0.00  0.00    +0.058 A 
ATOM     10  C   UNL A   1     -23.397   2.696  26.276  0.00  0.00    +0.011 A 
ATOM     11  C   UNL A   1     -25.734   2.774  26.651  0.00  0.00    +0.000 A 
ATOM     12  C   UNL A   1     -24.633   3.400  26.206  0.00  0.00    +0.001 A 
ATOM     13 CL   UNL A   1     -21.799   1.016  27.535  0.00  0.00    -0.082 Cl
ENDBRANCH   3   7
BRANCH   5  14
ATOM     14  C   UNL A   1     -30.285   0.281  26.005  0.00  0.00    +0.419 C 
ATOM     15  F   UNL A   1     -30.098   0.457  24.929  0.00  0.00    -0.166 F 
ATOM     16  F   UNL A   1     -31.187   1.120  26.579  0.00  0.00    -0.166 F 
ATOM     17  F   UNL A   1     -31.023  -0.948  26.051  0.00  0.00    -0.166 F 
ENDBRANCH   5  14
BRANCH   1  18
ATOM     18  C   UNL A   1     -28.022  -1.590  30.088  0.00  0.00    +0.388 C 
ATOM     19  O   UNL A   1     -28.845  -1.957  30.662  0.00  0.00    -0.241 OA
ATOM     20  O   UNL A   1     -26.772  -2.123  30.430  0.00  0.00    -0.241 OA
ENDBRANCH   1  18
TORSDOF 3
