MODEL 1847
MODEL 1
REMARK VINA RESULT:    -7.045      0.000      0.000
REMARK INTER + INTRA:          -8.757
REMARK INTER:                  -8.692
REMARK INTRA:                  -0.065
REMARK UNBOUND:                -0.065
REMARK  Name = No_1847-gen_results/8p0m/2024-11-26-14-13-15/
REMARK  4 active torsions:
REMARK  status: ('A' for Active; 'I' for Inactive)
REMARK    1  A    between atoms: C_2  and  C_15
REMARK    2  A    between atoms: C_4  and  C_7
REMARK    3  A    between atoms: C_7  and  C_8
REMARK    4  A    between atoms: C_7  and  C_18
REMARK                            x       y       z     vdW  Elec       q    Type
REMARK                         _______ _______ _______ _____ _____    ______ ____
ROOT
ATOM      1  C   UNL A   1     -24.536   1.213  26.899  0.00  0.00    +0.036 A 
ATOM      2  C   UNL A   1     -23.551   1.566  26.777  0.00  0.00    +0.082 A 
ATOM      3  C   UNL A   1     -24.760   0.250  27.990  0.00  0.00    +0.137 A 
ATOM      4  C   UNL A   1     -23.715  -0.062  28.907  0.00  0.00    +0.012 A 
ATOM      5  C   UNL A   1     -22.500   0.523  28.656  0.00  0.00    -0.001 A 
ATOM      6  C   UNL A   1     -22.343   1.380  27.625  0.00  0.00    +0.006 A 
ATOM      7  F   UNL A   1     -25.933  -0.349  28.237  0.00  0.00    -0.204 F 
ENDROOT
BRANCH   2   8
ATOM      8  C   UNL A   1     -23.283   2.607  25.591  0.00  0.00    +0.388 C 
ATOM      9  O   UNL A   1     -22.377   2.401  24.712  0.00  0.00    -0.241 OA
ATOM     10  O   UNL A   1     -24.012   3.594  25.554  0.00  0.00    -0.241 OA
ENDBRANCH   2   8
BRANCH   4  11
ATOM     11  C   UNL A   1     -23.935  -0.997  29.996  0.00  0.00    +0.080 C 
BRANCH  11  12
ATOM     12  C   UNL A   1     -24.532  -2.230  29.654  0.00  0.00    -0.013 A 
ATOM     13  C   UNL A   1     -23.865  -3.193  28.884  0.00  0.00    +0.038 A 
ATOM     14  C   UNL A   1     -24.367  -4.448  28.698  0.00  0.00    +0.195 A 
ATOM     15  C   UNL A   1     -25.882  -2.548  30.003  0.00  0.00    -0.004 A 
ATOM     16  C   UNL A   1     -26.395  -3.837  29.962  0.00  0.00    +0.003 A 
ATOM     17  C   UNL A   1     -25.635  -4.832  29.240  0.00  0.00    +0.042 A 
ATOM     18  O   UNL A   1     -23.675  -5.415  28.041  0.00  0.00    -0.287 OA
ENDBRANCH  11  12
BRANCH  11  19
ATOM     19  C   UNL A   1     -23.568  -0.627  31.289  0.00  0.00    +0.191 C 
ATOM     20  O   UNL A   1     -24.420  -0.764  32.252  0.00  0.00    -0.220 OA
ENDBRANCH  11  19
ENDBRANCH   4  11
TORSDOF 4
ENDMDL
ENDMDL
