MODEL 1848
MODEL 1
REMARK VINA RESULT:    -7.826      0.000      0.000
REMARK INTER + INTRA:         -11.656
REMARK INTER:                 -10.113
REMARK INTRA:                  -1.543
REMARK UNBOUND:                -1.543
REMARK  Name = No_1848-gen_results/8p0m/2024-11-26-14-13-15/
REMARK  5 active torsions:
REMARK  status: ('A' for Active; 'I' for Inactive)
REMARK    1  A    between atoms: C_6  and  C_8
REMARK    2  A    between atoms: C_8  and  N_9
REMARK    3  A    between atoms: C_8  and  C_10
REMARK    4  A    between atoms: C_11  and  C_12
REMARK    5  A    between atoms: C_11  and  C_23
REMARK                            x       y       z     vdW  Elec       q    Type
REMARK                         _______ _______ _______ _____ _____    ______ ____
ROOT
ATOM      1  C   UNL A   1     -25.156  -0.096  29.910  0.00  0.00    +0.024 C 
ATOM      2  C   UNL A   1     -23.791   0.110  30.222  0.00  0.00    +0.021 C 
ATOM      3  C   UNL A   1     -26.228   0.690  30.481  0.00  0.00    +0.002 C 
ATOM      4  C   UNL A   1     -23.879   1.042  31.472  0.00  0.00    +0.004 C 
ATOM      5  C   UNL A   1     -26.242   1.237  31.346  0.00  0.00    +0.000 C 
ATOM      6  C   UNL A   1     -24.987   1.565  32.067  0.00  0.00    +0.000 C 
ENDROOT
BRANCH   2   7
ATOM      7  C   UNL A   1     -22.991   0.401  29.433  0.00  0.00    -0.023 A 
ATOM      8  C   UNL A   1     -21.748  -0.308  29.296  0.00  0.00    -0.004 A 
ATOM      9  C   UNL A   1     -20.744   0.001  28.273  0.00  0.00    -0.000 A 
ATOM     10  C   UNL A   1     -20.980   1.243  27.597  0.00  0.00    -0.000 A 
ATOM     11  C   UNL A   1     -23.006   1.514  28.433  0.00  0.00    -0.004 A 
ATOM     12  C   UNL A   1     -22.063   1.878  27.572  0.00  0.00    -0.000 A 
ENDBRANCH   2   7
BRANCH   2  13
ATOM     13  C   UNL A   1     -23.485  -1.262  31.010  0.00  0.00    +0.004 C 
ATOM     14  C   UNL A   1     -23.028  -1.044  32.368  0.00  0.00    +0.000 C 
ENDBRANCH   2  13
BRANCH   1  15
ATOM     15  C   UNL A   1     -25.609  -0.988  28.886  0.00  0.00    +0.095 C 
BRANCH  15  21
ATOM     16  F   UNL A   1     -23.469  -5.241  28.165  0.00  0.00    -0.204 F 
ATOM     17  C   UNL A   1     -24.432  -4.610  28.617  0.00  0.00    +0.140 A 
ATOM     18  C   UNL A   1     -25.287  -5.137  29.275  0.00  0.00    +0.030 A 
ATOM     19  C   UNL A   1     -26.440  -4.528  29.926  0.00  0.00    +0.002 A 
ATOM     20  C   UNL A   1     -26.507  -3.080  29.722  0.00  0.00    -0.003 A 
ATOM     21  C   UNL A   1     -25.476  -2.492  29.001  0.00  0.00    -0.004 A 
ATOM     22  C   UNL A   1     -24.458  -3.185  28.459  0.00  0.00    +0.027 A 
ENDBRANCH  15  21
BRANCH  15  23
ATOM     23  N   UNL A   1     -26.206  -0.395  27.832  0.00  0.00    -0.213 NA
ATOM     24  C   UNL A   1     -26.028   0.111  26.814  0.00  0.00    +0.108 C 
ENDBRANCH  15  23
ENDBRANCH   1  15
TORSDOF 5
ENDMDL
ENDMDL
