REMARK  Name = No_1848-gen_results/8p0m/2024-11-26-14-13-15/
REMARK  5 active torsions:
REMARK  status: ('A' for Active; 'I' for Inactive)
REMARK    1  A    between atoms: C_6  and  C_8
REMARK    2  A    between atoms: C_8  and  N_9
REMARK    3  A    between atoms: C_8  and  C_10
REMARK    4  A    between atoms: C_11  and  C_12
REMARK    5  A    between atoms: C_11  and  C_23
REMARK                            x       y       z     vdW  Elec       q    Type
REMARK                         _______ _______ _______ _____ _____    ______ ____
ROOT
ATOM      1  C   UNL A   1     -26.251   3.927  28.956  0.00  0.00    +0.024 C 
ATOM      2  C   UNL A   1     -27.133   3.788  30.053  0.00  0.00    +0.021 C 
ATOM      3  C   UNL A   1     -25.857   5.208  28.411  0.00  0.00    +0.002 C 
ATOM      4  C   UNL A   1     -27.730   5.226  30.177  0.00  0.00    +0.004 C 
ATOM      5  C   UNL A   1     -26.329   6.114  28.478  0.00  0.00    +0.000 C 
ATOM      6  C   UNL A   1     -27.429   6.337  29.449  0.00  0.00    +0.000 C 
ENDROOT
BRANCH   2   7
ATOM      7  C   UNL A   1     -26.836   3.279  31.053  0.00  0.00    -0.023 A 
ATOM      8  C   UNL A   1     -25.632   3.616  31.764  0.00  0.00    -0.004 A 
ATOM      9  C   UNL A   1     -25.260   3.031  33.055  0.00  0.00    -0.000 A 
ATOM     10  C   UNL A   1     -26.055   1.895  33.419  0.00  0.00    -0.000 A 
ATOM     11  C   UNL A   1     -27.542   2.203  31.816  0.00  0.00    -0.004 A 
ATOM     12  C   UNL A   1     -27.169   1.583  32.929  0.00  0.00    -0.000 A 
ENDBRANCH   2   7
BRANCH   2  13
ATOM     13  C   UNL A   1     -28.389   3.109  29.305  0.00  0.00    +0.004 C 
ATOM     14  C   UNL A   1     -29.641   3.307  30.008  0.00  0.00    +0.000 C 
ENDBRANCH   2  13
BRANCH   1  15
ATOM     15  C   UNL A   1     -25.533   2.834  28.372  0.00  0.00    +0.095 C 
BRANCH  15  21
ATOM     16  F   UNL A   1     -28.073  -1.254  28.532  0.00  0.00    -0.204 F 
ATOM     17  C   UNL A   1     -27.061  -0.629  28.872  0.00  0.00    +0.140 A 
ATOM     18  C   UNL A   1     -26.153  -1.156  29.454  0.00  0.00    +0.030 A 
ATOM     19  C   UNL A   1     -24.878  -0.579  29.864  0.00  0.00    +0.002 A 
ATOM     20  C   UNL A   1     -24.743   0.827  29.481  0.00  0.00    -0.003 A 
ATOM     21  C   UNL A   1     -25.788   1.393  28.763  0.00  0.00    -0.004 A 
ATOM     22  C   UNL A   1     -26.915   0.731  28.443  0.00  0.00    +0.027 A 
ENDBRANCH  15  21
BRANCH  15  23
ATOM     23  N   UNL A   1     -24.647   3.176  27.415  0.00  0.00    -0.213 NA
ATOM     24  C   UNL A   1     -24.447   3.187  26.282  0.00  0.00    +0.108 C 
ENDBRANCH  15  23
ENDBRANCH   1  15
TORSDOF 5
