REMARK  Name = No_1849-gen_results/8p0m/2024-11-26-14-13-15/
REMARK  2 active torsions:
REMARK  status: ('A' for Active; 'I' for Inactive)
REMARK    1  A    between atoms: C_2  and  C_4
REMARK    2  A    between atoms: C_5  and  C_6
REMARK                            x       y       z     vdW  Elec       q    Type
REMARK                         _______ _______ _______ _____ _____    ______ ____
ROOT
ATOM      1  C   UNL A   1     -27.449   1.131  30.275  0.00  0.00    +0.025 C 
ATOM      2  C   UNL A   1     -26.618   1.825  30.538  0.00  0.00    -0.001 C 
ENDROOT
BRANCH   1   4
ATOM      3 CL   UNL A   1     -28.149  -0.820  28.908  0.00  0.00    -0.072 Cl
ATOM      4  C   UNL A   1     -27.834   0.496  29.060  0.00  0.00    +0.262 C 
ATOM      5  F   UNL A   1     -27.790   1.142  28.045  0.00  0.00    -0.214 F 
ENDBRANCH   1   4
BRANCH   2   6
ATOM      6  C   UNL A   1     -26.282   2.533  31.816  0.00  0.00    -0.005 C 
ATOM      7  C   UNL A   1     -26.999   2.060  32.907  0.00  0.00    -0.026 C 
ATOM      8  C   UNL A   1     -27.977   1.112  32.684  0.00  0.00    +0.031 C 
ENDBRANCH   2   6
TORSDOF 2
