MODEL 1849
MODEL 1
REMARK VINA RESULT:    -4.342      0.000      0.000
REMARK INTER + INTRA:          -4.980
REMARK INTER:                  -4.849
REMARK INTRA:                  -0.131
REMARK UNBOUND:                -0.131
REMARK  Name = No_1849-gen_results/8p0m/2024-11-26-14-13-15/
REMARK  2 active torsions:
REMARK  status: ('A' for Active; 'I' for Inactive)
REMARK    1  A    between atoms: C_2  and  C_4
REMARK    2  A    between atoms: C_5  and  C_6
REMARK                            x       y       z     vdW  Elec       q    Type
REMARK                         _______ _______ _______ _____ _____    ______ ____
ROOT
ATOM      1  C   UNL A   1     -24.254  -3.729  28.886  0.00  0.00    +0.025 C 
ATOM      2  C   UNL A   1     -24.105  -2.720  29.334  0.00  0.00    -0.001 C 
ENDROOT
BRANCH   1   4
ATOM      3 CL   UNL A   1     -26.366  -4.680  29.781  0.00  0.00    -0.072 Cl
ATOM      4  C   UNL A   1     -25.151  -4.796  29.177  0.00  0.00    +0.262 C 
ATOM      5  F   UNL A   1     -24.780  -5.922  28.964  0.00  0.00    -0.214 F 
ENDBRANCH   1   4
BRANCH   2   6
ATOM      6  C   UNL A   1     -23.100  -1.645  29.049  0.00  0.00    -0.005 C 
ATOM      7  C   UNL A   1     -22.816  -0.856  30.155  0.00  0.00    -0.026 C 
ATOM      8  C   UNL A   1     -23.539  -1.067  31.311  0.00  0.00    +0.031 C 
ENDBRANCH   2   6
TORSDOF 2
ENDMDL
ENDMDL
