REMARK  Name = No_185-gen_results/8p0m/2024-11-26-14-13-15/
REMARK  0 active torsions:
REMARK  status: ('A' for Active; 'I' for Inactive)
REMARK                            x       y       z     vdW  Elec       q    Type
REMARK                         _______ _______ _______ _____ _____    ______ ____
ROOT
ATOM      1  C   UNL A   1     -28.016  -0.814  28.878  0.00  0.00    +0.145 A 
ATOM      2  C   UNL A   1     -28.469  -0.785  29.829  0.00  0.00    +0.088 A 
ATOM      3  C   UNL A   1     -26.504  -0.778  28.877  0.00  0.00    +0.037 A 
ATOM      4  C   UNL A   1     -25.810  -0.853  30.103  0.00  0.00    +0.003 A 
ATOM      5  C   UNL A   1     -30.014  -0.841  29.851  0.00  0.00    +0.254 C 
ATOM      6  C   UNL A   1     -26.567  -0.885  31.252  0.00  0.00    +0.000 A 
ATOM      7  C   UNL A   1     -27.941  -0.907  31.185  0.00  0.00    +0.008 A 
ATOM      8  O   UNL A   1     -30.656  -1.692  30.181  0.00  0.00    -0.270 OA
ATOM      9  N   UNL A   1     -30.570   0.129  28.912  0.00  0.00    -0.244 N 
ATOM     10  C   UNL A   1     -31.562   0.355  28.609  0.00  0.00    +0.097 C 
ATOM     11  C   UNL A   1     -31.853   1.010  27.537  0.00  0.00    +0.022 C 
ATOM     12  C   UNL A   1     -30.790   1.649  26.819  0.00  0.00    +0.007 C 
ATOM     13  C   UNL A   1     -29.504   1.439  27.174  0.00  0.00    +0.066 C 
ATOM     14  C   UNL A   1     -29.329   0.618  28.187  0.00  0.00    +0.247 C 
ATOM     15  O   UNL A   1     -28.527  -0.223  27.792  0.00  0.00    -0.460 OA
ENDROOT
TORSDOF 0
