MODEL 1850
MODEL 1
REMARK VINA RESULT:    -7.201      0.000      0.000
REMARK INTER + INTRA:          -4.355
REMARK INTER:                  -8.042
REMARK INTRA:                   3.688
REMARK UNBOUND:                 3.688
REMARK  Name = No_1850-gen_results/8p0m/2024-11-26-14-13-15/
REMARK  2 active torsions:
REMARK  status: ('A' for Active; 'I' for Inactive)
REMARK    1  A    between atoms: C_4  and  C_8
REMARK    2  A    between atoms: C_19  and  C_20
REMARK                            x       y       z     vdW  Elec       q    Type
REMARK                         _______ _______ _______ _____ _____    ______ ____
ROOT
ATOM      1  C   UNL A   1     -30.835 -11.600  12.583  0.00  0.00    -0.004 A 
ATOM      2  C   UNL A   1     -30.465 -12.384  13.183  0.00  0.00    -0.000 A 
ATOM      3  C   UNL A   1     -31.071 -11.871  11.217  0.00  0.00    -0.019 A 
ATOM      4  C   UNL A   1     -31.690 -10.915  10.262  0.00  0.00    +0.037 C 
ATOM      5  C   UNL A   1     -30.115 -13.777  12.855  0.00  0.00    -0.000 A 
ATOM      6  C   UNL A   1     -30.321 -14.117  11.518  0.00  0.00    -0.001 A 
ATOM      7  C   UNL A   1     -30.818 -13.213  10.667  0.00  0.00    -0.008 A 
ATOM      8  C   UNL A   1     -31.759  -9.622  10.768  0.00  0.00    +0.009 C 
ATOM      9  C   UNL A   1     -30.593 -10.867   9.098  0.00  0.00    +0.010 C 
ATOM     10  C   UNL A   1     -29.993 -15.479  11.028  0.00  0.00    -0.000 A 
ATOM     11  C   UNL A   1     -30.199 -15.781   9.833  0.00  0.00    -0.000 A 
ATOM     12  C   UNL A   1     -30.682 -14.736   8.951  0.00  0.00    -0.004 A 
ATOM     13  C   UNL A   1     -30.997 -13.501   9.375  0.00  0.00    -0.023 A 
ATOM     14  C   UNL A   1     -31.017 -12.496   8.387  0.00  0.00    +0.019 C 
ATOM     15  C   UNL A   1     -29.439 -12.648   7.562  0.00  0.00    +0.004 C 
ATOM     16  C   UNL A   1     -30.807  -9.736   8.160  0.00  0.00    +0.001 C 
ATOM     17  C   UNL A   1     -29.138 -10.786   9.553  0.00  0.00    +0.001 C 
ATOM     18  C   UNL A   1     -28.259 -10.899   8.564  0.00  0.00    +0.000 C 
ATOM     19  C   UNL A   1     -26.856 -10.587   8.975  0.00  0.00    +0.000 C 
ATOM     20  C   UNL A   1     -28.172 -12.369   7.918  0.00  0.00    +0.000 C 
ENDROOT
BRANCH   4  21
ATOM     21  C   UNL A   1     -32.848 -11.362   9.728  0.00  0.00    -0.007 C 
ATOM     22  C   UNL A   1     -33.336 -12.553   9.834  0.00  0.00    -0.006 C 
ATOM     23  C   UNL A   1     -34.739 -12.641   9.443  0.00  0.00    -0.002 C 
ATOM     24  C   UNL A   1     -35.396 -11.545   8.751  0.00  0.00    +0.010 C 
ATOM     25  C   UNL A   1     -33.878 -10.470   9.122  0.00  0.00    +0.193 C 
ATOM     26  O   UNL A   1     -33.687 -10.525   7.507  0.00  0.00    -0.214 OA
ENDBRANCH   4  21
BRANCH  14  27
ATOM     27  C   UNL A   1     -31.904 -12.382   7.263  0.00  0.00    +0.004 C 
ATOM     28  C   UNL A   1     -32.518 -13.653   6.566  0.00  0.00    +0.000 C 
ENDBRANCH  14  27
TORSDOF 2
ENDMDL
ENDMDL
