REMARK  Name = No_1850-gen_results/8p0m/2024-11-26-14-13-15/
REMARK  2 active torsions:
REMARK  status: ('A' for Active; 'I' for Inactive)
REMARK    1  A    between atoms: C_4  and  C_8
REMARK    2  A    between atoms: C_19  and  C_20
REMARK                            x       y       z     vdW  Elec       q    Type
REMARK                         _______ _______ _______ _____ _____    ______ ____
ROOT
ATOM      1  C   UNL A   1     -28.016  -0.814  28.878  0.00  0.00    -0.004 A 
ATOM      2  C   UNL A   1     -28.469  -0.785  29.829  0.00  0.00    -0.000 A 
ATOM      3  C   UNL A   1     -27.136   0.236  28.535  0.00  0.00    -0.019 A 
ATOM      4  C   UNL A   1     -26.335   0.290  27.284  0.00  0.00    +0.037 C 
ATOM      5  C   UNL A   1     -28.369   0.196  30.924  0.00  0.00    -0.000 A 
ATOM      6  C   UNL A   1     -27.516   1.266  30.654  0.00  0.00    -0.001 A 
ATOM      7  C   UNL A   1     -26.859   1.321  29.491  0.00  0.00    -0.008 A 
ATOM      8  C   UNL A   1     -26.742  -0.651  26.346  0.00  0.00    +0.009 C 
ATOM      9  C   UNL A   1     -26.765   1.712  26.688  0.00  0.00    +0.010 C 
ATOM     10  C   UNL A   1     -27.328   2.349  31.651  0.00  0.00    -0.000 A 
ATOM     11  C   UNL A   1     -26.547   3.294  31.410  0.00  0.00    -0.000 A 
ATOM     12  C   UNL A   1     -25.914   3.323  30.105  0.00  0.00    -0.004 A 
ATOM     13  C   UNL A   1     -26.059   2.348  29.193  0.00  0.00    -0.023 A 
ATOM     14  C   UNL A   1     -25.773   2.703  27.860  0.00  0.00    +0.019 C 
ATOM     15  C   UNL A   1     -26.740   4.178  27.571  0.00  0.00    +0.004 C 
ATOM     16  C   UNL A   1     -26.356   1.882  25.271  0.00  0.00    +0.001 C 
ATOM     17  C   UNL A   1     -28.254   2.041  26.754  0.00  0.00    +0.001 C 
ATOM     18  C   UNL A   1     -28.545   3.284  26.388  0.00  0.00    +0.000 C 
ATOM     19  C   UNL A   1     -30.011   3.531  26.230  0.00  0.00    +0.000 C 
ATOM     20  C   UNL A   1     -28.057   4.413  27.424  0.00  0.00    +0.000 C 
ENDROOT
BRANCH   4  21
ATOM     21  C   UNL A   1     -25.001   0.313  27.501  0.00  0.00    -0.007 C 
ATOM     22  C   UNL A   1     -24.082  -0.111  26.699  0.00  0.00    -0.006 C 
ATOM     23  C   UNL A   1     -22.744   0.348  27.057  0.00  0.00    -0.002 C 
ATOM     24  C   UNL A   1     -22.484   0.978  28.341  0.00  0.00    +0.010 C 
ATOM     25  C   UNL A   1     -24.358   1.062  28.620  0.00  0.00    +0.193 C 
ATOM     26  O   UNL A   1     -24.033  -0.006  29.804  0.00  0.00    -0.214 OA
ENDBRANCH   4  21
BRANCH  14  27
ATOM     27  C   UNL A   1     -24.507   3.092  27.303  0.00  0.00    +0.004 C 
ATOM     28  C   UNL A   1     -24.412   4.110  26.106  0.00  0.00    +0.000 C 
ENDBRANCH  14  27
TORSDOF 2
