MODEL 1851
MODEL 1
REMARK VINA RESULT:    -6.960      0.000      0.000
REMARK INTER + INTRA:          -7.209
REMARK INTER:                  -7.367
REMARK INTRA:                   0.158
REMARK UNBOUND:                 0.158
REMARK  Name = No_1851-gen_results/8p0m/2024-11-26-14-13-15/
REMARK  1 active torsions:
REMARK  status: ('A' for Active; 'I' for Inactive)
REMARK    1  A    between atoms: C_3  and  C_15
REMARK                            x       y       z     vdW  Elec       q    Type
REMARK                         _______ _______ _______ _____ _____    ______ ____
ROOT
ATOM      1  C   UNL A   1     -27.013  -4.403  29.860  0.00  0.00    +0.095 A 
ATOM      2  C   UNL A   1     -26.150  -3.562  29.753  0.00  0.00    +0.003 A 
ATOM      3  C   UNL A   1     -24.868  -3.790  29.283  0.00  0.00    +0.095 C 
ATOM      4  C   UNL A   1     -23.797  -2.825  29.221  0.00  0.00    +0.036 C 
ATOM      5  C   UNL A   1     -24.047  -1.506  29.669  0.00  0.00    -0.022 A 
ATOM      6  C   UNL A   1     -25.344  -1.205  30.160  0.00  0.00    -0.004 A 
ATOM      7  C   UNL A   1     -25.576   0.123  30.681  0.00  0.00    -0.000 A 
ATOM      8  C   UNL A   1     -26.298  -2.187  30.247  0.00  0.00    -0.001 A 
ATOM      9  N   UNL A   1     -28.286  -4.036  30.398  0.00  0.00    -0.243 NA
ATOM     10  C   UNL A   1     -24.559   1.002  30.975  0.00  0.00    -0.000 A 
ATOM     11  C   UNL A   1     -23.247   0.724  30.619  0.00  0.00    -0.000 A 
ATOM     12  C   UNL A   1     -22.955  -0.513  29.901  0.00  0.00    -0.004 A 
ATOM     13  C   UNL A   1     -28.457  -2.835  31.027  0.00  0.00    +0.099 A 
ATOM     14  C   UNL A   1     -27.553  -1.771  30.861  0.00  0.00    +0.020 A 
ENDROOT
BRANCH   3  15
ATOM     15  C   UNL A   1     -24.512  -5.135  28.814  0.00  0.00    +0.323 C 
ATOM     16  F   UNL A   1     -24.772  -5.954  29.392  0.00  0.00    -0.198 F 
ATOM     17  F   UNL A   1     -23.709  -5.188  27.847  0.00  0.00    -0.198 F 
ENDBRANCH   3  15
TORSDOF 1
ENDMDL
ENDMDL
