REMARK  Name = No_1851-gen_results/8p0m/2024-11-26-14-13-15/
REMARK  1 active torsions:
REMARK  status: ('A' for Active; 'I' for Inactive)
REMARK    1  A    between atoms: C_3  and  C_15
REMARK                            x       y       z     vdW  Elec       q    Type
REMARK                         _______ _______ _______ _____ _____    ______ ____
ROOT
ATOM      1  C   UNL A   1     -28.016  -0.814  28.878  0.00  0.00    +0.095 A 
ATOM      2  C   UNL A   1     -27.064  -0.119  28.608  0.00  0.00    +0.003 A 
ATOM      3  C   UNL A   1     -26.972   0.714  27.506  0.00  0.00    +0.095 C 
ATOM      4  C   UNL A   1     -25.820   1.491  27.116  0.00  0.00    +0.036 C 
ATOM      5  C   UNL A   1     -24.656   1.424  27.918  0.00  0.00    -0.022 A 
ATOM      6  C   UNL A   1     -24.685   0.590  29.066  0.00  0.00    -0.004 A 
ATOM      7  C   UNL A   1     -23.472   0.470  29.843  0.00  0.00    -0.000 A 
ATOM      8  C   UNL A   1     -25.794  -0.168  29.344  0.00  0.00    -0.001 A 
ATOM      9  N   UNL A   1     -27.962  -1.659  30.031  0.00  0.00    -0.243 NA
ATOM     10  C   UNL A   1     -22.244   0.890  29.387  0.00  0.00    -0.000 A 
ATOM     11  C   UNL A   1     -22.128   1.621  28.213  0.00  0.00    -0.000 A 
ATOM     12  C   UNL A   1     -23.336   1.963  27.470  0.00  0.00    -0.004 A 
ATOM     13  C   UNL A   1     -26.777  -1.889  30.672  0.00  0.00    +0.099 A 
ATOM     14  C   UNL A   1     -25.659  -1.056  30.492  0.00  0.00    +0.020 A 
ENDROOT
BRANCH   3  15
ATOM     15  C   UNL A   1     -28.126   0.832  26.606  0.00  0.00    +0.323 C 
ATOM     16  F   UNL A   1     -29.080   0.833  27.009  0.00  0.00    -0.198 F 
ATOM     17  F   UNL A   1     -27.886   0.695  25.379  0.00  0.00    -0.198 F 
ENDBRANCH   3  15
TORSDOF 1
