REMARK  Name = No_1852-gen_results/8p0m/2024-11-26-14-13-15/
REMARK  2 active torsions:
REMARK  status: ('A' for Active; 'I' for Inactive)
REMARK    1  A    between atoms: C_3  and  C_7
REMARK    2  A    between atoms: C_7  and  C_9
REMARK                            x       y       z     vdW  Elec       q    Type
REMARK                         _______ _______ _______ _____ _____    ______ ____
ROOT
ATOM      1  C   UNL A   1     -28.016  -0.814  28.878  0.00  0.00    +0.002 A 
ATOM      2  C   UNL A   1     -28.469  -0.785  29.829  0.00  0.00    +0.000 A 
ATOM      3  C   UNL A   1     -28.196   0.348  28.055  0.00  0.00    +0.017 A 
ATOM      4  C   UNL A   1     -29.019   1.350  28.378  0.00  0.00    +0.002 A 
ATOM      5  C   UNL A   1     -29.411   0.180  30.378  0.00  0.00    +0.000 A 
ATOM      6  C   UNL A   1     -29.606   1.250  29.619  0.00  0.00    +0.000 A 
ENDROOT
BRANCH   3   7
ATOM      7  C   UNL A   1     -27.460   0.380  26.709  0.00  0.00    +0.076 C 
ATOM      8  N   UNL A   1     -27.883   0.539  25.707  0.00  0.00    -0.268 NA
ATOM      9  C   UNL A   1     -27.355   0.611  24.455  0.00  0.00    +0.152 C 
BRANCH   7  10
ATOM     10  C   UNL A   1     -25.941   0.205  26.784  0.00  0.00    +0.014 C 
ATOM     11  C   UNL A   1     -25.356   0.428  25.551  0.00  0.00    -0.024 C 
ATOM     12  C   UNL A   1     -23.844   0.350  25.581  0.00  0.00    +0.031 C 
ENDBRANCH   7  10
ENDBRANCH   3   7
TORSDOF 2
