MODEL 1852
MODEL 1
REMARK VINA RESULT:    -5.746      0.000      0.000
REMARK INTER + INTRA:          -6.805
REMARK INTER:                  -6.417
REMARK INTRA:                  -0.387
REMARK UNBOUND:                -0.387
REMARK  Name = No_1852-gen_results/8p0m/2024-11-26-14-13-15/
REMARK  2 active torsions:
REMARK  status: ('A' for Active; 'I' for Inactive)
REMARK    1  A    between atoms: C_3  and  C_7
REMARK    2  A    between atoms: C_7  and  C_9
REMARK                            x       y       z     vdW  Elec       q    Type
REMARK                         _______ _______ _______ _____ _____    ______ ____
ROOT
ATOM      1  C   UNL A   1     -25.647  -2.667  29.847  0.00  0.00    +0.002 A 
ATOM      2  C   UNL A   1     -26.268  -3.516  29.915  0.00  0.00    +0.000 A 
ATOM      3  C   UNL A   1     -24.410  -2.843  29.142  0.00  0.00    +0.017 A 
ATOM      4  C   UNL A   1     -23.967  -4.035  28.732  0.00  0.00    +0.002 A 
ATOM      5  C   UNL A   1     -25.987  -4.901  29.563  0.00  0.00    +0.000 A 
ATOM      6  C   UNL A   1     -24.836  -5.084  28.930  0.00  0.00    +0.000 A 
ENDROOT
BRANCH   3   7
ATOM      7  C   UNL A   1     -23.535  -1.600  28.933  0.00  0.00    +0.076 C 
ATOM      8  N   UNL A   1     -22.450  -1.501  29.078  0.00  0.00    -0.268 NA
ATOM      9  C   UNL A   1     -21.560  -0.485  28.914  0.00  0.00    +0.152 C 
BRANCH   7  10
ATOM     10  C   UNL A   1     -24.267  -0.356  28.423  0.00  0.00    +0.014 C 
ATOM     11  C   UNL A   1     -24.855  -0.597  27.195  0.00  0.00    -0.024 C 
ATOM     12  C   UNL A   1     -25.664   0.573  26.676  0.00  0.00    +0.031 C 
ENDBRANCH   7  10
ENDBRANCH   3   7
TORSDOF 2
ENDMDL
ENDMDL
