REMARK  Name = No_1853-gen_results/8p0m/2024-11-26-14-13-15/
REMARK  2 active torsions:
REMARK  status: ('A' for Active; 'I' for Inactive)
REMARK    1  A    between atoms: C_2  and  C_3
REMARK    2  A    between atoms: C_14  and  C_15
REMARK                            x       y       z     vdW  Elec       q    Type
REMARK                         _______ _______ _______ _____ _____    ______ ____
ROOT
ATOM      1  O   UNL A   1     -28.123  -1.335  28.487  0.00  0.00    -0.269 OA
ATOM      2  C   UNL A   1     -27.481  -0.404  28.709  0.00  0.00    +0.257 C 
ATOM      3  N   UNL A   1     -27.666   0.447  29.899  0.00  0.00    -0.232 N 
ATOM      4  C   UNL A   1     -28.778   0.103  30.787  0.00  0.00    +0.068 C 
ATOM      5  C   UNL A   1     -26.845   1.525  30.221  0.00  0.00    +0.068 C 
ATOM      6  C   UNL A   1     -27.247   2.621  30.257  0.00  0.00    -0.009 C 
ATOM      7  C   UNL A   1     -28.179   3.207  30.455  0.00  0.00    +0.032 C 
ATOM      8  C   UNL A   1     -29.399   2.498  30.694  0.00  0.00    +0.035 C 
ATOM      9  C   UNL A   1     -29.490   1.089  30.779  0.00  0.00    -0.009 C 
ENDROOT
BRANCH   8  10
ATOM     10  C   UNL A   1     -30.639   3.141  30.862  0.00  0.00    +0.067 C 
ATOM     11  C   UNL A   1     -31.397   3.298  29.814  0.00  0.00    +0.013 C 
ATOM     12  C   UNL A   1     -32.666   4.008  29.896  0.00  0.00    +0.027 C 
ATOM     13  C   UNL A   1     -33.026   4.540  31.149  0.00  0.00    -0.019 A 
ATOM     14  C   UNL A   1     -32.214   4.388  32.218  0.00  0.00    +0.031 A 
ATOM     15  C   UNL A   1     -31.002   3.722  32.107  0.00  0.00    +0.173 C 
ATOM     16  C   UNL A   1     -32.595   4.971  33.539  0.00  0.00    +0.003 A 
ATOM     17  C   UNL A   1     -33.029   6.191  33.650  0.00  0.00    +0.000 A 
ATOM     18  C   UNL A   1     -33.255   6.902  34.375  0.00  0.00    +0.000 A 
ATOM     19  C   UNL A   1     -33.742   8.317  34.304  0.00  0.00    +0.000 A 
ATOM     20  C   UNL A   1     -34.029   8.734  33.032  0.00  0.00    -0.000 A 
ATOM     21  C   UNL A   1     -33.770   7.902  31.987  0.00  0.00    -0.000 A 
ATOM     22  C   UNL A   1     -33.236   6.634  32.175  0.00  0.00    -0.000 A 
ATOM     23  C   UNL A   1     -33.199   5.809  31.038  0.00  0.00    -0.004 A 
ATOM     24  O   UNL A   1     -30.328   3.444  33.235  0.00  0.00    -0.291 OA
ENDBRANCH   8  10
BRANCH   2  25
ATOM     25  C   UNL A   1     -26.380  -0.087  27.939  0.00  0.00    +0.054 A 
ATOM     26  C   UNL A   1     -26.409   0.857  26.880  0.00  0.00    +0.004 A 
ATOM     27  C   UNL A   1     -25.082  -0.697  28.170  0.00  0.00    +0.004 A 
ATOM     28  C   UNL A   1     -25.284   1.049  26.047  0.00  0.00    +0.000 A 
ATOM     29  C   UNL A   1     -23.916  -0.344  27.444  0.00  0.00    +0.000 A 
ATOM     30  C   UNL A   1     -24.062   0.529  26.371  0.00  0.00    +0.000 A 
ENDBRANCH   2  25
TORSDOF 2
