MODEL 1853
MODEL 1
REMARK VINA RESULT:    -8.931      0.000      0.000
REMARK INTER + INTRA:         -10.417
REMARK INTER:                  -9.975
REMARK INTRA:                  -0.442
REMARK UNBOUND:                -0.442
REMARK  Name = No_1853-gen_results/8p0m/2024-11-26-14-13-15/
REMARK  2 active torsions:
REMARK  status: ('A' for Active; 'I' for Inactive)
REMARK    1  A    between atoms: C_2  and  C_3
REMARK    2  A    between atoms: C_14  and  C_15
REMARK                            x       y       z     vdW  Elec       q    Type
REMARK                         _______ _______ _______ _____ _____    ______ ____
ROOT
ATOM      1  O   UNL A   1     -24.237   3.115  28.401  0.00  0.00    -0.269 OA
ATOM      2  C   UNL A   1     -24.019   2.205  27.728  0.00  0.00    +0.257 C 
ATOM      3  N   UNL A   1     -24.541   2.064  26.356  0.00  0.00    -0.232 N 
ATOM      4  C   UNL A   1     -25.437   3.120  25.881  0.00  0.00    +0.068 C 
ATOM      5  C   UNL A   1     -24.217   1.011  25.504  0.00  0.00    +0.068 C 
ATOM      6  C   UNL A   1     -25.021   0.254  25.122  0.00  0.00    -0.009 C 
ATOM      7  C   UNL A   1     -26.111   0.179  24.883  0.00  0.00    +0.032 C 
ATOM      8  C   UNL A   1     -26.953   1.303  25.156  0.00  0.00    +0.035 C 
ATOM      9  C   UNL A   1     -26.480   2.546  25.636  0.00  0.00    -0.009 C 
ENDROOT
BRANCH   8  10
ATOM     10  C   UNL A   1     -28.349   1.276  24.977  0.00  0.00    +0.067 C 
ATOM     11  C   UNL A   1     -29.043   0.430  25.684  0.00  0.00    +0.013 C 
ATOM     12  C   UNL A   1     -30.483   0.300  25.511  0.00  0.00    +0.027 C 
ATOM     13  C   UNL A   1     -31.089   1.108  24.530  0.00  0.00    -0.019 A 
ATOM     14  C   UNL A   1     -30.347   1.961  23.790  0.00  0.00    +0.031 A 
ATOM     15  C   UNL A   1     -28.974   2.052  23.964  0.00  0.00    +0.173 C 
ATOM     16  C   UNL A   1     -30.995   2.802  22.739  0.00  0.00    +0.003 A 
ATOM     17  C   UNL A   1     -31.838   2.302  21.885  0.00  0.00    +0.000 A 
ATOM     18  C   UNL A   1     -32.347   2.555  21.014  0.00  0.00    +0.000 A 
ATOM     19  C   UNL A   1     -33.296   1.807  20.128  0.00  0.00    +0.000 A 
ATOM     20  C   UNL A   1     -33.627   0.567  20.605  0.00  0.00    -0.000 A 
ATOM     21  C   UNL A   1     -33.023   0.108  21.734  0.00  0.00    -0.000 A 
ATOM     22  C   UNL A   1     -32.090   0.867  22.427  0.00  0.00    -0.000 A 
ATOM     23  C   UNL A   1     -31.690   0.360  23.675  0.00  0.00    -0.004 A 
ATOM     24  O   UNL A   1     -28.321   3.042  23.333  0.00  0.00    -0.291 OA
ENDBRANCH   8  10
BRANCH   2  25
ATOM     25  C   UNL A   1     -23.124   1.226  28.108  0.00  0.00    +0.054 A 
ATOM     26  C   UNL A   1     -23.508   0.014  28.739  0.00  0.00    +0.004 A 
ATOM     27  C   UNL A   1     -21.697   1.358  27.872  0.00  0.00    +0.004 A 
ATOM     28  C   UNL A   1     -22.538  -0.895  29.217  0.00  0.00    +0.000 A 
ATOM     29  C   UNL A   1     -20.758   0.343  28.186  0.00  0.00    +0.000 A 
ATOM     30  C   UNL A   1     -21.220  -0.772  28.878  0.00  0.00    +0.000 A 
ENDBRANCH   2  25
TORSDOF 2
ENDMDL
ENDMDL
