MODEL 1854
MODEL 1
REMARK VINA RESULT:    -7.418      0.000      0.000
REMARK INTER + INTRA:         -12.004
REMARK INTER:                 -10.454
REMARK INTRA:                  -1.550
REMARK UNBOUND:                -1.550
REMARK  Name = No_1854-gen_results/8p0m/2024-11-26-14-13-15/
REMARK  7 active torsions:
REMARK  status: ('A' for Active; 'I' for Inactive)
REMARK    1  A    between atoms: C_1  and  C_2
REMARK    2  A    between atoms: C_4  and  O_25
REMARK    3  A    between atoms: C_5  and  C_12
REMARK    4  A    between atoms: N_8  and  C_10
REMARK    5  A    between atoms: C_10  and  C_15
REMARK    6  A    between atoms: N_13  and  C_19
REMARK    7  A    between atoms: O_25  and  C_26
REMARK                            x       y       z     vdW  Elec       q    Type
REMARK                         _______ _______ _______ _____ _____    ______ ____
ROOT
ATOM      1  C   UNL A   1     -25.336   0.026  32.940  0.00  0.00    +0.057 A 
ATOM      2  C   UNL A   1     -25.901  -0.816  32.038  0.00  0.00    +0.042 A 
ATOM      3  C   UNL A   1     -26.036  -0.532  30.592  0.00  0.00    +0.150 A 
ATOM      4  C   UNL A   1     -25.551   0.737  30.132  0.00  0.00    +0.092 A 
ATOM      5  C   UNL A   1     -25.036   1.614  31.113  0.00  0.00    +0.008 A 
ATOM      6  C   UNL A   1     -24.942   1.280  32.440  0.00  0.00    +0.005 A 
ENDROOT
BRANCH   1   7
ATOM      7  C   UNL A   1     -25.233  -0.219  34.120  0.00  0.00    +0.249 C 
ATOM      8  N   UNL A   1     -26.364   0.023  35.000  0.00  0.00    -0.268 N 
ATOM      9  O   UNL A   1     -24.398  -1.036  34.610  0.00  0.00    -0.270 OA
ATOM     10  C   UNL A   1     -27.493   0.866  34.533  0.00  0.00    +0.115 C 
BRANCH   8  11
ATOM     11  C   UNL A   1     -26.385  -0.233  36.423  0.00  0.00    +0.177 C 
BRANCH  11  12
ATOM     12  C   UNL A   1     -27.008  -1.459  36.735  0.00  0.00    +0.348 C 
ATOM     13 CL   UNL A   1     -27.923  -1.306  37.974  0.00  0.00    -0.045 Cl
ATOM     14  F   UNL A   1     -27.588  -1.958  35.618  0.00  0.00    -0.185 F 
ATOM     15  F   UNL A   1     -25.932  -2.375  36.974  0.00  0.00    -0.185 F 
ENDBRANCH  11  12
ENDBRANCH   8  11
ENDBRANCH   1   7
BRANCH   4  16
ATOM     16  C   UNL A   1     -25.630   1.162  28.754  0.00  0.00    +0.282 C 
ATOM     17  N   UNL A   1     -24.997   0.751  27.774  0.00  0.00    -0.208 NA
ATOM     18  O   UNL A   1     -26.823   1.711  28.456  0.00  0.00    -0.265 OA
BRANCH  17  19
ATOM     19  C   UNL A   1     -23.532   0.799  27.843  0.00  0.00    +0.085 A 
ATOM     20  C   UNL A   1     -22.839  -0.193  28.580  0.00  0.00    +0.019 A 
ATOM     21  C   UNL A   1     -22.786   1.780  27.154  0.00  0.00    +0.019 A 
ATOM     22  C   UNL A   1     -21.366   1.667  27.232  0.00  0.00    +0.002 A 
ATOM     23  C   UNL A   1     -20.871   0.849  28.138  0.00  0.00    +0.000 A 
ATOM     24  C   UNL A   1     -21.586  -0.176  28.749  0.00  0.00    +0.002 A 
ENDBRANCH  17  19
ENDBRANCH   4  16
BRANCH   3  25
ATOM     25  O   UNL A   1     -26.562  -1.379  29.795  0.00  0.00    -0.453 OA
BRANCH  25  26
ATOM     26  C   UNL A   1     -25.832  -2.544  29.424  0.00  0.00    +0.145 A 
ATOM     27  C   UNL A   1     -24.861  -2.719  28.943  0.00  0.00    +0.037 A 
ATOM     28  C   UNL A   1     -24.180  -3.927  28.684  0.00  0.00    +0.003 A 
ATOM     29  C   UNL A   1     -26.663  -3.729  29.830  0.00  0.00    +0.037 A 
ATOM     30  C   UNL A   1     -26.125  -4.982  29.627  0.00  0.00    +0.003 A 
ATOM     31  C   UNL A   1     -24.862  -5.087  29.074  0.00  0.00    +0.000 A 
ENDBRANCH  25  26
ENDBRANCH   3  25
TORSDOF 7
ENDMDL
ENDMDL
