REMARK  Name = No_1854-gen_results/8p0m/2024-11-26-14-13-15/
REMARK  7 active torsions:
REMARK  status: ('A' for Active; 'I' for Inactive)
REMARK    1  A    between atoms: C_1  and  C_2
REMARK    2  A    between atoms: C_4  and  O_25
REMARK    3  A    between atoms: C_5  and  C_12
REMARK    4  A    between atoms: N_8  and  C_10
REMARK    5  A    between atoms: C_10  and  C_15
REMARK    6  A    between atoms: N_13  and  C_19
REMARK    7  A    between atoms: O_25  and  C_26
REMARK                            x       y       z     vdW  Elec       q    Type
REMARK                         _______ _______ _______ _____ _____    ______ ____
ROOT
ATOM      1  C   UNL A   1     -27.064  -0.119  28.608  0.00  0.00    +0.057 A 
ATOM      2  C   UNL A   1     -26.929   1.171  29.008  0.00  0.00    +0.042 A 
ATOM      3  C   UNL A   1     -25.770   2.034  28.688  0.00  0.00    +0.150 A 
ATOM      4  C   UNL A   1     -24.714   1.443  27.919  0.00  0.00    +0.092 A 
ATOM      5  C   UNL A   1     -24.859   0.078  27.584  0.00  0.00    +0.008 A 
ATOM      6  C   UNL A   1     -25.965  -0.661  27.916  0.00  0.00    +0.005 A 
ENDROOT
BRANCH   1   7
ATOM      7  C   UNL A   1     -28.016  -0.814  28.878  0.00  0.00    +0.249 C 
ATOM      8  N   UNL A   1     -27.982  -1.637  30.075  0.00  0.00    -0.268 N 
ATOM      9  O   UNL A   1     -29.195  -0.604  28.462  0.00  0.00    -0.270 OA
ATOM     10  C   UNL A   1     -26.689  -1.886  30.761  0.00  0.00    +0.115 C 
BRANCH   8  11
ATOM     11  C   UNL A   1     -29.049  -2.504  30.523  0.00  0.00    +0.177 C 
BRANCH  11  12
ATOM     12  C   UNL A   1     -29.442  -2.224  31.849  0.00  0.00    +0.348 C 
ATOM     13 CL   UNL A   1     -28.578  -1.087  32.445  0.00  0.00    -0.045 Cl
ATOM     14  F   UNL A   1     -30.783  -2.041  31.883  0.00  0.00    -0.185 F 
ATOM     15  F   UNL A   1     -29.268  -3.457  32.559  0.00  0.00    -0.185 F 
ENDBRANCH  11  12
ENDBRANCH   8  11
ENDBRANCH   1   7
BRANCH   4  16
ATOM     16  C   UNL A   1     -23.514   2.154  27.545  0.00  0.00    +0.282 C 
ATOM     17  N   UNL A   1     -22.432   1.703  27.148  0.00  0.00    -0.208 NA
ATOM     18  O   UNL A   1     -23.769   3.416  27.150  0.00  0.00    -0.265 OA
BRANCH  17  19
ATOM     19  C   UNL A   1     -21.747   0.729  28.006  0.00  0.00    +0.085 A 
ATOM     20  C   UNL A   1     -20.411   0.976  28.408  0.00  0.00    +0.019 A 
ATOM     21  C   UNL A   1     -22.399  -0.428  28.485  0.00  0.00    +0.019 A 
ATOM     22  C   UNL A   1     -21.652  -1.251  29.380  0.00  0.00    +0.002 A 
ATOM     23  C   UNL A   1     -20.358  -1.028  29.473  0.00  0.00    +0.000 A 
ATOM     24  C   UNL A   1     -19.731   0.151  29.082  0.00  0.00    +0.002 A 
ENDBRANCH  17  19
ENDBRANCH   4  16
BRANCH   3  25
ATOM     25  O   UNL A   1     -25.717   3.247  29.081  0.00  0.00    -0.453 OA
BRANCH  25  26
ATOM     26  C   UNL A   1     -26.845   3.827  29.728  0.00  0.00    +0.145 A 
ATOM     27  C   UNL A   1     -27.377   3.626  30.666  0.00  0.00    +0.037 A 
ATOM     28  C   UNL A   1     -28.453   4.314  31.266  0.00  0.00    +0.003 A 
ATOM     29  C   UNL A   1     -27.326   4.948  28.848  0.00  0.00    +0.037 A 
ATOM     30  C   UNL A   1     -28.383   5.706  29.305  0.00  0.00    +0.003 A 
ATOM     31  C   UNL A   1     -28.938   5.408  30.536  0.00  0.00    +0.000 A 
ENDBRANCH  25  26
ENDBRANCH   3  25
TORSDOF 7
