REMARK  Name = No_1855-gen_results/8p0m/2024-11-26-14-13-15/
REMARK  4 active torsions:
REMARK  status: ('A' for Active; 'I' for Inactive)
REMARK    1  A    between atoms: C_1  and  C_3
REMARK    2  A    between atoms: C_3  and  C_4
REMARK    3  A    between atoms: C_4  and  C_17
REMARK    4  A    between atoms: C_5  and  C_6
REMARK                            x       y       z     vdW  Elec       q    Type
REMARK                         _______ _______ _______ _____ _____    ______ ____
ROOT
ATOM      1  C   UNL A   1     -27.450   0.643  26.850  0.00  0.00    -0.044 C 
ATOM      2  C   UNL A   1     -26.453   0.994  26.668  0.00  0.00    -0.029 C 
ATOM      3  C   UNL A   1     -26.514   1.891  25.308  0.00  0.00    +0.030 C 
ENDROOT
BRANCH   2   4
ATOM      4  C   UNL A   1     -25.181   0.862  26.816  0.00  0.00    -0.004 A 
ATOM      5  C   UNL A   1     -24.515   0.117  27.812  0.00  0.00    -0.000 A 
ATOM      6  C   UNL A   1     -23.198   0.265  28.206  0.00  0.00    -0.000 A 
ATOM      7  C   UNL A   1     -22.437   1.206  27.564  0.00  0.00    -0.000 A 
ATOM      8  C   UNL A   1     -22.938   2.032  26.563  0.00  0.00    -0.000 A 
ATOM      9  C   UNL A   1     -24.271   1.902  26.264  0.00  0.00    -0.000 A 
ENDBRANCH   2   4
BRANCH   1  10
ATOM     10  C   UNL A   1     -28.418  -0.013  25.844  0.00  0.00    +0.022 C 
ATOM     11  C   UNL A   1     -29.402   0.599  25.331  0.00  0.00    +0.005 C 
ENDBRANCH   1  10
BRANCH   1  12
ATOM     12  C   UNL A   1     -28.182   0.428  28.113  0.00  0.00    +0.048 C 
BRANCH  12  13
ATOM     13  C   UNL A   1     -28.016  -0.814  28.878  0.00  0.00    -0.018 A 
ATOM     14  C   UNL A   1     -28.469  -0.785  29.829  0.00  0.00    -0.004 A 
ATOM     15  C   UNL A   1     -28.289  -2.010  30.834  0.00  0.00    -0.000 A 
ATOM     16  C   UNL A   1     -27.446  -2.988  30.326  0.00  0.00    -0.000 A 
ATOM     17  C   UNL A   1     -26.600  -2.762  29.295  0.00  0.00    -0.000 A 
ATOM     18  C   UNL A   1     -26.820  -1.544  28.544  0.00  0.00    -0.004 A 
ENDBRANCH  12  13
ENDBRANCH   1  12
TORSDOF 4
