MODEL 1855
MODEL 1
REMARK VINA RESULT:    -7.190      0.000      0.000
REMARK INTER + INTRA:         -10.215
REMARK INTER:                  -8.871
REMARK INTRA:                  -1.343
REMARK UNBOUND:                -1.343
REMARK  Name = No_1855-gen_results/8p0m/2024-11-26-14-13-15/
REMARK  4 active torsions:
REMARK  status: ('A' for Active; 'I' for Inactive)
REMARK    1  A    between atoms: C_1  and  C_3
REMARK    2  A    between atoms: C_3  and  C_4
REMARK    3  A    between atoms: C_4  and  C_17
REMARK    4  A    between atoms: C_5  and  C_6
REMARK                            x       y       z     vdW  Elec       q    Type
REMARK                         _______ _______ _______ _____ _____    ______ ____
ROOT
ATOM      1  C   UNL A   1     -24.576  -0.827  31.138  0.00  0.00    -0.044 C 
ATOM      2  C   UNL A   1     -25.098  -1.438  30.428  0.00  0.00    -0.029 C 
ATOM      3  C   UNL A   1     -26.628  -0.879  30.366  0.00  0.00    +0.030 C 
ENDROOT
BRANCH   2   4
ATOM      4  C   UNL A   1     -25.219  -2.551  29.792  0.00  0.00    -0.004 A 
ATOM      5  C   UNL A   1     -26.184  -3.556  30.015  0.00  0.00    -0.000 A 
ATOM      6  C   UNL A   1     -26.102  -4.877  29.616  0.00  0.00    -0.000 A 
ATOM      7  C   UNL A   1     -24.994  -5.268  28.911  0.00  0.00    -0.000 A 
ATOM      8  C   UNL A   1     -23.944  -4.406  28.610  0.00  0.00    -0.000 A 
ATOM      9  C   UNL A   1     -24.035  -3.127  29.098  0.00  0.00    -0.000 A 
ENDBRANCH   2   4
BRANCH   1  10
ATOM     10  C   UNL A   1     -25.034  -0.424  32.554  0.00  0.00    +0.022 C 
ATOM     11  C   UNL A   1     -24.437  -0.800  33.607  0.00  0.00    +0.005 C 
ENDBRANCH   1  10
BRANCH   1  12
ATOM     12  C   UNL A   1     -23.181  -0.345  31.155  0.00  0.00    +0.048 C 
BRANCH  12  13
ATOM     13  C   UNL A   1     -22.610   0.351  29.995  0.00  0.00    -0.018 A 
ATOM     14  C   UNL A   1     -23.293   0.993  29.513  0.00  0.00    -0.004 A 
ATOM     15  C   UNL A   1     -22.869   1.741  28.170  0.00  0.00    -0.000 A 
ATOM     16  C   UNL A   1     -21.602   1.373  27.740  0.00  0.00    -0.000 A 
ATOM     17  C   UNL A   1     -20.973   0.260  28.183  0.00  0.00    -0.000 A 
ATOM     18  C   UNL A   1     -21.547  -0.376  29.350  0.00  0.00    -0.004 A 
ENDBRANCH  12  13
ENDBRANCH   1  12
TORSDOF 4
ENDMDL
ENDMDL
