MODEL 1856
MODEL 1
REMARK VINA RESULT:    -7.103      0.000      0.000
REMARK INTER + INTRA:          -8.496
REMARK INTER:                  -7.934
REMARK INTRA:                  -0.562
REMARK UNBOUND:                -0.562
REMARK  Name = No_1856-gen_results/8p0m/2024-11-26-14-13-15/
REMARK  2 active torsions:
REMARK  status: ('A' for Active; 'I' for Inactive)
REMARK    1  A    between atoms: C_6  and  C_8
REMARK    2  A    between atoms: C_12  and  C_14
REMARK                            x       y       z     vdW  Elec       q    Type
REMARK                         _______ _______ _______ _____ _____    ______ ____
ROOT
ATOM      1  C   UNL A   1     -24.673  -2.775  29.100  0.00  0.00    +0.000 A 
ATOM      2  C   UNL A   1     -24.135  -3.924  28.750  0.00  0.00    +0.000 A 
ATOM      3  C   UNL A   1     -24.840  -5.179  28.979  0.00  0.00    -0.000 A 
ATOM      4  C   UNL A   1     -26.122  -5.065  29.572  0.00  0.00    -0.000 A 
ATOM      5  C   UNL A   1     -26.637  -3.850  29.899  0.00  0.00    -0.000 A 
ATOM      6  C   UNL A   1     -25.930  -2.666  29.690  0.00  0.00    -0.000 A 
ENDROOT
BRANCH   1  12
ATOM      7  C   UNL A   1     -21.990  -0.065  28.712  0.00  0.00    +0.011 A 
ATOM      8  C   UNL A   1     -22.583   0.673  27.960  0.00  0.00    +0.058 A 
ATOM      9  C   UNL A   1     -23.837   0.437  27.498  0.00  0.00    +0.011 A 
ATOM     10  C   UNL A   1     -24.493  -0.737  27.915  0.00  0.00    +0.001 A 
ATOM     11  C   UNL A   1     -22.636  -1.233  29.254  0.00  0.00    +0.001 A 
ATOM     12  C   UNL A   1     -23.886  -1.531  28.799  0.00  0.00    +0.000 A 
ATOM     13 CL   UNL A   1     -21.747   2.122  27.577  0.00  0.00    -0.082 Cl
ENDBRANCH   1  12
BRANCH   5  14
ATOM     14  C   UNL A   1     -27.967  -3.732  30.556  0.00  0.00    -0.005 C 
ATOM     15  C   UNL A   1     -28.713  -4.722  30.744  0.00  0.00    -0.026 C 
ATOM     16  C   UNL A   1     -30.020  -4.586  31.354  0.00  0.00    +0.031 C 
ENDBRANCH   5  14
TORSDOF 2
ENDMDL
ENDMDL
