REMARK  Name = No_1856-gen_results/8p0m/2024-11-26-14-13-15/
REMARK  2 active torsions:
REMARK  status: ('A' for Active; 'I' for Inactive)
REMARK    1  A    between atoms: C_6  and  C_8
REMARK    2  A    between atoms: C_12  and  C_14
REMARK                            x       y       z     vdW  Elec       q    Type
REMARK                         _______ _______ _______ _____ _____    ______ ____
ROOT
ATOM      1  C   UNL A   1     -30.031   1.729  30.918  0.00  0.00    +0.000 A 
ATOM      2  C   UNL A   1     -30.939   1.019  31.553  0.00  0.00    +0.000 A 
ATOM      3  C   UNL A   1     -32.009   1.671  32.299  0.00  0.00    -0.000 A 
ATOM      4  C   UNL A   1     -32.005   3.088  32.269  0.00  0.00    -0.000 A 
ATOM      5  C   UNL A   1     -31.052   3.771  31.582  0.00  0.00    -0.000 A 
ATOM      6  C   UNL A   1     -30.025   3.122  30.897  0.00  0.00    -0.000 A 
ENDROOT
BRANCH   1  12
ATOM      7  C   UNL A   1     -28.016  -0.814  28.878  0.00  0.00    +0.011 A 
ATOM      8  C   UNL A   1     -27.064  -0.119  28.608  0.00  0.00    +0.058 A 
ATOM      9  C   UNL A   1     -26.929   1.171  29.008  0.00  0.00    +0.011 A 
ATOM     10  C   UNL A   1     -27.956   1.741  29.784  0.00  0.00    +0.001 A 
ATOM     11  C   UNL A   1     -29.057  -0.327  29.747  0.00  0.00    +0.001 A 
ATOM     12  C   UNL A   1     -28.983   0.972  30.152  0.00  0.00    +0.000 A 
ATOM     13 CL   UNL A   1     -25.820  -0.920  27.739  0.00  0.00    -0.082 Cl
ENDBRANCH   1  12
BRANCH   5  14
ATOM     14  C   UNL A   1     -31.026   5.259  31.581  0.00  0.00    -0.005 C 
ATOM     15  C   UNL A   1     -31.137   5.933  32.632  0.00  0.00    -0.026 C 
ATOM     16  C   UNL A   1     -31.145   7.382  32.610  0.00  0.00    +0.031 C 
ENDBRANCH   5  14
TORSDOF 2
