MODEL 1857
MODEL 1
REMARK VINA RESULT:    -4.999      0.000      0.000
REMARK INTER + INTRA:          -4.999
REMARK INTER:                  -4.999
REMARK INTRA:                   0.000
REMARK UNBOUND:                 0.000
REMARK  Name = No_1857-gen_results/8p0m/2024-11-26-14-13-15/
REMARK  0 active torsions:
REMARK  status: ('A' for Active; 'I' for Inactive)
REMARK                            x       y       z     vdW  Elec       q    Type
REMARK                         _______ _______ _______ _____ _____    ______ ____
ROOT
ATOM      1  C   UNL A   1     -10.533  -9.301  19.210  0.00  0.00    +0.042 A 
ATOM      2  C   UNL A   1      -9.810  -9.079  20.154  0.00  0.00    +0.003 A 
ATOM      3  C   UNL A   1      -8.502  -9.549  20.182  0.00  0.00    +0.000 A 
ATOM      4  C   UNL A   1      -7.981 -10.355  19.108  0.00  0.00    +0.003 A 
ATOM      5  C   UNL A   1      -8.891 -10.583  18.069  0.00  0.00    +0.042 A 
ATOM      6  C   UNL A   1     -10.124 -10.130  18.098  0.00  0.00    +0.196 A 
ATOM      7  O   UNL A   1     -10.957 -10.429  17.064  0.00  0.00    -0.287 OA
ENDROOT
TORSDOF 0
ENDMDL
ENDMDL
