MODEL 1858
MODEL 1
REMARK VINA RESULT:    -5.853      0.000      0.000
REMARK INTER + INTRA:          -8.810
REMARK INTER:                  -8.248
REMARK INTRA:                  -0.562
REMARK UNBOUND:                -0.562
REMARK  Name = No_1858-gen_results/8p0m/2024-11-26-14-13-15/
REMARK  7 active torsions:
REMARK  status: ('A' for Active; 'I' for Inactive)
REMARK    1  A    between atoms: C_1  and  C_2
REMARK    2  A    between atoms: C_1  and  N_8
REMARK    3  A    between atoms: C_5  and  C_11
REMARK    4  A    between atoms: N_8  and  C_10
REMARK    5  A    between atoms: C_10  and  C_14
REMARK    6  A    between atoms: C_15  and  C_16
REMARK    7  A    between atoms: C_17  and  C_18
REMARK                            x       y       z     vdW  Elec       q    Type
REMARK                         _______ _______ _______ _____ _____    ______ ____
ROOT
ATOM      1  C   UNL A   1      -8.728   0.151  34.557  0.00  0.00    +0.099 C 
ENDROOT
BRANCH   1   2
ATOM      2  C   UNL A   1      -7.569  -0.161  34.703  0.00  0.00    -0.006 A 
ATOM      3  C   UNL A   1      -7.154  -1.478  34.538  0.00  0.00    -0.003 A 
ATOM      4  C   UNL A   1      -5.763  -1.990  34.700  0.00  0.00    +0.006 A 
ATOM      5  C   UNL A   1      -4.753  -1.001  34.890  0.00  0.00    +0.080 A 
ATOM      6  C   UNL A   1      -5.189   0.335  34.995  0.00  0.00    +0.006 A 
ATOM      7  C   UNL A   1      -6.466   0.728  34.893  0.00  0.00    -0.003 A 
BRANCH   5   8
ATOM      8  C   UNL A   1      -3.404  -1.480  35.038  0.00  0.00    +0.388 C 
ATOM      9  O   UNL A   1      -2.532  -1.139  34.275  0.00  0.00    -0.241 OA
ATOM     10  O   UNL A   1      -3.116  -2.469  35.883  0.00  0.00    -0.241 OA
ENDBRANCH   5   8
ENDBRANCH   1   2
BRANCH   1  11
ATOM     11  N   UNL A   1      -9.262   0.877  35.599  0.00  0.00    -0.264 NA
ATOM     12  C   UNL A   1      -9.392   2.229  35.518  0.00  0.00    +0.090 C 
BRANCH  11  13
ATOM     13  C   UNL A   1      -9.433   0.223  36.828  0.00  0.00    +0.099 C 
BRANCH  13  14
ATOM     14  C   UNL A   1     -10.641  -0.437  37.002  0.00  0.00    -0.009 C 
ATOM     15  C   UNL A   1     -10.577  -1.613  37.488  0.00  0.00    -0.003 C 
BRANCH  15  16
ATOM     16  C   UNL A   1     -11.699  -2.422  37.576  0.00  0.00    -0.000 C 
ATOM     17  C   UNL A   1     -12.303  -2.752  38.795  0.00  0.00    -0.000 C 
BRANCH  17  18
ATOM     18  C   UNL A   1     -11.739  -2.248  39.979  0.00  0.00    -0.000 C 
ATOM     19  C   UNL A   1     -12.348  -1.273  40.705  0.00  0.00    -0.000 C 
ENDBRANCH  17  18
ENDBRANCH  15  16
ENDBRANCH  13  14
ENDBRANCH  11  13
ENDBRANCH   1  11
TORSDOF 7
ENDMDL
ENDMDL
