REMARK  Name = No_1858-gen_results/8p0m/2024-11-26-14-13-15/
REMARK  7 active torsions:
REMARK  status: ('A' for Active; 'I' for Inactive)
REMARK    1  A    between atoms: C_1  and  C_2
REMARK    2  A    between atoms: C_1  and  N_8
REMARK    3  A    between atoms: C_5  and  C_11
REMARK    4  A    between atoms: N_8  and  C_10
REMARK    5  A    between atoms: C_10  and  C_14
REMARK    6  A    between atoms: C_15  and  C_16
REMARK    7  A    between atoms: C_17  and  C_18
REMARK                            x       y       z     vdW  Elec       q    Type
REMARK                         _______ _______ _______ _____ _____    ______ ____
ROOT
ATOM      1  C   UNL A   1     -28.016  -0.814  28.878  0.00  0.00    +0.099 C 
ENDROOT
BRANCH   1   2
ATOM      2  C   UNL A   1     -27.064  -0.119  28.608  0.00  0.00    -0.006 A 
ATOM      3  C   UNL A   1     -25.792  -0.430  29.076  0.00  0.00    -0.003 A 
ATOM      4  C   UNL A   1     -24.546   0.349  28.823  0.00  0.00    +0.006 A 
ATOM      5  C   UNL A   1     -24.659   1.420  27.888  0.00  0.00    +0.080 A 
ATOM      6  C   UNL A   1     -25.947   1.681  27.379  0.00  0.00    +0.006 A 
ATOM      7  C   UNL A   1     -27.044   0.974  27.687  0.00  0.00    -0.003 A 
BRANCH   5   8
ATOM      8  C   UNL A   1     -23.462   2.174  27.627  0.00  0.00    +0.388 C 
ATOM      9  O   UNL A   1     -23.479   3.147  26.911  0.00  0.00    -0.241 OA
ATOM     10  O   UNL A   1     -22.266   1.711  27.989  0.00  0.00    -0.241 OA
ENDBRANCH   5   8
ENDBRANCH   1   2
BRANCH   1  11
ATOM     11  N   UNL A   1     -29.180  -0.120  29.129  0.00  0.00    -0.264 NA
ATOM     12  C   UNL A   1     -29.584   0.132  30.404  0.00  0.00    +0.090 C 
BRANCH  11  13
ATOM     13  C   UNL A   1     -30.054   0.097  28.054  0.00  0.00    +0.099 C 
BRANCH  13  14
ATOM     14  C   UNL A   1     -31.389  -0.199  28.287  0.00  0.00    -0.009 C 
ATOM     15  C   UNL A   1     -32.232   0.336  27.496  0.00  0.00    -0.003 C 
BRANCH  15  16
ATOM     16  C   UNL A   1     -33.597   0.229  27.713  0.00  0.00    -0.000 C 
ATOM     17  C   UNL A   1     -34.549   0.749  26.828  0.00  0.00    -0.000 C 
BRANCH  17  18
ATOM     18  C   UNL A   1     -34.099   1.415  25.677  0.00  0.00    -0.000 C 
ATOM     19  C   UNL A   1     -32.776   1.530  25.385  0.00  0.00    -0.000 C 
ENDBRANCH  17  18
ENDBRANCH  15  16
ENDBRANCH  13  14
ENDBRANCH  11  13
ENDBRANCH   1  11
TORSDOF 7
