MODEL 1859
MODEL 1
REMARK VINA RESULT:    -7.213      0.000      0.000
REMARK INTER + INTRA:          -9.575
REMARK INTER:                  -9.321
REMARK INTRA:                  -0.254
REMARK UNBOUND:                -0.254
REMARK  Name = No_1859-gen_results/8p0m/2024-11-26-14-13-15/
REMARK  5 active torsions:
REMARK  status: ('A' for Active; 'I' for Inactive)
REMARK    1  A    between atoms: C_1  and  C_2
REMARK    2  A    between atoms: C_5  and  C_9
REMARK    3  A    between atoms: N_8  and  C_13
REMARK    4  A    between atoms: N_10  and  C_20
REMARK    5  A    between atoms: C_16  and  C_23
REMARK                            x       y       z     vdW  Elec       q    Type
REMARK                         _______ _______ _______ _____ _____    ______ ____
ROOT
ATOM      1  C   UNL A   1     -26.458   1.223  25.000  0.00  0.00    +0.253 C 
ATOM      2  N   UNL A   1     -26.297   1.547  26.416  0.00  0.00    -0.253 N 
ATOM      3  O   UNL A   1     -25.589   0.336  24.666  0.00  0.00    -0.270 OA
ATOM      4  C   UNL A   1     -27.316   2.391  27.094  0.00  0.00    +0.120 C 
ENDROOT
BRANCH   1   5
ATOM      5  C   UNL A   1     -27.571   1.219  24.526  0.00  0.00    +0.054 A 
ATOM      6  C   UNL A   1     -28.200   2.328  24.060  0.00  0.00    +0.005 A 
ATOM      7  C   UNL A   1     -29.560   2.340  23.475  0.00  0.00    +0.001 A 
ATOM      8  C   UNL A   1     -30.237   1.079  23.382  0.00  0.00    +0.011 A 
ATOM      9  C   UNL A   1     -29.520  -0.060  23.811  0.00  0.00    +0.001 A 
ATOM     10  C   UNL A   1     -28.259   0.005  24.344  0.00  0.00    +0.005 A 
BRANCH   8  11
ATOM     11  C   UNL A   1     -31.551   0.957  22.825  0.00  0.00    +0.051 C 
ATOM     12  N   UNL A   1     -32.606   0.493  23.119  0.00  0.00    -0.184 NA
ATOM     13  C   UNL A   1     -31.670   1.890  21.600  0.00  0.00    +0.049 C 
BRANCH  12  14
ATOM     14  C   UNL A   1     -32.644  -0.173  24.346  0.00  0.00    +0.246 C 
ATOM     15  C   UNL A   1     -32.695  -1.677  24.246  0.00  0.00    +0.097 C 
ATOM     16  O   UNL A   1     -32.801   0.406  25.410  0.00  0.00    -0.273 OA
ENDBRANCH  12  14
ENDBRANCH   8  11
ENDBRANCH   1   5
BRANCH   2  17
ATOM     17  C   UNL A   1     -25.049   1.562  27.169  0.00  0.00    +0.054 A 
ATOM     18  C   UNL A   1     -24.695   0.686  27.771  0.00  0.00    +0.019 A 
ATOM     19  C   UNL A   1     -23.233   0.662  28.198  0.00  0.00    +0.055 A 
ATOM     20  C   UNL A   1     -22.449   0.985  27.624  0.00  0.00    +0.005 A 
ATOM     21  C   UNL A   1     -22.685   2.115  26.589  0.00  0.00    +0.001 A 
ATOM     22  C   UNL A   1     -24.021   2.481  26.541  0.00  0.00    +0.015 A 
BRANCH  19  23
ATOM     23  C   UNL A   1     -22.986  -0.546  29.216  0.00  0.00    +0.254 C 
ATOM     24  O   UNL A   1     -22.442  -1.560  28.986  0.00  0.00    -0.270 OA
ATOM     25  N   UNL A   1     -23.392  -0.361  30.557  0.00  0.00    -0.243 N 
ATOM     26  C   UNL A   1     -23.939   0.810  31.065  0.00  0.00    +0.134 C 
ATOM     27  C   UNL A   1     -23.321  -1.434  31.488  0.00  0.00    +0.111 C 
ATOM     28  C   UNL A   1     -24.820   0.574  32.146  0.00  0.00    +0.038 C 
ATOM     29  C   UNL A   1     -24.236  -0.490  32.824  0.00  0.00    -0.087 C 
ENDBRANCH  19  23
ENDBRANCH   2  17
TORSDOF 5
ENDMDL
ENDMDL
