REMARK  Name = No_1859-gen_results/8p0m/2024-11-26-14-13-15/
REMARK  5 active torsions:
REMARK  status: ('A' for Active; 'I' for Inactive)
REMARK    1  A    between atoms: C_1  and  C_2
REMARK    2  A    between atoms: C_5  and  C_9
REMARK    3  A    between atoms: N_8  and  C_13
REMARK    4  A    between atoms: N_10  and  C_20
REMARK    5  A    between atoms: C_16  and  C_23
REMARK                            x       y       z     vdW  Elec       q    Type
REMARK                         _______ _______ _______ _____ _____    ______ ____
ROOT
ATOM      1  C   UNL A   1     -28.016  -0.814  28.878  0.00  0.00    +0.253 C 
ATOM      2  N   UNL A   1     -27.982  -1.611  30.103  0.00  0.00    -0.253 N 
ATOM      3  O   UNL A   1     -29.218  -0.407  28.671  0.00  0.00    -0.270 OA
ATOM      4  C   UNL A   1     -26.671  -2.021  30.673  0.00  0.00    +0.120 C 
ENDROOT
BRANCH   1   5
ATOM      5  C   UNL A   1     -27.064  -0.119  28.608  0.00  0.00    +0.054 A 
ATOM      6  C   UNL A   1     -26.929   1.171  29.008  0.00  0.00    +0.005 A 
ATOM      7  C   UNL A   1     -25.770   2.034  28.688  0.00  0.00    +0.001 A 
ATOM      8  C   UNL A   1     -24.714   1.443  27.919  0.00  0.00    +0.011 A 
ATOM      9  C   UNL A   1     -24.859   0.078  27.584  0.00  0.00    +0.001 A 
ATOM     10  C   UNL A   1     -25.965  -0.661  27.916  0.00  0.00    +0.005 A 
BRANCH   8  11
ATOM     11  C   UNL A   1     -23.535   2.170  27.555  0.00  0.00    +0.051 C 
ATOM     12  N   UNL A   1     -22.378   2.193  27.832  0.00  0.00    -0.184 NA
ATOM     13  C   UNL A   1     -23.824   3.000  26.285  0.00  0.00    +0.049 C 
BRANCH  12  14
ATOM     14  C   UNL A   1     -21.984   1.289  28.821  0.00  0.00    +0.246 C 
ATOM     15  C   UNL A   1     -20.828   0.399  28.438  0.00  0.00    +0.097 C 
ATOM     16  O   UNL A   1     -22.625   1.105  29.844  0.00  0.00    -0.273 OA
ENDBRANCH  12  14
ENDBRANCH   8  11
ENDBRANCH   1   5
BRANCH   2  17
ATOM     17  C   UNL A   1     -29.043  -2.470  30.613  0.00  0.00    +0.054 A 
ATOM     18  C   UNL A   1     -29.860  -2.874  29.962  0.00  0.00    +0.019 A 
ATOM     19  C   UNL A   1     -30.680  -4.042  30.495  0.00  0.00    +0.055 A 
ATOM     20  C   UNL A   1     -30.305  -4.820  31.045  0.00  0.00    +0.005 A 
ATOM     21  C   UNL A   1     -29.069  -4.578  31.949  0.00  0.00    +0.001 A 
ATOM     22  C   UNL A   1     -28.584  -3.288  31.803  0.00  0.00    +0.015 A 
BRANCH  19  23
ATOM     23  C   UNL A   1     -31.917  -4.324  29.521  0.00  0.00    +0.254 C 
ATOM     24  O   UNL A   1     -32.791  -3.585  29.262  0.00  0.00    -0.270 OA
ATOM     25  N   UNL A   1     -31.937  -5.559  28.834  0.00  0.00    -0.243 N 
ATOM     26  C   UNL A   1     -30.936  -6.520  28.902  0.00  0.00    +0.134 C 
ATOM     27  C   UNL A   1     -33.065  -5.933  28.052  0.00  0.00    +0.111 C 
ATOM     28  C   UNL A   1     -31.428  -7.832  28.707  0.00  0.00    +0.038 C 
ATOM     29  C   UNL A   1     -32.431  -7.672  27.757  0.00  0.00    -0.087 C 
ENDBRANCH  19  23
ENDBRANCH   2  17
TORSDOF 5
