MODEL 185
MODEL 1
REMARK VINA RESULT:    -6.670      0.000      0.000
REMARK INTER + INTRA:          -6.670
REMARK INTER:                  -6.670
REMARK INTRA:                   0.000
REMARK UNBOUND:                 0.000
REMARK  Name = No_185-gen_results/8p0m/2024-11-26-14-13-15/
REMARK  0 active torsions:
REMARK  status: ('A' for Active; 'I' for Inactive)
REMARK                            x       y       z     vdW  Elec       q    Type
REMARK                         _______ _______ _______ _____ _____    ______ ____
ROOT
ATOM      1  C   UNL A   1     -23.288  -1.357  29.442  0.00  0.00    +0.145 A 
ATOM      2  C   UNL A   1     -24.163  -0.799  29.256  0.00  0.00    +0.088 A 
ATOM      3  C   UNL A   1     -22.011  -0.768  28.886  0.00  0.00    +0.037 A 
ATOM      4  C   UNL A   1     -22.040   0.515  28.300  0.00  0.00    +0.003 A 
ATOM      5  C   UNL A   1     -25.475  -1.376  29.835  0.00  0.00    +0.254 C 
ATOM      6  C   UNL A   1     -23.265   1.136  28.206  0.00  0.00    +0.000 A 
ATOM      7  C   UNL A   1     -24.392   0.542  28.725  0.00  0.00    +0.008 A 
ATOM      8  O   UNL A   1     -26.069  -0.979  30.693  0.00  0.00    -0.270 OA
ATOM      9  N   UNL A   1     -25.603  -2.789  29.493  0.00  0.00    -0.244 N 
ATOM     10  C   UNL A   1     -26.320  -3.531  29.741  0.00  0.00    +0.097 C 
ATOM     11  C   UNL A   1     -26.110  -4.799  29.628  0.00  0.00    +0.022 C 
ATOM     12  C   UNL A   1     -24.932  -5.235  28.939  0.00  0.00    +0.007 C 
ATOM     13  C   UNL A   1     -23.994  -4.342  28.557  0.00  0.00    +0.066 C 
ATOM     14  C   UNL A   1     -24.249  -3.091  28.876  0.00  0.00    +0.247 C 
ATOM     15  O   UNL A   1     -23.248  -2.694  29.466  0.00  0.00    -0.460 OA
ENDROOT
TORSDOF 0
ENDMDL
ENDMDL
