REMARK  Name = No_186-gen_results/8p0m/2024-11-26-14-13-15/
REMARK  4 active torsions:
REMARK  status: ('A' for Active; 'I' for Inactive)
REMARK    1  A    between atoms: C_4  and  C_7
REMARK    2  A    between atoms: C_7  and  C_8
REMARK    3  A    between atoms: C_8  and  C_9
REMARK    4  A    between atoms: C_9  and  C_10
REMARK                            x       y       z     vdW  Elec       q    Type
REMARK                         _______ _______ _______ _____ _____    ______ ____
ROOT
ATOM      1  C   UNL A   1     -23.817   0.476  29.912  0.00  0.00    +0.009 C 
ENDROOT
BRANCH   1   2
ATOM      2  C   UNL A   1     -24.389  -0.805  30.164  0.00  0.00    +0.027 C 
BRANCH   2   6
ATOM      3  C   UNL A   1     -28.016  -0.814  28.878  0.00  0.00    -0.000 A 
ATOM      4  C   UNL A   1     -28.469  -0.785  29.829  0.00  0.00    -0.000 A 
ATOM      5  C   UNL A   1     -26.504  -0.778  28.877  0.00  0.00    -0.004 A 
ATOM      6  C   UNL A   1     -25.810  -0.853  30.103  0.00  0.00    -0.022 A 
ATOM      7  C   UNL A   1     -27.991  -0.892  31.226  0.00  0.00    -0.000 A 
ATOM      8  C   UNL A   1     -26.604  -0.868  31.265  0.00  0.00    -0.004 A 
ENDBRANCH   2   6
ENDBRANCH   1   2
BRANCH   1   9
ATOM      9  C   UNL A   1     -23.248   0.822  28.723  0.00  0.00    +0.027 C 
BRANCH   9  10
ATOM     10  C   UNL A   1     -23.568   2.047  28.066  0.00  0.00    -0.022 A 
ATOM     11  C   UNL A   1     -23.159   2.196  26.753  0.00  0.00    -0.004 A 
ATOM     12  C   UNL A   1     -23.691   3.233  26.014  0.00  0.00    -0.000 A 
ATOM     13  C   UNL A   1     -24.522   4.226  26.593  0.00  0.00    -0.000 A 
ATOM     14  C   UNL A   1     -24.930   4.017  27.882  0.00  0.00    -0.000 A 
ATOM     15  C   UNL A   1     -24.488   2.915  28.604  0.00  0.00    -0.004 A 
ENDBRANCH   9  10
ENDBRANCH   1   9
TORSDOF 4
