MODEL 1860
MODEL 1
REMARK VINA RESULT:    -6.179      0.000      0.000
REMARK INTER + INTRA:          -6.795
REMARK INTER:                  -6.541
REMARK INTRA:                  -0.255
REMARK UNBOUND:                -0.255
REMARK  Name = No_1860-gen_results/8p0m/2024-11-26-14-13-15/
REMARK  1 active torsions:
REMARK  status: ('A' for Active; 'I' for Inactive)
REMARK    1  A    between atoms: C_3  and  C_8
REMARK                            x       y       z     vdW  Elec       q    Type
REMARK                         _______ _______ _______ _____ _____    ______ ____
ROOT
ATOM      1  O   UNL A   1     -25.410  -0.259  27.202  0.00  0.00    -0.273 OA
ATOM      2  C   UNL A   1     -24.475  -0.440  27.851  0.00  0.00    +0.245 C 
ATOM      3  C   UNL A   1     -24.023  -1.190  28.491  0.00  0.00    +0.100 C 
ATOM      4  N   UNL A   1     -23.479   0.734  27.675  0.00  0.00    -0.205 NA
ATOM      5  C   UNL A   1     -22.805  -1.358  29.297  0.00  0.00    +0.015 C 
ATOM      6  C   UNL A   1     -22.272   0.805  28.351  0.00  0.00    +0.115 C 
ATOM      7  C   UNL A   1     -21.918  -0.112  29.056  0.00  0.00    +0.024 C 
ENDROOT
BRANCH   3   8
ATOM      8  C   UNL A   1     -24.852  -2.540  28.745  0.00  0.00    -0.014 A 
ATOM      9  C   UNL A   1     -24.063  -3.691  28.414  0.00  0.00    -0.004 A 
ATOM     10  C   UNL A   1     -24.486  -4.798  28.886  0.00  0.00    -0.000 A 
ATOM     11  C   UNL A   1     -25.752  -4.968  29.565  0.00  0.00    -0.000 A 
ATOM     12  C   UNL A   1     -26.488  -3.842  29.835  0.00  0.00    -0.000 A 
ATOM     13  C   UNL A   1     -26.008  -2.567  29.465  0.00  0.00    -0.004 A 
ENDBRANCH   3   8
TORSDOF 1
ENDMDL
ENDMDL
