REMARK  Name = No_1860-gen_results/8p0m/2024-11-26-14-13-15/
REMARK  1 active torsions:
REMARK  status: ('A' for Active; 'I' for Inactive)
REMARK    1  A    between atoms: C_3  and  C_8
REMARK                            x       y       z     vdW  Elec       q    Type
REMARK                         _______ _______ _______ _____ _____    ______ ____
ROOT
ATOM      1  O   UNL A   1     -28.123  -1.335  28.487  0.00  0.00    -0.273 OA
ATOM      2  C   UNL A   1     -27.481  -0.404  28.709  0.00  0.00    +0.245 C 
ATOM      3  C   UNL A   1     -27.190   0.246  29.527  0.00  0.00    +0.100 C 
ATOM      4  N   UNL A   1     -26.687  -0.000  27.442  0.00  0.00    -0.205 NA
ATOM      5  C   UNL A   1     -26.350   1.433  29.742  0.00  0.00    +0.015 C 
ATOM      6  C   UNL A   1     -25.845   1.100  27.399  0.00  0.00    +0.115 C 
ATOM      7  C   UNL A   1     -25.642   1.746  28.401  0.00  0.00    +0.024 C 
ENDROOT
BRANCH   3   8
ATOM      8  C   UNL A   1     -27.833  -0.047  30.967  0.00  0.00    -0.014 A 
ATOM      9  C   UNL A   1     -29.148   0.518  31.062  0.00  0.00    -0.004 A 
ATOM     10  C   UNL A   1     -29.870   0.067  32.012  0.00  0.00    -0.000 A 
ATOM     11  C   UNL A   1     -29.395  -0.820  33.051  0.00  0.00    -0.000 A 
ATOM     12  C   UNL A   1     -28.120  -1.314  32.935  0.00  0.00    -0.000 A 
ATOM     13  C   UNL A   1     -27.315  -0.966  31.829  0.00  0.00    -0.004 A 
ENDBRANCH   3   8
TORSDOF 1
