REMARK  Name = No_1861-gen_results/8p0m/2024-11-26-14-13-15/
REMARK  2 active torsions:
REMARK  status: ('A' for Active; 'I' for Inactive)
REMARK    1  A    between atoms: C_4  and  C_7
REMARK    2  A    between atoms: N_21  and  C_22
REMARK                            x       y       z     vdW  Elec       q    Type
REMARK                         _______ _______ _______ _____ _____    ______ ____
ROOT
ATOM      1  C   UNL A   1     -28.016  -0.814  28.878  0.00  0.00    -0.003 A 
ATOM      2  C   UNL A   1     -28.469  -0.785  29.829  0.00  0.00    -0.005 A 
ATOM      3  C   UNL A   1     -26.546  -0.876  28.850  0.00  0.00    -0.000 A 
ATOM      4  C   UNL A   1     -25.804  -1.032  30.057  0.00  0.00    -0.000 A 
ATOM      5  C   UNL A   1     -27.944  -0.987  31.207  0.00  0.00    -0.024 A 
ATOM      6  C   UNL A   1     -26.582  -1.039  31.223  0.00  0.00    -0.004 A 
ATOM      7  C   UNL A   1     -30.085  -0.673  29.873  0.00  0.00    +0.138 C 
ATOM      8  N   UNL A   1     -30.596   0.476  30.240  0.00  0.00    -0.232 NA
ATOM      9  C   UNL A   1     -30.029   1.418  30.547  0.00  0.00    +0.079 A 
ATOM     10  C   UNL A   1     -30.023   2.624  30.662  0.00  0.00    +0.017 A 
ATOM     11  C   UNL A   1     -29.107   3.628  31.131  0.00  0.00    +0.001 A 
ATOM     12  C   UNL A   1     -27.838   3.112  31.470  0.00  0.00    +0.001 A 
ATOM     13  C   UNL A   1     -27.608   1.762  31.357  0.00  0.00    +0.016 A 
ATOM     14  C   UNL A   1     -28.555   0.977  30.939  0.00  0.00    +0.063 A 
ATOM     15  N   UNL A   1     -28.860   0.364  31.744  0.00  0.00    -0.310 N 
ATOM     16  C   UNL A   1     -28.610  -2.178  31.948  0.00  0.00    +0.028 C 
ATOM     17  C   UNL A   1     -29.971  -0.097  32.105  0.00  0.00    +0.073 C 
ATOM     18  C   UNL A   1     -30.081  -1.465  32.424  0.00  0.00    +0.024 C 
ATOM     19  C   UNL A   1     -31.268   0.467  32.478  0.00  0.00    +0.021 C 
ENDROOT
BRANCH   4  20
ATOM     20  C   UNL A   1     -24.381  -1.108  30.085  0.00  0.00    -0.000 A 
ATOM     21  C   UNL A   1     -23.642  -1.118  29.049  0.00  0.00    -0.000 A 
ATOM     22  C   UNL A   1     -22.183  -0.978  29.104  0.00  0.00    -0.000 A 
ATOM     23  C   UNL A   1     -23.727  -1.146  31.376  0.00  0.00    -0.000 A 
ATOM     24  C   UNL A   1     -22.699  -0.524  31.554  0.00  0.00    -0.000 A 
ATOM     25  C   UNL A   1     -21.687  -0.627  30.364  0.00  0.00    +0.000 A 
ENDBRANCH   4  20
BRANCH  15  26
ATOM     26  C   UNL A   1     -29.101   0.239  33.098  0.00  0.00    +0.073 C 
ATOM     27  C   UNL A   1     -29.032  -0.485  34.305  0.00  0.00    +0.021 C 
ATOM     28  C   UNL A   1     -29.047   1.767  33.653  0.00  0.00    +0.021 C 
ENDBRANCH  15  26
TORSDOF 2
