MODEL 1861
MODEL 1
REMARK VINA RESULT:    -9.170      0.000      0.000
REMARK INTER + INTRA:          -9.613
REMARK INTER:                  -9.706
REMARK INTRA:                   0.093
REMARK UNBOUND:                 0.093
REMARK  Name = No_1861-gen_results/8p0m/2024-11-26-14-13-15/
REMARK  2 active torsions:
REMARK  status: ('A' for Active; 'I' for Inactive)
REMARK    1  A    between atoms: C_4  and  C_7
REMARK    2  A    between atoms: N_21  and  C_22
REMARK                            x       y       z     vdW  Elec       q    Type
REMARK                         _______ _______ _______ _____ _____    ______ ____
ROOT
ATOM      1  C   UNL A   1     -26.187   0.950  29.366  0.00  0.00    -0.003 A 
ATOM      2  C   UNL A   1     -25.512   1.305  28.639  0.00  0.00    -0.005 A 
ATOM      3  C   UNL A   1     -26.177  -0.499  29.622  0.00  0.00    -0.000 A 
ATOM      4  C   UNL A   1     -25.199  -1.337  29.011  0.00  0.00    -0.000 A 
ATOM      5  C   UNL A   1     -24.376   0.670  27.916  0.00  0.00    -0.024 A 
ATOM      6  C   UNL A   1     -24.340  -0.677  28.121  0.00  0.00    -0.004 A 
ATOM      7  C   UNL A   1     -25.543   2.893  28.317  0.00  0.00    +0.138 C 
ATOM      8  N   UNL A   1     -26.061   3.261  27.171  0.00  0.00    -0.232 NA
ATOM      9  C   UNL A   1     -26.490   2.585  26.357  0.00  0.00    +0.079 A 
ATOM     10  C   UNL A   1     -27.234   2.461  25.410  0.00  0.00    +0.017 A 
ATOM     11  C   UNL A   1     -27.591   1.418  24.487  0.00  0.00    +0.001 A 
ATOM     12  C   UNL A   1     -27.001   0.173  24.795  0.00  0.00    +0.001 A 
ATOM     13  C   UNL A   1     -26.158   0.077  25.875  0.00  0.00    +0.016 A 
ATOM     14  C   UNL A   1     -25.914   1.126  26.602  0.00  0.00    +0.063 A 
ATOM     15  N   UNL A   1     -24.906   1.406  26.457  0.00  0.00    -0.310 N 
ATOM     16  C   UNL A   1     -23.014   1.365  28.184  0.00  0.00    +0.028 C 
ATOM     17  C   UNL A   1     -24.317   2.513  26.398  0.00  0.00    +0.073 C 
ATOM     18  C   UNL A   1     -23.145   2.714  27.153  0.00  0.00    +0.024 C 
ATOM     19  C   UNL A   1     -24.422   3.713  25.568  0.00  0.00    +0.021 C 
ENDROOT
BRANCH   4  20
ATOM     20  C   UNL A   1     -25.139  -2.744  29.233  0.00  0.00    -0.000 A 
ATOM     21  C   UNL A   1     -26.109  -3.444  29.666  0.00  0.00    -0.000 A 
ATOM     22  C   UNL A   1     -26.094  -4.911  29.681  0.00  0.00    -0.000 A 
ATOM     23  C   UNL A   1     -23.903  -3.430  28.919  0.00  0.00    -0.000 A 
ATOM     24  C   UNL A   1     -23.934  -4.524  28.393  0.00  0.00    -0.000 A 
ATOM     25  C   UNL A   1     -25.017  -5.481  28.994  0.00  0.00    +0.000 A 
ENDBRANCH   4  20
BRANCH  15  26
ATOM     26  C   UNL A   1     -23.834   1.525  25.594  0.00  0.00    +0.073 C 
ATOM     27  C   UNL A   1     -23.086   1.089  24.483  0.00  0.00    +0.021 C 
ATOM     28  C   UNL A   1     -23.527   3.123  25.563  0.00  0.00    +0.021 C 
ENDBRANCH  15  26
TORSDOF 2
ENDMDL
ENDMDL
