MODEL 1862
MODEL 1
REMARK VINA RESULT:    -6.207      0.000      0.000
REMARK INTER + INTRA:          -7.347
REMARK INTER:                  -6.932
REMARK INTRA:                  -0.415
REMARK UNBOUND:                -0.415
REMARK  Name = No_1862-gen_results/8p0m/2024-11-26-14-13-15/
REMARK  2 active torsions:
REMARK  status: ('A' for Active; 'I' for Inactive)
REMARK    1  A    between atoms: C_2  and  N_7
REMARK    2  A    between atoms: N_7  and  C_8
REMARK                            x       y       z     vdW  Elec       q    Type
REMARK                         _______ _______ _______ _____ _____    ______ ____
ROOT
ATOM      1  N   UNL A   1     -24.538  -1.197  29.051  0.00  0.00    -0.212 NA
ENDROOT
BRANCH   1   3
ATOM      2  C   UNL A   1     -23.898  -3.392  28.678  0.00  0.00    +0.017 A 
ATOM      3  C   UNL A   1     -24.703  -2.585  29.082  0.00  0.00    +0.070 A 
ATOM      4  C   UNL A   1     -25.908  -2.992  29.644  0.00  0.00    +0.017 A 
ATOM      5  C   UNL A   1     -26.257  -4.387  29.719  0.00  0.00    +0.001 A 
ATOM      6  C   UNL A   1     -25.280  -5.251  29.207  0.00  0.00    +0.000 A 
ATOM      7  C   UNL A   1     -24.163  -4.814  28.671  0.00  0.00    +0.001 A 
ENDBRANCH   1   3
BRANCH   1   8
ATOM      8  C   UNL A   1     -24.234  -0.507  28.369  0.00  0.00    +0.070 A 
ATOM      9  C   UNL A   1     -23.073   0.241  28.553  0.00  0.00    +0.017 A 
ATOM     10  C   UNL A   1     -22.732   1.314  27.598  0.00  0.00    +0.001 A 
ATOM     11  C   UNL A   1     -23.538   1.449  26.454  0.00  0.00    +0.000 A 
ATOM     12  C   UNL A   1     -24.714   0.738  26.200  0.00  0.00    +0.001 A 
ATOM     13  C   UNL A   1     -25.062  -0.201  27.090  0.00  0.00    +0.017 A 
ENDBRANCH   1   8
TORSDOF 2
ENDMDL
ENDMDL
