REMARK  Name = No_1862-gen_results/8p0m/2024-11-26-14-13-15/
REMARK  2 active torsions:
REMARK  status: ('A' for Active; 'I' for Inactive)
REMARK    1  A    between atoms: C_2  and  N_7
REMARK    2  A    between atoms: N_7  and  C_8
REMARK                            x       y       z     vdW  Elec       q    Type
REMARK                         _______ _______ _______ _____ _____    ______ ____
ROOT
ATOM      1  N   UNL A   1     -27.106   1.034  27.819  0.00  0.00    -0.212 NA
ENDROOT
BRANCH   1   3
ATOM      2  C   UNL A   1     -28.016  -0.814  28.878  0.00  0.00    +0.017 A 
ATOM      3  C   UNL A   1     -27.064  -0.119  28.608  0.00  0.00    +0.070 A 
ATOM      4  C   UNL A   1     -25.792  -0.430  29.076  0.00  0.00    +0.017 A 
ATOM      5  C   UNL A   1     -25.576  -1.565  29.936  0.00  0.00    +0.001 A 
ATOM      6  C   UNL A   1     -26.735  -2.300  30.217  0.00  0.00    +0.000 A 
ATOM      7  C   UNL A   1     -27.918  -1.954  29.763  0.00  0.00    +0.001 A 
ENDBRANCH   1   3
BRANCH   1   8
ATOM      8  C   UNL A   1     -27.821   1.684  27.502  0.00  0.00    +0.070 A 
ATOM      9  C   UNL A   1     -29.119   1.649  28.008  0.00  0.00    +0.017 A 
ATOM     10  C   UNL A   1     -30.154   2.531  27.435  0.00  0.00    +0.001 A 
ATOM     11  C   UNL A   1     -29.748   3.477  26.477  0.00  0.00    +0.000 A 
ATOM     12  C   UNL A   1     -28.469   3.574  25.923  0.00  0.00    +0.001 A 
ATOM     13  C   UNL A   1     -27.535   2.739  26.397  0.00  0.00    +0.017 A 
ENDBRANCH   1   8
TORSDOF 2
