REMARK  Name = No_1863-gen_results/8p0m/2024-11-26-14-13-15/
REMARK  3 active torsions:
REMARK  status: ('A' for Active; 'I' for Inactive)
REMARK    1  A    between atoms: C_2  and  N_14
REMARK    2  A    between atoms: C_10  and  C_11
REMARK    3  A    between atoms: C_15  and  C_17
REMARK                            x       y       z     vdW  Elec       q    Type
REMARK                         _______ _______ _______ _____ _____    ______ ____
ROOT
ATOM      1  C   UNL A   1     -28.016  -0.814  28.878  0.00  0.00    +0.036 A 
ATOM      2  C   UNL A   1     -28.469  -0.785  29.829  0.00  0.00    +0.165 A 
ATOM      3  C   UNL A   1     -28.182   0.428  28.113  0.00  0.00    +0.003 A 
ATOM      4  C   UNL A   1     -27.450   0.643  26.850  0.00  0.00    +0.000 A 
ATOM      5  C   UNL A   1     -26.181   0.036  26.715  0.00  0.00    +0.000 A 
ATOM      6  C   UNL A   1     -25.780  -0.933  27.694  0.00  0.00    +0.000 A 
ATOM      7  C   UNL A   1     -26.557  -1.213  28.741  0.00  0.00    +0.004 A 
ATOM      8  N   UNL A   1     -28.302  -1.978  30.661  0.00  0.00    -0.225 NA
ATOM      9  C   UNL A   1     -27.137  -2.666  30.576  0.00  0.00    +0.101 A 
ATOM     10  C   UNL A   1     -26.169  -2.358  29.592  0.00  0.00    +0.022 A 
ENDROOT
BRANCH  10  11
ATOM     11  C   UNL A   1     -25.033  -3.148  29.376  0.00  0.00    +0.034 C 
ATOM     12  C   UNL A   1     -24.788  -4.090  28.641  0.00  0.00    +0.167 C 
ATOM     13  F   UNL A   1     -23.459  -4.477  28.593  0.00  0.00    -0.202 F 
ENDBRANCH  10  11
BRANCH   2  14
ATOM     14  N   UNL A   1     -29.816  -0.372  30.091  0.00  0.00    -0.199 NA
ATOM     15  C   UNL A   1     -30.080   0.811  30.167  0.00  0.00    +0.224 C 
ATOM     16  F   UNL A   1     -31.340   1.030  30.764  0.00  0.00    -0.183 F 
BRANCH  15  17
ATOM     17  C   UNL A   1     -29.109   1.728  30.838  0.00  0.00    +0.046 A 
ATOM     18  C   UNL A   1     -28.804   1.526  32.081  0.00  0.00    +0.004 A 
ATOM     19  C   UNL A   1     -27.778   2.322  32.717  0.00  0.00    +0.000 A 
ATOM     20  C   UNL A   1     -27.171   3.388  32.042  0.00  0.00    +0.000 A 
ATOM     21  C   UNL A   1     -28.469   2.851  30.134  0.00  0.00    +0.004 A 
ATOM     22  C   UNL A   1     -27.522   3.640  30.762  0.00  0.00    +0.000 A 
ENDBRANCH  15  17
ENDBRANCH   2  14
TORSDOF 3
