MODEL 1863
MODEL 1
REMARK VINA RESULT:    -7.776      0.000      0.000
REMARK INTER + INTRA:          -9.396
REMARK INTER:                  -9.139
REMARK INTRA:                  -0.257
REMARK UNBOUND:                -0.257
REMARK  Name = No_1863-gen_results/8p0m/2024-11-26-14-13-15/
REMARK  3 active torsions:
REMARK  status: ('A' for Active; 'I' for Inactive)
REMARK    1  A    between atoms: C_2  and  N_14
REMARK    2  A    between atoms: C_10  and  C_11
REMARK    3  A    between atoms: C_15  and  C_17
REMARK                            x       y       z     vdW  Elec       q    Type
REMARK                         _______ _______ _______ _____ _____    ______ ____
ROOT
ATOM      1  C   UNL A   1     -24.487   0.855  27.968  0.00  0.00    +0.036 A 
ATOM      2  C   UNL A   1     -24.930   0.115  28.575  0.00  0.00    +0.165 A 
ATOM      3  C   UNL A   1     -23.052   1.036  28.221  0.00  0.00    +0.003 A 
ATOM      4  C   UNL A   1     -22.228   1.880  27.335  0.00  0.00    +0.000 A 
ATOM      5  C   UNL A   1     -22.598   1.960  25.974  0.00  0.00    +0.000 A 
ATOM      6  C   UNL A   1     -23.868   1.421  25.578  0.00  0.00    +0.000 A 
ATOM      7  C   UNL A   1     -24.656   0.804  26.460  0.00  0.00    +0.004 A 
ATOM      8  N   UNL A   1     -26.352  -0.145  28.341  0.00  0.00    -0.225 NA
ATOM      9  C   UNL A   1     -26.825  -0.050  27.075  0.00  0.00    +0.101 A 
ATOM     10  C   UNL A   1     -26.025   0.455  26.024  0.00  0.00    +0.022 A 
ENDROOT
BRANCH  10  11
ATOM     11  C   UNL A   1     -26.532   0.715  24.745  0.00  0.00    +0.034 C 
ATOM     12  C   UNL A   1     -27.653   0.913  24.306  0.00  0.00    +0.167 C 
ATOM     13  F   UNL A   1     -27.710   1.326  22.986  0.00  0.00    -0.202 F 
ENDBRANCH  10  11
BRANCH   2  14
ATOM     14  N   UNL A   1     -24.796   0.024  29.999  0.00  0.00    -0.199 NA
ATOM     15  C   UNL A   1     -24.322  -0.977  30.497  0.00  0.00    +0.224 C 
ATOM     16  F   UNL A   1     -24.583  -1.047  31.882  0.00  0.00    -0.183 F 
BRANCH  15  17
ATOM     17  C   UNL A   1     -24.670  -2.309  29.915  0.00  0.00    +0.046 A 
ATOM     18  C   UNL A   1     -23.824  -2.896  29.129  0.00  0.00    +0.004 A 
ATOM     19  C   UNL A   1     -24.083  -4.236  28.652  0.00  0.00    +0.000 A 
ATOM     20  C   UNL A   1     -25.291  -4.883  28.941  0.00  0.00    +0.000 A 
ATOM     21  C   UNL A   1     -25.939  -2.993  30.214  0.00  0.00    +0.004 A 
ATOM     22  C   UNL A   1     -26.202  -4.257  29.716  0.00  0.00    +0.000 A 
ENDBRANCH  15  17
ENDBRANCH   2  14
TORSDOF 3
ENDMDL
ENDMDL
