REMARK  Name = No_1864-gen_results/8p0m/2024-11-26-14-13-15/
REMARK  4 active torsions:
REMARK  status: ('A' for Active; 'I' for Inactive)
REMARK    1  A    between atoms: C_3  and  O_8
REMARK    2  A    between atoms: C_4  and  O_19
REMARK    3  A    between atoms: O_8  and  C_9
REMARK    4  A    between atoms: C_10  and  C_12
REMARK                            x       y       z     vdW  Elec       q    Type
REMARK                         _______ _______ _______ _____ _____    ______ ____
ROOT
ATOM      1  C   UNL A   1     -28.016  -0.814  28.878  0.00  0.00    +0.067 A 
ATOM      2  C   UNL A   1     -27.064  -0.119  28.608  0.00  0.00    +0.052 A 
ATOM      3  C   UNL A   1     -25.765  -0.390  29.036  0.00  0.00    +0.180 A 
ATOM      4  C   UNL A   1     -25.530  -1.530  29.901  0.00  0.00    +0.173 A 
ATOM      5  C   UNL A   1     -26.689  -2.289  30.181  0.00  0.00    +0.048 A 
ATOM      6  C   UNL A   1     -27.873  -1.951  29.737  0.00  0.00    +0.048 A 
ATOM      7 BR   UNL A   1     -29.436  -2.824  30.200  0.00  0.00    -0.048 Br
ATOM      8 CL   UNL A   1     -29.619  -0.409  28.330  0.00  0.00    -0.082 Cl
ENDROOT
BRANCH   4   9
ATOM      9  O   UNL A   1     -24.359  -1.800  30.328  0.00  0.00    -0.468 OA
ATOM     10  C   UNL A   1     -23.530  -2.661  29.681  0.00  0.00    +0.253 C 
ENDBRANCH   4   9
BRANCH   3  11
ATOM     11  O   UNL A   1     -24.630   0.371  28.758  0.00  0.00    -0.450 OA
BRANCH  11  12
ATOM     12  C   UNL A   1     -24.602   1.351  27.888  0.00  0.00    +0.152 A 
ATOM     13  C   UNL A   1     -23.274   1.796  27.638  0.00  0.00    +0.114 A 
ATOM     14  C   UNL A   1     -25.613   1.921  27.247  0.00  0.00    +0.038 A 
ATOM     15  C   UNL A   1     -25.318   2.919  26.264  0.00  0.00    +0.003 A 
ATOM     16  C   UNL A   1     -24.079   3.444  26.023  0.00  0.00    +0.000 A 
ATOM     17  C   UNL A   1     -23.085   2.900  26.683  0.00  0.00    +0.010 A 
BRANCH  13  18
ATOM     18  C   UNL A   1     -22.086   1.378  28.350  0.00  0.00    +0.391 C 
ATOM     19  O   UNL A   1     -22.179   0.813  29.436  0.00  0.00    -0.240 OA
ATOM     20  O   UNL A   1     -20.944   1.278  27.674  0.00  0.00    -0.240 OA
ENDBRANCH  13  18
ENDBRANCH  11  12
ENDBRANCH   3  11
TORSDOF 4
