MODEL 1864
MODEL 1
REMARK VINA RESULT:    -6.207      0.000      0.000
REMARK INTER + INTRA:          -8.515
REMARK INTER:                  -7.659
REMARK INTRA:                  -0.856
REMARK UNBOUND:                -0.856
REMARK  Name = No_1864-gen_results/8p0m/2024-11-26-14-13-15/
REMARK  4 active torsions:
REMARK  status: ('A' for Active; 'I' for Inactive)
REMARK    1  A    between atoms: C_3  and  O_8
REMARK    2  A    between atoms: C_4  and  O_19
REMARK    3  A    between atoms: O_8  and  C_9
REMARK    4  A    between atoms: C_10  and  C_12
REMARK                            x       y       z     vdW  Elec       q    Type
REMARK                         _______ _______ _______ _____ _____    ______ ____
ROOT
ATOM      1  C   UNL A   1     -24.842   1.158  26.866  0.00  0.00    +0.067 A 
ATOM      2  C   UNL A   1     -25.145   0.370  27.733  0.00  0.00    +0.052 A 
ATOM      3  C   UNL A   1     -24.246  -0.117  28.680  0.00  0.00    +0.180 A 
ATOM      4  C   UNL A   1     -22.854   0.284  28.605  0.00  0.00    +0.173 A 
ATOM      5  C   UNL A   1     -22.573   1.197  27.563  0.00  0.00    +0.048 A 
ATOM      6  C   UNL A   1     -23.487   1.595  26.714  0.00  0.00    +0.048 A 
ATOM      7 BR   UNL A   1     -23.136   2.666  25.248  0.00  0.00    -0.048 Br
ATOM      8 CL   UNL A   1     -26.009   1.713  25.698  0.00  0.00    -0.082 Cl
ENDROOT
BRANCH   4   9
ATOM      9  O   UNL A   1     -21.998  -0.155  29.442  0.00  0.00    -0.468 OA
ATOM     10  C   UNL A   1     -20.822  -0.715  29.054  0.00  0.00    +0.253 C 
ENDBRANCH   4   9
BRANCH   3  11
ATOM     11  O   UNL A   1     -24.534  -1.023  29.701  0.00  0.00    -0.450 OA
BRANCH  11  12
ATOM     12  C   UNL A   1     -24.693  -2.310  29.512  0.00  0.00    +0.152 A 
ATOM     13  C   UNL A   1     -26.037  -2.714  29.742  0.00  0.00    +0.114 A 
ATOM     14  C   UNL A   1     -23.795  -3.212  29.137  0.00  0.00    +0.038 A 
ATOM     15  C   UNL A   1     -24.236  -4.553  28.904  0.00  0.00    +0.003 A 
ATOM     16  C   UNL A   1     -25.491  -5.027  29.171  0.00  0.00    +0.000 A 
ATOM     17  C   UNL A   1     -26.368  -4.139  29.573  0.00  0.00    +0.010 A 
BRANCH  13  18
ATOM     18  C   UNL A   1     -27.095  -1.890  30.283  0.00  0.00    +0.391 C 
ATOM     19  O   UNL A   1     -27.858  -1.286  29.534  0.00  0.00    -0.240 OA
ATOM     20  O   UNL A   1     -27.460  -2.076  31.549  0.00  0.00    -0.240 OA
ENDBRANCH  13  18
ENDBRANCH  11  12
ENDBRANCH   3  11
TORSDOF 4
ENDMDL
ENDMDL
