MODEL 1865
MODEL 1
REMARK VINA RESULT:    -5.259      0.000      0.000
REMARK INTER + INTRA:          -6.096
REMARK INTER:                  -5.874
REMARK INTRA:                  -0.222
REMARK UNBOUND:                -0.222
REMARK  Name = No_1865-gen_results/8p0m/2024-11-26-14-13-15/
REMARK  2 active torsions:
REMARK  status: ('A' for Active; 'I' for Inactive)
REMARK    1  A    between atoms: C_2  and  O_7
REMARK    2  A    between atoms: O_7  and  C_8
REMARK                            x       y       z     vdW  Elec       q    Type
REMARK                         _______ _______ _______ _____ _____    ______ ____
ROOT
ATOM      1  C   UNL A   1     -25.254  -2.665  29.766  0.00  0.00    +0.037 A 
ATOM      2  C   UNL A   1     -24.245  -2.998  29.189  0.00  0.00    +0.138 A 
ATOM      3  C   UNL A   1     -24.006  -4.258  28.745  0.00  0.00    +0.037 A 
ATOM      4  C   UNL A   1     -24.987  -5.243  28.967  0.00  0.00    +0.003 A 
ATOM      5  C   UNL A   1     -26.339  -3.596  29.943  0.00  0.00    +0.003 A 
ATOM      6  C   UNL A   1     -26.138  -4.882  29.541  0.00  0.00    +0.000 A 
ENDROOT
BRANCH   2   7
ATOM      7  O   UNL A   1     -23.093  -2.275  28.872  0.00  0.00    -0.479 OA
BRANCH   7   8
ATOM      8  C   UNL A   1     -22.963  -0.939  29.126  0.00  0.00    +0.166 C 
ATOM      9  C   UNL A   1     -22.337  -0.458  30.221  0.00  0.00    +0.047 C 
ATOM     10  C   UNL A   1     -23.471  -0.072  28.099  0.00  0.00    +0.047 C 
ENDBRANCH   7   8
ENDBRANCH   2   7
TORSDOF 2
ENDMDL
ENDMDL
