MODEL 1866
MODEL 1
REMARK VINA RESULT:    -6.075      0.000      0.000
REMARK INTER + INTRA:          -9.023
REMARK INTER:                  -8.206
REMARK INTRA:                  -0.817
REMARK UNBOUND:                -0.817
REMARK  Name = No_1866-gen_results/8p0m/2024-11-26-14-13-15/
REMARK  6 active torsions:
REMARK  status: ('A' for Active; 'I' for Inactive)
REMARK    1  A    between atoms: C_2  and  C_3
REMARK    2  A    between atoms: N_4  and  C_7
REMARK    3  A    between atoms: C_7  and  C_11
REMARK    4  A    between atoms: C_9  and  C_19
REMARK    5  A    between atoms: N_13  and  C_14
REMARK    6  A    between atoms: C_14  and  C_15
REMARK                            x       y       z     vdW  Elec       q    Type
REMARK                         _______ _______ _______ _____ _____    ______ ____
ROOT
ATOM      1  O   UNL A   1     -23.950   0.594  30.962  0.00  0.00    -0.268 OA
ATOM      2  C   UNL A   1     -24.196  -0.264  30.242  0.00  0.00    +0.265 C 
ATOM      3  N   UNL A   1     -23.576   0.054  28.910  0.00  0.00    -0.192 NA
ENDROOT
BRANCH   2   4
ATOM      4  C   UNL A   1     -24.577  -1.228  30.309  0.00  0.00    +0.055 A 
ATOM      5  C   UNL A   1     -24.194  -2.495  29.860  0.00  0.00    +0.011 A 
ATOM      6  C   UNL A   1     -26.083  -1.342  30.804  0.00  0.00    +0.005 A 
ATOM      7  C   UNL A   1     -26.952  -2.159  30.470  0.00  0.00    +0.000 A 
ATOM      8  C   UNL A   1     -25.133  -3.592  29.622  0.00  0.00    +0.080 A 
ATOM      9  C   UNL A   1     -26.465  -3.490  30.021  0.00  0.00    +0.007 A 
BRANCH   8  10
ATOM     10  C   UNL A   1     -24.588  -4.846  29.068  0.00  0.00    +0.388 C 
ATOM     11  O   UNL A   1     -25.131  -5.809  29.332  0.00  0.00    -0.241 OA
ATOM     12  O   UNL A   1     -23.557  -4.656  28.335  0.00  0.00    -0.241 OA
ENDBRANCH   8  10
ENDBRANCH   2   4
BRANCH   3  13
ATOM     13  C   UNL A   1     -22.830   1.204  28.544  0.00  0.00    +0.202 C 
BRANCH  13  14
ATOM     14  C   UNL A   1     -23.152   1.633  27.280  0.00  0.00    +0.264 C 
ATOM     15  O   UNL A   1     -22.562   1.996  26.489  0.00  0.00    -0.271 OA
ATOM     16  N   UNL A   1     -24.584   1.222  27.000  0.00  0.00    -0.195 NA
BRANCH  16  17
ATOM     17  C   UNL A   1     -25.152   1.491  25.675  0.00  0.00    +0.218 C 
BRANCH  17  18
ATOM     18  C   UNL A   1     -25.270   0.325  24.919  0.00  0.00    +0.417 C 
ATOM     19  F   UNL A   1     -24.675  -0.200  24.070  0.00  0.00    -0.168 F 
ATOM     20  F   UNL A   1     -26.639   0.370  24.427  0.00  0.00    -0.168 F 
ATOM     21  F   UNL A   1     -25.442  -0.700  25.950  0.00  0.00    -0.168 F 
ENDBRANCH  17  18
ENDBRANCH  16  17
ENDBRANCH  13  14
ENDBRANCH   3  13
TORSDOF 6
ENDMDL
ENDMDL
