REMARK  Name = No_1867-gen_results/8p0m/2024-11-26-14-13-15/
REMARK  5 active torsions:
REMARK  status: ('A' for Active; 'I' for Inactive)
REMARK    1  A    between atoms: C_3  and  C_4
REMARK    2  A    between atoms: C_4  and  C_8
REMARK    3  A    between atoms: C_4  and  C_14
REMARK    4  A    between atoms: N_15  and  C_16
REMARK    5  A    between atoms: C_16  and  C_17
REMARK                            x       y       z     vdW  Elec       q    Type
REMARK                         _______ _______ _______ _____ _____    ______ ____
ROOT
ATOM      1  C   UNL A   1     -26.252   0.411  27.422  0.00  0.00    +0.083 C 
ENDROOT
BRANCH   1   4
ATOM      2  C   UNL A   1     -28.016  -0.814  28.878  0.00  0.00    -0.004 A 
ATOM      3  C   UNL A   1     -28.469  -0.785  29.829  0.00  0.00    -0.000 A 
ATOM      4  C   UNL A   1     -27.087   0.290  28.638  0.00  0.00    -0.013 A 
ATOM      5  C   UNL A   1     -28.391   0.104  30.980  0.00  0.00    -0.000 A 
ATOM      6  C   UNL A   1     -27.533   1.167  30.787  0.00  0.00    -0.000 A 
ATOM      7  C   UNL A   1     -26.828   1.256  29.645  0.00  0.00    -0.004 A 
ENDBRANCH   1   4
BRANCH   1   8
ATOM      8  C   UNL A   1     -24.967   0.411  27.525  0.00  0.00    -0.013 A 
ATOM      9  C   UNL A   1     -24.155  -0.021  28.581  0.00  0.00    -0.004 A 
ATOM     10  C   UNL A   1     -22.757   0.166  28.574  0.00  0.00    -0.000 A 
ATOM     11  C   UNL A   1     -22.166   1.128  27.723  0.00  0.00    -0.000 A 
ATOM     12  C   UNL A   1     -22.959   1.744  26.730  0.00  0.00    -0.000 A 
ATOM     13  C   UNL A   1     -24.358   1.434  26.634  0.00  0.00    -0.004 A 
ENDBRANCH   1   8
BRANCH   1  14
ATOM     14  C   UNL A   1     -26.918   0.198  26.187  0.00  0.00    +0.071 C 
ATOM     15  N   UNL A   1     -27.587   1.282  25.799  0.00  0.00    -0.178 NA
BRANCH  15  16
ATOM     16  C   UNL A   1     -28.383   1.255  24.707  0.00  0.00    +0.269 C 
ATOM     17  O   UNL A   1     -27.870   1.228  23.635  0.00  0.00    -0.268 OA
BRANCH  16  18
ATOM     18  C   UNL A   1     -29.771   1.195  24.928  0.00  0.00    +0.055 A 
ATOM     19  C   UNL A   1     -30.606   1.140  23.914  0.00  0.00    +0.005 A 
ATOM     20  C   UNL A   1     -31.988   1.031  24.061  0.00  0.00    +0.000 A 
ATOM     21  C   UNL A   1     -32.535   0.988  25.338  0.00  0.00    +0.000 A 
ATOM     22  C   UNL A   1     -31.706   0.981  26.424  0.00  0.00    +0.000 A 
ATOM     23  C   UNL A   1     -30.324   1.088  26.255  0.00  0.00    +0.005 A 
ENDBRANCH  16  18
ENDBRANCH  15  16
ENDBRANCH   1  14
TORSDOF 5
