MODEL 1867
MODEL 1
REMARK VINA RESULT:    -7.523      0.000      0.000
REMARK INTER + INTRA:         -10.931
REMARK INTER:                  -9.723
REMARK INTRA:                  -1.208
REMARK UNBOUND:                -1.208
REMARK  Name = No_1867-gen_results/8p0m/2024-11-26-14-13-15/
REMARK  5 active torsions:
REMARK  status: ('A' for Active; 'I' for Inactive)
REMARK    1  A    between atoms: C_3  and  C_4
REMARK    2  A    between atoms: C_4  and  C_8
REMARK    3  A    between atoms: C_4  and  C_14
REMARK    4  A    between atoms: N_15  and  C_16
REMARK    5  A    between atoms: C_16  and  C_17
REMARK                            x       y       z     vdW  Elec       q    Type
REMARK                         _______ _______ _______ _____ _____    ______ ____
ROOT
ATOM      1  C   UNL A   1     -24.735  -1.416  29.353  0.00  0.00    +0.083 C 
ENDROOT
BRANCH   1   4
ATOM      2  C   UNL A   1     -23.845  -3.713  28.539  0.00  0.00    -0.004 A 
ATOM      3  C   UNL A   1     -24.072  -4.742  28.555  0.00  0.00    -0.000 A 
ATOM      4  C   UNL A   1     -24.872  -2.877  29.160  0.00  0.00    -0.013 A 
ATOM      5  C   UNL A   1     -25.180  -5.544  29.056  0.00  0.00    -0.000 A 
ATOM      6  C   UNL A   1     -26.177  -4.789  29.639  0.00  0.00    -0.000 A 
ATOM      7  C   UNL A   1     -26.025  -3.457  29.751  0.00  0.00    -0.004 A 
ENDBRANCH   1   4
BRANCH   1   8
ATOM      8  C   UNL A   1     -24.602  -0.937  30.543  0.00  0.00    -0.013 A 
ATOM      9  C   UNL A   1     -23.823  -1.399  31.610  0.00  0.00    -0.004 A 
ATOM     10  C   UNL A   1     -23.890  -0.816  32.893  0.00  0.00    -0.000 A 
ATOM     11  C   UNL A   1     -25.003  -0.028  33.265  0.00  0.00    -0.000 A 
ATOM     12  C   UNL A   1     -25.939   0.347  32.276  0.00  0.00    -0.000 A 
ATOM     13  C   UNL A   1     -25.783  -0.120  30.927  0.00  0.00    -0.004 A 
ENDBRANCH   1   8
BRANCH   1  14
ATOM     14  C   UNL A   1     -24.439  -0.660  28.189  0.00  0.00    +0.071 C 
ATOM     15  N   UNL A   1     -25.475  -0.625  27.353  0.00  0.00    -0.178 NA
BRANCH  15  16
ATOM     16  C   UNL A   1     -25.365  -0.054  26.133  0.00  0.00    +0.269 C 
ATOM     17  O   UNL A   1     -25.613  -0.714  25.176  0.00  0.00    -0.268 OA
BRANCH  16  18
ATOM     18  C   UNL A   1     -25.026   1.311  26.093  0.00  0.00    +0.055 A 
ATOM     19  C   UNL A   1     -23.856   1.694  25.630  0.00  0.00    +0.005 A 
ATOM     20  C   UNL A   1     -23.474   3.030  25.518  0.00  0.00    +0.000 A 
ATOM     21  C   UNL A   1     -24.355   4.026  25.921  0.00  0.00    +0.000 A 
ATOM     22  C   UNL A   1     -25.605   3.683  26.352  0.00  0.00    +0.000 A 
ATOM     23  C   UNL A   1     -25.970   2.339  26.454  0.00  0.00    +0.005 A 
ENDBRANCH  16  18
ENDBRANCH  15  16
ENDBRANCH   1  14
TORSDOF 5
ENDMDL
ENDMDL
