MODEL 1868
MODEL 1
REMARK VINA RESULT:    -5.369      0.000      0.000
REMARK INTER + INTRA:          -6.247
REMARK INTER:                  -5.996
REMARK INTRA:                  -0.250
REMARK UNBOUND:                -0.250
REMARK  Name = No_1868-gen_results/8p0m/2024-11-26-14-13-15/
REMARK  2 active torsions:
REMARK  status: ('A' for Active; 'I' for Inactive)
REMARK    1  A    between atoms: C_3  and  C_4
REMARK    2  A    between atoms: C_4  and  C_9
REMARK                            x       y       z     vdW  Elec       q    Type
REMARK                         _______ _______ _______ _____ _____    ______ ____
ROOT
ATOM      1  C   UNL A   1     -24.350  -4.902  28.703  0.00  0.00    -0.000 A 
ATOM      2  C   UNL A   1     -23.912  -3.784  28.556  0.00  0.00    -0.004 A 
ATOM      3  C   UNL A   1     -24.461  -2.657  28.909  0.00  0.00    -0.018 A 
ATOM      4  C   UNL A   1     -25.633  -5.065  29.413  0.00  0.00    -0.000 A 
ATOM      5  C   UNL A   1     -26.316  -3.959  29.783  0.00  0.00    -0.000 A 
ATOM      6  C   UNL A   1     -25.735  -2.638  29.581  0.00  0.00    -0.004 A 
ENDROOT
BRANCH   3   7
ATOM      7  C   UNL A   1     -23.888  -1.303  28.716  0.00  0.00    +0.044 C 
ATOM      8  C   UNL A   1     -24.395  -0.318  27.858  0.00  0.00    +0.009 C 
BRANCH   7   9
ATOM      9  C   UNL A   1     -22.640  -0.998  29.391  0.00  0.00    -0.022 C 
ATOM     10  C   UNL A   1     -21.666  -0.430  28.983  0.00  0.00    -0.005 C 
ENDBRANCH   7   9
ENDBRANCH   3   7
TORSDOF 2
ENDMDL
ENDMDL
