REMARK  Name = No_1869-gen_results/8p0m/2024-11-26-14-13-15/
REMARK  5 active torsions:
REMARK  status: ('A' for Active; 'I' for Inactive)
REMARK    1  A    between atoms: C_3  and  C_4
REMARK    2  A    between atoms: C_4  and  C_8
REMARK    3  A    between atoms: C_8  and  C_18
REMARK    4  A    between atoms: C_9  and  C_10
REMARK    5  A    between atoms: C_10  and  C_11
REMARK                            x       y       z     vdW  Elec       q    Type
REMARK                         _______ _______ _______ _____ _____    ______ ____
ROOT
ATOM      1  C   UNL A   1     -25.898   0.239  26.745  0.00  0.00    -0.022 C 
ATOM      2  C   UNL A   1     -24.926   0.763  26.032  0.00  0.00    -0.025 C 
ENDROOT
BRANCH   1   3
ATOM      3  C   UNL A   1     -27.236   0.736  26.460  0.00  0.00    -0.004 A 
ATOM      4  C   UNL A   1     -27.917   0.256  25.311  0.00  0.00    -0.000 A 
ATOM      5  C   UNL A   1     -29.243   0.585  25.065  0.00  0.00    -0.000 A 
ATOM      6  C   UNL A   1     -29.975   1.266  25.976  0.00  0.00    -0.000 A 
ATOM      7  C   UNL A   1     -29.336   1.828  27.118  0.00  0.00    -0.000 A 
ATOM      8  C   UNL A   1     -28.051   1.606  27.394  0.00  0.00    -0.000 A 
ENDBRANCH   1   3
BRANCH   1   9
ATOM      9  C   UNL A   1     -25.683  -0.777  27.683  0.00  0.00    +0.052 C 
BRANCH   9  12
ATOM     10  C   UNL A   1     -28.016  -0.814  28.878  0.00  0.00    -0.004 A 
ATOM     11  C   UNL A   1     -28.469  -0.785  29.829  0.00  0.00    -0.000 A 
ATOM     12  C   UNL A   1     -26.546  -0.876  28.850  0.00  0.00    -0.018 A 
ATOM     13  C   UNL A   1     -27.918  -1.003  31.188  0.00  0.00    -0.000 A 
ATOM     14  C   UNL A   1     -26.531  -1.079  31.246  0.00  0.00    -0.000 A 
ATOM     15  C   UNL A   1     -25.780  -1.046  30.090  0.00  0.00    -0.004 A 
ENDBRANCH   9  12
ENDBRANCH   1   9
BRANCH   2  16
ATOM     16  C   UNL A   1     -24.247   1.800  26.160  0.00  0.00    +0.052 C 
BRANCH  16  17
ATOM     17  C   UNL A   1     -24.451   2.700  27.273  0.00  0.00    -0.017 A 
ATOM     18  C   UNL A   1     -25.230   3.865  27.103  0.00  0.00    -0.004 A 
ATOM     19  C   UNL A   1     -25.869   4.392  27.828  0.00  0.00    +0.001 A 
ATOM     20  C   UNL A   1     -25.859   4.001  29.256  0.00  0.00    +0.011 A 
ATOM     21  C   UNL A   1     -25.105   2.852  29.532  0.00  0.00    +0.057 A 
ATOM     22  C   UNL A   1     -24.440   2.129  28.550  0.00  0.00    +0.007 A 
ATOM     23 CL   UNL A   1     -25.256   2.328  31.218  0.00  0.00    -0.082 Cl
ENDBRANCH  16  17
ENDBRANCH   2  16
TORSDOF 5
