MODEL 1869
MODEL 1
REMARK VINA RESULT:    -8.389      0.000      0.000
REMARK INTER + INTRA:         -13.058
REMARK INTER:                 -10.841
REMARK INTRA:                  -2.217
REMARK UNBOUND:                -2.217
REMARK  Name = No_1869-gen_results/8p0m/2024-11-26-14-13-15/
REMARK  5 active torsions:
REMARK  status: ('A' for Active; 'I' for Inactive)
REMARK    1  A    between atoms: C_3  and  C_4
REMARK    2  A    between atoms: C_4  and  C_8
REMARK    3  A    between atoms: C_8  and  C_18
REMARK    4  A    between atoms: C_9  and  C_10
REMARK    5  A    between atoms: C_10  and  C_11
REMARK                            x       y       z     vdW  Elec       q    Type
REMARK                         _______ _______ _______ _____ _____    ______ ____
ROOT
ATOM      1  C   UNL A   1     -23.302  -0.520  28.995  0.00  0.00    -0.022 C 
ATOM      2  C   UNL A   1     -22.962   0.230  30.020  0.00  0.00    -0.025 C 
ENDROOT
BRANCH   1   3
ATOM      3  C   UNL A   1     -23.742   0.190  27.804  0.00  0.00    -0.004 A 
ATOM      4  C   UNL A   1     -22.966   1.277  27.326  0.00  0.00    -0.000 A 
ATOM      5  C   UNL A   1     -23.257   1.901  26.120  0.00  0.00    -0.000 A 
ATOM      6  C   UNL A   1     -24.210   1.413  25.293  0.00  0.00    -0.000 A 
ATOM      7  C   UNL A   1     -25.065   0.365  25.741  0.00  0.00    -0.000 A 
ATOM      8  C   UNL A   1     -24.885  -0.246  26.911  0.00  0.00    -0.000 A 
ENDBRANCH   1   3
BRANCH   1   9
ATOM      9  C   UNL A   1     -23.196  -1.916  29.014  0.00  0.00    +0.052 C 
BRANCH   9  12
ATOM     10  C   UNL A   1     -25.669  -2.274  29.807  0.00  0.00    -0.004 A 
ATOM     11  C   UNL A   1     -26.376  -3.023  30.030  0.00  0.00    -0.000 A 
ATOM     12  C   UNL A   1     -24.379  -2.726  29.262  0.00  0.00    -0.018 A 
ATOM     13  C   UNL A   1     -26.410  -4.470  29.708  0.00  0.00    -0.000 A 
ATOM     14  C   UNL A   1     -25.226  -4.975  29.181  0.00  0.00    -0.000 A 
ATOM     15  C   UNL A   1     -24.168  -4.134  28.908  0.00  0.00    -0.004 A 
ENDBRANCH   9  12
ENDBRANCH   1   9
BRANCH   2  16
ATOM     16  C   UNL A   1     -23.620   0.757  30.938  0.00  0.00    +0.052 C 
BRANCH  16  17
ATOM     17  C   UNL A   1     -24.225  -0.040  31.982  0.00  0.00    -0.017 A 
ATOM     18  C   UNL A   1     -23.477  -1.057  32.615  0.00  0.00    -0.004 A 
ATOM     19  C   UNL A   1     -23.535  -1.428  33.649  0.00  0.00    +0.001 A 
ATOM     20  C   UNL A   1     -24.624  -0.977  34.545  0.00  0.00    +0.011 A 
ATOM     21  C   UNL A   1     -25.432   0.033  34.005  0.00  0.00    +0.057 A 
ATOM     22  C   UNL A   1     -25.219   0.581  32.746  0.00  0.00    +0.007 A 
ATOM     23 CL   UNL A   1     -26.613   0.656  35.170  0.00  0.00    -0.082 Cl
ENDBRANCH  16  17
ENDBRANCH   2  16
TORSDOF 5
ENDMDL
ENDMDL
