MODEL 186
MODEL 1
REMARK VINA RESULT:    -6.408      0.000      0.000
REMARK INTER + INTRA:          -8.544
REMARK INTER:                  -7.906
REMARK INTRA:                  -0.638
REMARK UNBOUND:                -0.638
REMARK  Name = No_186-gen_results/8p0m/2024-11-26-14-13-15/
REMARK  4 active torsions:
REMARK  status: ('A' for Active; 'I' for Inactive)
REMARK    1  A    between atoms: C_4  and  C_7
REMARK    2  A    between atoms: C_7  and  C_8
REMARK    3  A    between atoms: C_8  and  C_9
REMARK    4  A    between atoms: C_9  and  C_10
REMARK                            x       y       z     vdW  Elec       q    Type
REMARK                         _______ _______ _______ _____ _____    ______ ____
ROOT
ATOM      1  C   UNL A   1     -22.687  -1.156  28.968  0.00  0.00    +0.009 C 
ENDROOT
BRANCH   1   2
ATOM      2  C   UNL A   1     -22.411   0.224  28.746  0.00  0.00    +0.027 C 
BRANCH   2   6
ATOM      3  C   UNL A   1     -24.868   0.883  25.859  0.00  0.00    -0.000 A 
ATOM      4  C   UNL A   1     -24.306   1.654  25.411  0.00  0.00    -0.000 A 
ATOM      5  C   UNL A   1     -24.240   0.245  27.078  0.00  0.00    -0.004 A 
ATOM      6  C   UNL A   1     -23.055   0.794  27.613  0.00  0.00    -0.022 A 
ATOM      7  C   UNL A   1     -23.093   2.420  25.776  0.00  0.00    -0.000 A 
ATOM      8  C   UNL A   1     -22.491   1.866  26.897  0.00  0.00    -0.004 A 
ENDBRANCH   2   6
ENDBRANCH   1   2
BRANCH   1   9
ATOM      9  C   UNL A   1     -23.479  -1.609  29.980  0.00  0.00    +0.027 C 
BRANCH   9  10
ATOM     10  C   UNL A   1     -24.546  -2.527  29.746  0.00  0.00    -0.022 A 
ATOM     11  C   UNL A   1     -24.218  -3.781  29.261  0.00  0.00    -0.004 A 
ATOM     12  C   UNL A   1     -25.180  -4.769  29.294  0.00  0.00    -0.000 A 
ATOM     13  C   UNL A   1     -26.523  -4.505  29.668  0.00  0.00    -0.000 A 
ATOM     14  C   UNL A   1     -26.792  -3.263  30.175  0.00  0.00    -0.000 A 
ATOM     15  C   UNL A   1     -25.802  -2.290  30.250  0.00  0.00    -0.004 A 
ENDBRANCH   9  10
ENDBRANCH   1   9
TORSDOF 4
ENDMDL
ENDMDL
