REMARK  Name = No_187-gen_results/8p0m/2024-11-26-14-13-15/
REMARK  3 active torsions:
REMARK  status: ('A' for Active; 'I' for Inactive)
REMARK    1  A    between atoms: C_4  and  C_8
REMARK    2  A    between atoms: C_8  and  C_9
REMARK    3  A    between atoms: C_13  and  C_15
REMARK                            x       y       z     vdW  Elec       q    Type
REMARK                         _______ _______ _______ _____ _____    ______ ____
ROOT
ATOM      1  C   UNL A   1     -24.377  -1.098  30.069  0.00  0.00    +0.038 C 
ATOM      2  C   UNL A   1     -24.041  -2.618  30.136  0.00  0.00    +0.009 C 
ATOM      3  C   UNL A   1     -23.988  -0.568  31.573  0.00  0.00    +0.009 C 
ENDROOT
BRANCH   1   7
ATOM      4  C   UNL A   1     -28.016  -0.814  28.878  0.00  0.00    +0.029 A 
ATOM      5  C   UNL A   1     -28.469  -0.785  29.829  0.00  0.00    +0.140 A 
ATOM      6  C   UNL A   1     -26.546  -0.876  28.850  0.00  0.00    -0.002 A 
ATOM      7  C   UNL A   1     -25.804  -1.032  30.057  0.00  0.00    -0.019 A 
ATOM      8  C   UNL A   1     -27.944  -0.987  31.207  0.00  0.00    +0.029 A 
ATOM      9  C   UNL A   1     -26.582  -1.039  31.223  0.00  0.00    -0.002 A 
ATOM     10  F   UNL A   1     -29.909  -0.740  29.864  0.00  0.00    -0.204 F 
ENDBRANCH   1   7
BRANCH   1  11
ATOM     11  C   UNL A   1     -23.596  -0.540  29.104  0.00  0.00    -0.019 A 
ATOM     12  C   UNL A   1     -22.162  -0.568  29.246  0.00  0.00    -0.004 A 
ATOM     13  C   UNL A   1     -21.380   0.076  28.269  0.00  0.00    -0.000 A 
ATOM     14  C   UNL A   1     -21.946   1.093  27.463  0.00  0.00    +0.004 A 
ATOM     15  C   UNL A   1     -23.316   1.327  27.492  0.00  0.00    +0.071 A 
ATOM     16  C   UNL A   1     -24.127   0.599  28.374  0.00  0.00    -0.000 A 
BRANCH  15  17
ATOM     17  C   UNL A   1     -23.841   2.396  26.634  0.00  0.00    +0.419 C 
ATOM     18  F   UNL A   1     -23.402   2.513  25.619  0.00  0.00    -0.166 F 
ATOM     19  F   UNL A   1     -23.759   3.643  27.377  0.00  0.00    -0.166 F 
ATOM     20  F   UNL A   1     -25.248   2.210  26.517  0.00  0.00    -0.166 F 
ENDBRANCH  15  17
ENDBRANCH   1  11
TORSDOF 3
