MODEL 1870
MODEL 1
REMARK VINA RESULT:    -4.257      0.000      0.000
REMARK INTER + INTRA:          -4.257
REMARK INTER:                  -4.257
REMARK INTRA:                   0.000
REMARK UNBOUND:                 0.000
REMARK  Name = No_1870-gen_results/8p0m/2024-11-26-14-13-15/
REMARK  0 active torsions:
REMARK  status: ('A' for Active; 'I' for Inactive)
REMARK                            x       y       z     vdW  Elec       q    Type
REMARK                         _______ _______ _______ _____ _____    ______ ____
ROOT
ATOM      1  C   UNL A   1     -24.950  -5.376  28.937  0.00  0.00    +0.000 A 
ATOM      2  C   UNL A   1     -24.135  -4.743  28.722  0.00  0.00    +0.000 A 
ATOM      3  C   UNL A   1     -26.104  -4.758  29.608  0.00  0.00    +0.000 A 
ATOM      4  C   UNL A   1     -26.152  -3.349  29.817  0.00  0.00    +0.000 A 
ATOM      5  C   UNL A   1     -23.956  -3.267  28.782  0.00  0.00    +0.000 A 
ATOM      6  C   UNL A   1     -25.003  -2.659  29.408  0.00  0.00    +0.000 A 
ENDROOT
TORSDOF 0
ENDMDL
ENDMDL
