REMARK  Name = No_1871-gen_results/8p0m/2024-11-26-14-13-15/
REMARK  3 active torsions:
REMARK  status: ('A' for Active; 'I' for Inactive)
REMARK    1  A    between atoms: C_3  and  C_8
REMARK    2  A    between atoms: C_8  and  C_9
REMARK    3  A    between atoms: C_13  and  C_15
REMARK                            x       y       z     vdW  Elec       q    Type
REMARK                         _______ _______ _______ _____ _____    ______ ____
ROOT
ATOM      1  O   UNL A   1     -28.123  -1.335  28.487  0.00  0.00    -0.275 OA
ATOM      2  C   UNL A   1     -28.521  -0.436  29.078  0.00  0.00    +0.226 C 
ATOM      3  C   UNL A   1     -28.589   0.592  28.946  0.00  0.00    +0.081 C 
ATOM      4  N   UNL A   1     -29.125  -0.940  30.427  0.00  0.00    -0.277 N 
ATOM      5  C   UNL A   1     -29.296   1.637  29.434  0.00  0.00    +0.011 C 
ATOM      6  C   UNL A   1     -29.800   0.014  31.159  0.00  0.00    +0.076 C 
ATOM      7  C   UNL A   1     -29.882   1.288  30.746  0.00  0.00    +0.020 C 
ATOM      8  C   UNL A   1     -29.010  -2.325  30.810  0.00  0.00    +0.119 C 
ATOM      9  C   UNL A   1     -29.806  -2.824  31.724  0.00  0.00    -0.009 C 
ATOM     10  C   UNL A   1     -29.873  -2.396  32.764  0.00  0.00    -0.029 C 
ATOM     11  C   UNL A   1     -30.296  -0.983  33.175  0.00  0.00    +0.027 C 
ATOM     12  C   UNL A   1     -30.278  -0.059  32.526  0.00  0.00    +0.023 C 
ATOM     13  C   UNL A   1     -30.770   1.131  32.986  0.00  0.00    +0.002 C 
ENDROOT
BRANCH   3  14
ATOM     14  C   UNL A   1     -27.757   0.874  27.634  0.00  0.00    +0.035 C 
BRANCH  14  15
ATOM     15  C   UNL A   1     -26.727   1.925  27.752  0.00  0.00    -0.021 A 
ATOM     16  C   UNL A   1     -25.845   2.168  26.739  0.00  0.00    -0.004 A 
ATOM     17  C   UNL A   1     -24.734   3.149  26.876  0.00  0.00    -0.000 A 
ATOM     18  C   UNL A   1     -24.787   3.892  28.011  0.00  0.00    +0.007 A 
ATOM     19  C   UNL A   1     -25.702   3.717  28.978  0.00  0.00    +0.080 A 
ATOM     20  C   UNL A   1     -26.665   2.719  28.902  0.00  0.00    +0.002 A 
BRANCH  19  21
ATOM     21  C   UNL A   1     -25.597   4.583  30.221  0.00  0.00    +0.388 C 
ATOM     22  O   UNL A   1     -25.534   4.062  31.282  0.00  0.00    -0.241 OA
ATOM     23  O   UNL A   1     -25.524   5.869  30.029  0.00  0.00    -0.241 OA
ENDBRANCH  19  21
ENDBRANCH  14  15
ENDBRANCH   3  14
TORSDOF 3
