MODEL 1871
MODEL 1
REMARK VINA RESULT:    -7.420      0.000      0.000
REMARK INTER + INTRA:          -9.274
REMARK INTER:                  -8.721
REMARK INTRA:                  -0.553
REMARK UNBOUND:                -0.553
REMARK  Name = No_1871-gen_results/8p0m/2024-11-26-14-13-15/
REMARK  3 active torsions:
REMARK  status: ('A' for Active; 'I' for Inactive)
REMARK    1  A    between atoms: C_3  and  C_8
REMARK    2  A    between atoms: C_8  and  C_9
REMARK    3  A    between atoms: C_13  and  C_15
REMARK                            x       y       z     vdW  Elec       q    Type
REMARK                         _______ _______ _______ _____ _____    ______ ____
ROOT
ATOM      1  O   UNL A   1     -25.279   0.327  30.737  0.00  0.00    -0.275 OA
ATOM      2  C   UNL A   1     -24.748  -0.544  30.213  0.00  0.00    +0.226 C 
ATOM      3  C   UNL A   1     -23.832  -0.711  29.752  0.00  0.00    +0.081 C 
ATOM      4  N   UNL A   1     -25.681  -1.796  30.232  0.00  0.00    -0.277 N 
ATOM      5  C   UNL A   1     -23.042  -1.752  29.403  0.00  0.00    +0.011 C 
ATOM      6  C   UNL A   1     -25.100  -2.967  29.793  0.00  0.00    +0.076 C 
ATOM      7  C   UNL A   1     -23.836  -2.998  29.343  0.00  0.00    +0.020 C 
ATOM      8  C   UNL A   1     -27.028  -1.699  30.736  0.00  0.00    +0.119 C 
ATOM      9  C   UNL A   1     -27.677  -2.780  31.096  0.00  0.00    -0.009 C 
ATOM     10  C   UNL A   1     -27.853  -3.640  30.391  0.00  0.00    -0.029 C 
ATOM     11  C   UNL A   1     -26.808  -4.509  29.686  0.00  0.00    +0.027 C 
ATOM     12  C   UNL A   1     -25.732  -4.234  29.480  0.00  0.00    +0.023 C 
ATOM     13  C   UNL A   1     -24.872  -5.138  28.921  0.00  0.00    +0.002 C 
ENDROOT
BRANCH   3  14
ATOM     14  C   UNL A   1     -23.162   0.717  29.684  0.00  0.00    +0.035 C 
BRANCH  14  15
ATOM     15  C   UNL A   1     -23.123   1.335  28.344  0.00  0.00    -0.021 A 
ATOM     16  C   UNL A   1     -22.046   1.174  27.522  0.00  0.00    -0.004 A 
ATOM     17  C   UNL A   1     -21.940   1.872  26.211  0.00  0.00    -0.000 A 
ATOM     18  C   UNL A   1     -23.069   2.527  25.839  0.00  0.00    +0.007 A 
ATOM     19  C   UNL A   1     -24.167   2.623  26.607  0.00  0.00    +0.080 A 
ATOM     20  C   UNL A   1     -24.219   2.072  27.881  0.00  0.00    +0.002 A 
BRANCH  19  21
ATOM     21  C   UNL A   1     -25.332   3.443  26.082  0.00  0.00    +0.388 C 
ATOM     22  O   UNL A   1     -26.234   2.889  25.554  0.00  0.00    -0.241 OA
ATOM     23  O   UNL A   1     -25.286   4.726  26.305  0.00  0.00    -0.241 OA
ENDBRANCH  19  21
ENDBRANCH  14  15
ENDBRANCH   3  14
TORSDOF 3
ENDMDL
ENDMDL
