REMARK  Name = No_1872-gen_results/8p0m/2024-11-26-14-13-15/
REMARK  8 active torsions:
REMARK  status: ('A' for Active; 'I' for Inactive)
REMARK    1  A    between atoms: C_3  and  C_12
REMARK    2  A    between atoms: C_12  and  O_14
REMARK    3  A    between atoms: O_14  and  C_16
REMARK    4  A    between atoms: C_20  and  C_23
REMARK    5  A    between atoms: C_24  and  C_25
REMARK    6  A    between atoms: C_29  and  C_31
REMARK    7  A    between atoms: C_31  and  O_33
REMARK    8  A    between atoms: O_33  and  C_34
REMARK                            x       y       z     vdW  Elec       q    Type
REMARK                         _______ _______ _______ _____ _____    ______ ____
ROOT
ATOM      1  C   UNL A   1     -30.060   0.413  30.389  0.00  0.00    +0.148 A 
ATOM      2  C   UNL A   1     -30.122   1.520  30.303  0.00  0.00    +0.038 A 
ATOM      3  C   UNL A   1     -31.302   2.419  29.904  0.00  0.00    +0.010 A 
ATOM      4  C   UNL A   1     -32.437   1.649  29.616  0.00  0.00    +0.035 A 
ATOM      5  C   UNL A   1     -32.434   0.294  29.636  0.00  0.00    +0.009 A 
ATOM      6  C   UNL A   1     -31.330  -0.358  29.994  0.00  0.00    +0.038 A 
ATOM      7 BR   UNL A   1     -34.037   2.612  29.180  0.00  0.00    -0.049 Br
ENDROOT
BRANCH   5   8
ATOM      8  C   UNL A   1     -33.668  -0.449  29.284  0.00  0.00    +0.001 C 
ATOM      9  C   UNL A   1     -33.711  -1.282  28.362  0.00  0.00    +0.000 C 
BRANCH   9  10
ATOM     10  C   UNL A   1     -32.459  -1.618  27.624  0.00  0.00    +0.000 A 
ATOM     11  C   UNL A   1     -32.510  -2.624  26.541  0.00  0.00    +0.000 A 
ATOM     12  C   UNL A   1     -31.366  -2.761  25.680  0.00  0.00    +0.000 A 
ATOM     13  C   UNL A   1     -30.614  -1.590  25.413  0.00  0.00    +0.006 A 
ATOM     14  C   UNL A   1     -30.740  -0.488  26.378  0.00  0.00    +0.076 A 
ATOM     15  C   UNL A   1     -31.634  -0.469  27.315  0.00  0.00    +0.006 A 
BRANCH  14  16
ATOM     16  C   UNL A   1     -29.730   0.579  26.082  0.00  0.00    +0.346 C 
ATOM     17  O   UNL A   1     -28.883   0.509  25.212  0.00  0.00    -0.244 OA
BRANCH  16  18
ATOM     18  O   UNL A   1     -29.962   1.808  26.784  0.00  0.00    -0.418 OA
BRANCH  18  19
ATOM     19  C   UNL A   1     -29.589   2.985  26.202  0.00  0.00    +0.183 C 
ATOM     20  C   UNL A   1     -28.348   3.369  26.653  0.00  0.00    +0.044 C 
ENDBRANCH  18  19
ENDBRANCH  16  18
ENDBRANCH  14  16
ENDBRANCH   9  10
ENDBRANCH   5   8
BRANCH   1  21
ATOM     21  O   UNL A   1     -29.212  -0.229  30.632  0.00  0.00    -0.424 OA
BRANCH  21  22
ATOM     22  C   UNL A   1     -27.966   0.049  30.914  0.00  0.00    +0.330 C 
ATOM     23  O   UNL A   1     -27.534   0.085  31.912  0.00  0.00    -0.249 OA
BRANCH  22  26
ATOM     24  O   UNL A   1     -28.123  -1.335  28.487  0.00  0.00    -0.272 OA
ATOM     25  C   UNL A   1     -27.481  -0.404  28.709  0.00  0.00    +0.258 C 
ATOM     26  C   UNL A   1     -27.190   0.246  29.527  0.00  0.00    +0.182 C 
ATOM     27  N   UNL A   1     -26.602  -0.158  27.552  0.00  0.00    -0.160 NA
ATOM     28  C   UNL A   1     -25.682   0.836  27.585  0.00  0.00    +0.152 A 
ATOM     29  C   UNL A   1     -25.503   1.591  28.720  0.00  0.00    +0.012 A 
ATOM     30  C   UNL A   1     -26.021   1.366  29.614  0.00  0.00    +0.050 C 
ATOM     31  N   UNL A   1     -24.938   1.057  26.409  0.00  0.00    -0.211 NA
ATOM     32  C   UNL A   1     -23.911   2.019  26.509  0.00  0.00    +0.171 A 
ATOM     33  C   UNL A   1     -23.611   2.717  27.595  0.00  0.00    +0.037 A 
ATOM     34  C   UNL A   1     -24.339   2.574  28.594  0.00  0.00    +0.002 A 
ATOM     35  N   UNL A   1     -23.165   2.178  25.335  0.00  0.00    -0.107 NA
ENDBRANCH  22  26
ENDBRANCH  21  22
ENDBRANCH   1  21
TORSDOF 8
