MODEL 1872
MODEL 1
REMARK VINA RESULT:    -6.547      0.000      0.000
REMARK INTER + INTRA:         -12.754
REMARK INTER:                  -9.608
REMARK INTRA:                  -3.146
REMARK UNBOUND:                -3.146
REMARK  Name = No_1872-gen_results/8p0m/2024-11-26-14-13-15/
REMARK  8 active torsions:
REMARK  status: ('A' for Active; 'I' for Inactive)
REMARK    1  A    between atoms: C_3  and  C_12
REMARK    2  A    between atoms: C_12  and  O_14
REMARK    3  A    between atoms: O_14  and  C_16
REMARK    4  A    between atoms: C_20  and  C_23
REMARK    5  A    between atoms: C_24  and  C_25
REMARK    6  A    between atoms: C_29  and  C_31
REMARK    7  A    between atoms: C_31  and  O_33
REMARK    8  A    between atoms: O_33  and  C_34
REMARK                            x       y       z     vdW  Elec       q    Type
REMARK                         _______ _______ _______ _____ _____    ______ ____
ROOT
ATOM      1  C   UNL A   1     -24.042   1.842  26.766  0.00  0.00    +0.148 A 
ATOM      2  C   UNL A   1     -24.075   2.953  26.727  0.00  0.00    +0.038 A 
ATOM      3  C   UNL A   1     -25.243   3.899  26.410  0.00  0.00    +0.010 A 
ATOM      4  C   UNL A   1     -26.409   3.173  26.135  0.00  0.00    +0.035 A 
ATOM      5  C   UNL A   1     -26.444   1.818  26.100  0.00  0.00    +0.009 A 
ATOM      6  C   UNL A   1     -25.347   1.122  26.389  0.00  0.00    +0.038 A 
ATOM      7 BR   UNL A   1     -27.996   4.196  25.800  0.00  0.00    -0.049 Br
ENDROOT
BRANCH   5   8
ATOM      8  C   UNL A   1     -27.711   1.124  25.766  0.00  0.00    +0.001 C 
ATOM      9  C   UNL A   1     -28.474   0.663  26.633  0.00  0.00    +0.000 C 
BRANCH   9  10
ATOM     10  C   UNL A   1     -28.156   0.880  28.074  0.00  0.00    +0.000 A 
ATOM     11  C   UNL A   1     -28.986   1.817  28.861  0.00  0.00    +0.000 A 
ATOM     12  C   UNL A   1     -28.830   1.834  30.291  0.00  0.00    +0.000 A 
ATOM     13  C   UNL A   1     -28.501   0.608  30.920  0.00  0.00    +0.006 A 
ATOM     14  C   UNL A   1     -27.877  -0.422  30.077  0.00  0.00    +0.076 A 
ATOM     15  C   UNL A   1     -27.807  -0.331  28.787  0.00  0.00    +0.006 A 
BRANCH  14  16
ATOM     16  C   UNL A   1     -27.393  -1.562  30.922  0.00  0.00    +0.346 C 
ATOM     17  O   UNL A   1     -27.618  -1.687  32.110  0.00  0.00    -0.244 OA
BRANCH  16  18
ATOM     18  O   UNL A   1     -26.797  -2.628  30.171  0.00  0.00    -0.418 OA
BRANCH  18  19
ATOM     19  C   UNL A   1     -25.436  -2.741  30.145  0.00  0.00    +0.183 C 
ATOM     20  C   UNL A   1     -24.985  -2.783  28.847  0.00  0.00    +0.044 C 
ENDBRANCH  18  19
ENDBRANCH  16  18
ENDBRANCH  14  16
ENDBRANCH   9  10
ENDBRANCH   5   8
BRANCH   1  21
ATOM     21  O   UNL A   1     -23.204   1.167  26.951  0.00  0.00    -0.424 OA
BRANCH  21  22
ATOM     22  C   UNL A   1     -22.140   1.291  27.700  0.00  0.00    +0.330 C 
ATOM     23  O   UNL A   1     -21.228   1.818  27.425  0.00  0.00    -0.249 OA
BRANCH  22  26
ATOM     24  O   UNL A   1     -21.177  -1.065  28.864  0.00  0.00    -0.272 OA
ATOM     25  C   UNL A   1     -21.898  -0.304  29.343  0.00  0.00    +0.258 C 
ATOM     26  C   UNL A   1     -22.457   0.595  29.107  0.00  0.00    +0.182 C 
ATOM     27  N   UNL A   1     -22.386  -0.863  30.616  0.00  0.00    -0.160 NA
ATOM     28  C   UNL A   1     -23.316  -0.202  31.347  0.00  0.00    +0.152 A 
ATOM     29  C   UNL A   1     -23.871   0.968  30.886  0.00  0.00    +0.012 A 
ATOM     30  C   UNL A   1     -23.645   1.338  29.922  0.00  0.00    +0.050 C 
ATOM     31  N   UNL A   1     -23.669  -0.764  32.590  0.00  0.00    -0.211 NA
ATOM     32  C   UNL A   1     -24.719  -0.118  33.275  0.00  0.00    +0.171 A 
ATOM     33  C   UNL A   1     -25.372   0.955  32.851  0.00  0.00    +0.037 A 
ATOM     34  C   UNL A   1     -24.983   1.489  31.797  0.00  0.00    +0.002 A 
ATOM     35  N   UNL A   1     -25.072  -0.732  34.483  0.00  0.00    -0.107 NA
ENDBRANCH  22  26
ENDBRANCH  21  22
ENDBRANCH   1  21
TORSDOF 8
ENDMDL
ENDMDL
