REMARK  Name = No_1873-gen_results/8p0m/2024-11-26-14-13-15/
REMARK  2 active torsions:
REMARK  status: ('A' for Active; 'I' for Inactive)
REMARK    1  A    between atoms: C_3  and  C_4
REMARK    2  A    between atoms: C_6  and  C_13
REMARK                            x       y       z     vdW  Elec       q    Type
REMARK                         _______ _______ _______ _____ _____    ______ ____
ROOT
ATOM      1  C   UNL A   1     -28.016  -0.814  28.878  0.00  0.00    +0.007 A 
ATOM      2  C   UNL A   1     -27.064  -0.119  28.608  0.00  0.00    +0.000 A 
ATOM      3  C   UNL A   1     -25.792  -0.430  29.076  0.00  0.00    +0.000 A 
ATOM      4  C   UNL A   1     -27.882  -1.899  29.863  0.00  0.00    +0.080 A 
ATOM      5  C   UNL A   1     -26.671  -2.327  30.321  0.00  0.00    +0.007 A 
ATOM      6  C   UNL A   1     -25.543  -1.585  29.932  0.00  0.00    +0.000 A 
ENDROOT
BRANCH   3   7
ATOM      7  C   UNL A   1     -24.546   0.349  28.823  0.00  0.00    +0.000 A 
ATOM      8  C   UNL A   1     -23.241   0.022  29.332  0.00  0.00    +0.000 A 
ATOM      9  C   UNL A   1     -22.192   0.830  29.000  0.00  0.00    +0.000 A 
ATOM     10  C   UNL A   1     -22.147   1.778  28.029  0.00  0.00    +0.000 A 
ATOM     11  C   UNL A   1     -24.532   1.399  27.816  0.00  0.00    +0.000 A 
ATOM     12  C   UNL A   1     -23.362   2.069  27.461  0.00  0.00    +0.000 A 
ENDBRANCH   3   7
BRANCH   4  13
ATOM     13  C   UNL A   1     -29.062  -2.725  30.300  0.00  0.00    +0.388 C 
ATOM     14  O   UNL A   1     -29.004  -3.935  30.281  0.00  0.00    -0.241 OA
ATOM     15  O   UNL A   1     -29.913  -2.158  31.089  0.00  0.00    -0.241 OA
ENDBRANCH   4  13
TORSDOF 2
