MODEL 1873
MODEL 1
REMARK VINA RESULT:    -6.563      0.000      0.000
REMARK INTER + INTRA:          -7.745
REMARK INTER:                  -7.330
REMARK INTRA:                  -0.415
REMARK UNBOUND:                -0.415
REMARK  Name = No_1873-gen_results/8p0m/2024-11-26-14-13-15/
REMARK  2 active torsions:
REMARK  status: ('A' for Active; 'I' for Inactive)
REMARK    1  A    between atoms: C_3  and  C_4
REMARK    2  A    between atoms: C_6  and  C_13
REMARK                            x       y       z     vdW  Elec       q    Type
REMARK                         _______ _______ _______ _____ _____    ______ ____
ROOT
ATOM      1  C   UNL A   1     -29.414 -10.142  32.420  0.00  0.00    +0.007 A 
ATOM      2  C   UNL A   1     -29.798 -10.130  31.273  0.00  0.00    +0.000 A 
ATOM      3  C   UNL A   1     -29.352 -11.077  30.358  0.00  0.00    +0.000 A 
ATOM      4  C   UNL A   1     -28.323 -11.043  32.824  0.00  0.00    +0.080 A 
ATOM      5  C   UNL A   1     -27.872 -12.052  32.025  0.00  0.00    +0.007 A 
ATOM      6  C   UNL A   1     -28.387 -12.110  30.719  0.00  0.00    +0.000 A 
ENDROOT
BRANCH   3   7
ATOM      7  C   UNL A   1     -29.740 -11.163  28.920  0.00  0.00    +0.000 A 
ATOM      8  C   UNL A   1     -30.622 -10.252  28.240  0.00  0.00    +0.000 A 
ATOM      9  C   UNL A   1     -30.871 -10.457  26.913  0.00  0.00    +0.000 A 
ATOM     10  C   UNL A   1     -30.196 -11.264  26.055  0.00  0.00    +0.000 A 
ATOM     11  C   UNL A   1     -29.041 -12.073  28.027  0.00  0.00    +0.000 A 
ATOM     12  C   UNL A   1     -29.287 -12.099  26.655  0.00  0.00    +0.000 A 
ENDBRANCH   3   7
BRANCH   4  13
ATOM     13  C   UNL A   1     -27.750 -11.021  34.216  0.00  0.00    +0.388 C 
ATOM     14  O   UNL A   1     -28.111 -10.186  35.015  0.00  0.00    -0.241 OA
ATOM     15  O   UNL A   1     -27.248 -12.126  34.659  0.00  0.00    -0.241 OA
ENDBRANCH   4  13
TORSDOF 2
ENDMDL
ENDMDL
