MODEL 1874
MODEL 1
REMARK VINA RESULT:    -8.880      0.000      0.000
REMARK INTER + INTRA:         -13.529
REMARK INTER:                 -11.994
REMARK INTRA:                  -1.535
REMARK UNBOUND:                -1.535
REMARK  Name = No_1874-gen_results/8p0m/2024-11-26-14-13-15/
REMARK  6 active torsions:
REMARK  status: ('A' for Active; 'I' for Inactive)
REMARK    1  A    between atoms: C_2  and  C_30
REMARK    2  A    between atoms: C_3  and  C_7
REMARK    3  A    between atoms: C_7  and  C_8
REMARK    4  A    between atoms: C_12  and  C_19
REMARK    5  A    between atoms: C_19  and  C_20
REMARK    6  A    between atoms: C_22  and  C_27
REMARK                            x       y       z     vdW  Elec       q    Type
REMARK                         _______ _______ _______ _____ _____    ______ ____
ROOT
ATOM      1  C   UNL A   1     -23.876   1.611  27.252  0.00  0.00    -0.018 A 
ATOM      2  C   UNL A   1     -22.553   1.882  27.069  0.00  0.00    -0.004 A 
ATOM      3  C   UNL A   1     -21.576   1.155  27.753  0.00  0.00    -0.001 A 
ATOM      4  C   UNL A   1     -21.900   0.366  28.867  0.00  0.00    -0.004 A 
ATOM      5  C   UNL A   1     -23.278   0.212  29.161  0.00  0.00    -0.019 A 
ATOM      6  C   UNL A   1     -24.237   0.835  28.421  0.00  0.00    -0.008 A 
ENDROOT
BRANCH   1   7
ATOM      7  C   UNL A   1     -24.881   2.407  26.645  0.00  0.00    +0.054 C 
ATOM      8  C   UNL A   1     -24.245   3.554  25.864  0.00  0.00    +0.009 C 
ATOM      9  C   UNL A   1     -25.752   3.080  27.758  0.00  0.00    +0.099 C 
ATOM     10  C   UNL A   1     -24.478   4.890  26.370  0.00  0.00    +0.001 C 
ATOM     11  C   UNL A   1     -25.460   5.073  27.000  0.00  0.00    +0.002 C 
ATOM     12  C   UNL A   1     -26.011   4.341  27.939  0.00  0.00    +0.020 C 
ATOM     13  N   UNL A   1     -26.637   2.123  28.399  0.00  0.00    -0.132 NA
BRANCH   7  16
ATOM     14  C   UNL A   1     -27.151   2.094  25.389  0.00  0.00    +0.003 A 
ATOM     15  C   UNL A   1     -27.697   1.483  24.728  0.00  0.00    +0.080 A 
ATOM     16  C   UNL A   1     -25.850   1.616  25.765  0.00  0.00    -0.018 A 
ATOM     17  C   UNL A   1     -25.401   0.399  25.447  0.00  0.00    -0.004 A 
ATOM     18  C   UNL A   1     -27.418   0.128  24.272  0.00  0.00    +0.007 A 
ATOM     19  C   UNL A   1     -26.229  -0.337  24.630  0.00  0.00    -0.000 A 
BRANCH  15  20
ATOM     20  C   UNL A   1     -29.161   1.961  24.229  0.00  0.00    +0.388 C 
ATOM     21  O   UNL A   1     -29.703   2.852  24.689  0.00  0.00    -0.241 OA
ATOM     22  O   UNL A   1     -29.630   1.190  23.290  0.00  0.00    -0.241 OA
ENDBRANCH  15  20
ENDBRANCH   7  16
ENDBRANCH   1   7
BRANCH   5  23
ATOM     23  C   UNL A   1     -23.616  -0.666  30.330  0.00  0.00    +0.048 C 
ATOM     24  C   UNL A   1     -23.011  -0.443  31.598  0.00  0.00    +0.009 C 
BRANCH  23  25
ATOM     25  C   UNL A   1     -24.468  -1.619  30.152  0.00  0.00    +0.021 A 
ATOM     26  C   UNL A   1     -24.107  -2.903  29.650  0.00  0.00    +0.006 A 
ATOM     27  C   UNL A   1     -25.053  -3.976  29.494  0.00  0.00    +0.080 A 
ATOM     28  C   UNL A   1     -26.377  -3.726  29.858  0.00  0.00    +0.010 A 
ATOM     29  C   UNL A   1     -25.855  -1.555  30.561  0.00  0.00    +0.192 A 
ATOM     30  C   UNL A   1     -26.775  -2.538  30.391  0.00  0.00    +0.042 A 
ATOM     31  O   UNL A   1     -26.205  -0.368  31.106  0.00  0.00    -0.287 OA
BRANCH  27  32
ATOM     32  C   UNL A   1     -24.628  -5.271  28.883  0.00  0.00    +0.388 C 
ATOM     33  O   UNL A   1     -24.907  -6.307  29.433  0.00  0.00    -0.241 OA
ATOM     34  O   UNL A   1     -23.743  -5.246  27.956  0.00  0.00    -0.241 OA
ENDBRANCH  27  32
ENDBRANCH  23  25
ENDBRANCH   5  23
TORSDOF 6
ENDMDL
ENDMDL
