REMARK  Name = No_1874-gen_results/8p0m/2024-11-26-14-13-15/
REMARK  6 active torsions:
REMARK  status: ('A' for Active; 'I' for Inactive)
REMARK    1  A    between atoms: C_2  and  C_30
REMARK    2  A    between atoms: C_3  and  C_7
REMARK    3  A    between atoms: C_7  and  C_8
REMARK    4  A    between atoms: C_12  and  C_19
REMARK    5  A    between atoms: C_19  and  C_20
REMARK    6  A    between atoms: C_22  and  C_27
REMARK                            x       y       z     vdW  Elec       q    Type
REMARK                         _______ _______ _______ _____ _____    ______ ____
ROOT
ATOM      1  C   UNL A   1     -26.127   0.446  26.706  0.00  0.00    -0.018 A 
ATOM      2  C   UNL A   1     -25.376   0.928  25.676  0.00  0.00    -0.004 A 
ATOM      3  C   UNL A   1     -23.982   0.939  25.756  0.00  0.00    -0.001 A 
ATOM      4  C   UNL A   1     -23.320   0.772  26.982  0.00  0.00    -0.004 A 
ATOM      5  C   UNL A   1     -24.122   0.428  28.099  0.00  0.00    -0.019 A 
ATOM      6  C   UNL A   1     -25.474   0.307  27.992  0.00  0.00    -0.008 A 
ENDROOT
BRANCH   1   7
ATOM      7  C   UNL A   1     -27.543   0.522  26.683  0.00  0.00    +0.054 C 
ATOM      8  C   UNL A   1     -28.108  -0.478  25.678  0.00  0.00    +0.009 C 
ATOM      9  C   UNL A   1     -27.978   1.935  26.169  0.00  0.00    +0.099 C 
ATOM     10  C   UNL A   1     -28.759   0.075  24.509  0.00  0.00    +0.001 C 
ATOM     11  C   UNL A   1     -29.232   1.153  24.604  0.00  0.00    +0.002 C 
ATOM     12  C   UNL A   1     -28.761   2.236  25.175  0.00  0.00    +0.020 C 
ATOM     13  N   UNL A   1     -27.755   2.963  27.171  0.00  0.00    -0.132 NA
BRANCH   7  16
ATOM     14  C   UNL A   1     -28.016  -0.814  28.878  0.00  0.00    +0.003 A 
ATOM     15  C   UNL A   1     -28.469  -0.785  29.829  0.00  0.00    +0.080 A 
ATOM     16  C   UNL A   1     -28.196   0.348  28.055  0.00  0.00    -0.018 A 
ATOM     17  C   UNL A   1     -29.019   1.350  28.378  0.00  0.00    -0.004 A 
ATOM     18  C   UNL A   1     -29.411   0.180  30.378  0.00  0.00    +0.007 A 
ATOM     19  C   UNL A   1     -29.606   1.250  29.619  0.00  0.00    -0.000 A 
BRANCH  15  20
ATOM     20  C   UNL A   1     -28.291  -2.042  30.833  0.00  0.00    +0.388 C 
ATOM     21  O   UNL A   1     -28.702  -2.038  31.896  0.00  0.00    -0.241 OA
ATOM     22  O   UNL A   1     -27.606  -3.006  30.287  0.00  0.00    -0.241 OA
ENDBRANCH  15  20
ENDBRANCH   7  16
ENDBRANCH   1   7
BRANCH   5  23
ATOM     23  C   UNL A   1     -23.400   0.212  29.396  0.00  0.00    +0.048 C 
ATOM     24  C   UNL A   1     -22.077  -0.311  29.406  0.00  0.00    +0.009 C 
BRANCH  23  25
ATOM     25  C   UNL A   1     -24.009   0.517  30.492  0.00  0.00    +0.021 A 
ATOM     26  C   UNL A   1     -24.254   1.861  30.899  0.00  0.00    +0.006 A 
ATOM     27  C   UNL A   1     -24.971   2.196  32.101  0.00  0.00    +0.080 A 
ATOM     28  C   UNL A   1     -25.441   1.142  32.886  0.00  0.00    +0.010 A 
ATOM     29  C   UNL A   1     -24.636  -0.449  31.369  0.00  0.00    +0.192 A 
ATOM     30  C   UNL A   1     -25.285  -0.162  32.526  0.00  0.00    +0.042 A 
ATOM     31  O   UNL A   1     -24.477  -1.730  30.965  0.00  0.00    -0.287 OA
BRANCH  27  32
ATOM     32  C   UNL A   1     -25.120   3.623  32.515  0.00  0.00    +0.388 C 
ATOM     33  O   UNL A   1     -24.408   4.462  32.022  0.00  0.00    -0.241 OA
ATOM     34  O   UNL A   1     -25.791   3.883  33.575  0.00  0.00    -0.241 OA
ENDBRANCH  27  32
ENDBRANCH  23  25
ENDBRANCH   5  23
TORSDOF 6
