MODEL 1875
MODEL 1
REMARK VINA RESULT:    -7.975      0.000      0.000
REMARK INTER + INTRA:         -11.509
REMARK INTER:                  -9.840
REMARK INTRA:                  -1.669
REMARK UNBOUND:                -1.669
REMARK  Name = No_1875-gen_results/8p0m/2024-11-26-14-13-15/
REMARK  4 active torsions:
REMARK  status: ('A' for Active; 'I' for Inactive)
REMARK    1  A    between atoms: C_2  and  C_7
REMARK    2  A    between atoms: C_7  and  C_9
REMARK    3  A    between atoms: C_8  and  C_11
REMARK    4  A    between atoms: C_11  and  C_12
REMARK                            x       y       z     vdW  Elec       q    Type
REMARK                         _______ _______ _______ _____ _____    ______ ____
ROOT
ATOM      1  C   UNL A   1     -25.029  -1.304  29.492  0.00  0.00    -0.004 C 
ATOM      2  C   UNL A   1     -25.315  -0.711  28.682  0.00  0.00    -0.021 C 
ENDROOT
BRANCH   1   4
ATOM      3  C   UNL A   1     -23.617  -1.261  31.284  0.00  0.00    -0.000 A 
ATOM      4  C   UNL A   1     -24.743  -1.043  30.902  0.00  0.00    -0.000 A 
ATOM      5  C   UNL A   1     -25.729  -0.615  31.784  0.00  0.00    -0.000 A 
ATOM      6  C   UNL A   1     -25.451  -0.462  33.189  0.00  0.00    -0.000 A 
ATOM      7  C   UNL A   1     -24.130  -0.758  33.547  0.00  0.00    -0.000 A 
ATOM      8  C   UNL A   1     -23.239  -1.176  32.677  0.00  0.00    -0.000 A 
ENDBRANCH   1   4
BRANCH   1   9
ATOM      9  C   UNL A   1     -24.974  -2.834  29.280  0.00  0.00    -0.000 A 
ATOM     10  C   UNL A   1     -23.942  -3.533  28.663  0.00  0.00    -0.000 A 
ATOM     11  C   UNL A   1     -24.057  -4.913  28.466  0.00  0.00    -0.000 A 
ATOM     12  C   UNL A   1     -26.040  -3.652  29.592  0.00  0.00    -0.000 A 
ATOM     13  C   UNL A   1     -26.009  -5.007  29.655  0.00  0.00    -0.000 A 
ATOM     14  C   UNL A   1     -25.023  -5.593  28.935  0.00  0.00    -0.000 A 
ENDBRANCH   1   9
BRANCH   2  15
ATOM     15  C   UNL A   1     -25.189   0.707  28.654  0.00  0.00    +0.052 C 
BRANCH  15  16
ATOM     16  C   UNL A   1     -24.200   1.271  27.846  0.00  0.00    -0.018 A 
ATOM     17  C   UNL A   1     -24.538   1.353  26.404  0.00  0.00    -0.004 A 
ATOM     18  C   UNL A   1     -23.559   1.877  25.507  0.00  0.00    -0.000 A 
ATOM     19  C   UNL A   1     -22.259   2.219  25.984  0.00  0.00    -0.000 A 
ATOM     20  C   UNL A   1     -21.899   1.811  27.232  0.00  0.00    -0.000 A 
ATOM     21  C   UNL A   1     -22.881   1.383  28.145  0.00  0.00    -0.004 A 
ENDBRANCH  15  16
ENDBRANCH   2  15
TORSDOF 4
ENDMDL
ENDMDL
