REMARK  Name = No_1875-gen_results/8p0m/2024-11-26-14-13-15/
REMARK  4 active torsions:
REMARK  status: ('A' for Active; 'I' for Inactive)
REMARK    1  A    between atoms: C_2  and  C_7
REMARK    2  A    between atoms: C_7  and  C_9
REMARK    3  A    between atoms: C_8  and  C_11
REMARK    4  A    between atoms: C_11  and  C_12
REMARK                            x       y       z     vdW  Elec       q    Type
REMARK                         _______ _______ _______ _____ _____    ______ ____
ROOT
ATOM      1  C   UNL A   1     -27.324   1.085  27.819  0.00  0.00    -0.004 C 
ATOM      2  C   UNL A   1     -27.757   2.013  28.022  0.00  0.00    -0.021 C 
ENDROOT
BRANCH   1   4
ATOM      3  C   UNL A   1     -28.016  -0.814  28.878  0.00  0.00    -0.000 A 
ATOM      4  C   UNL A   1     -27.064  -0.119  28.608  0.00  0.00    -0.000 A 
ATOM      5  C   UNL A   1     -25.792  -0.430  29.076  0.00  0.00    -0.000 A 
ATOM      6  C   UNL A   1     -25.576  -1.565  29.936  0.00  0.00    -0.000 A 
ATOM      7  C   UNL A   1     -26.735  -2.300  30.217  0.00  0.00    -0.000 A 
ATOM      8  C   UNL A   1     -27.918  -1.954  29.763  0.00  0.00    -0.000 A 
ENDBRANCH   1   4
BRANCH   1   9
ATOM      9  C   UNL A   1     -26.939   0.775  26.355  0.00  0.00    -0.000 A 
ATOM     10  C   UNL A   1     -26.211  -0.328  25.922  0.00  0.00    -0.000 A 
ATOM     11  C   UNL A   1     -25.863  -0.445  24.572  0.00  0.00    -0.000 A 
ATOM     12  C   UNL A   1     -27.193   1.663  25.331  0.00  0.00    -0.000 A 
ATOM     13  C   UNL A   1     -27.101   1.393  24.004  0.00  0.00    -0.000 A 
ATOM     14  C   UNL A   1     -26.285   0.360  23.684  0.00  0.00    -0.000 A 
ENDBRANCH   1   9
BRANCH   2  15
ATOM     15  C   UNL A   1     -27.947   2.528  29.336  0.00  0.00    +0.052 C 
BRANCH  15  16
ATOM     16  C   UNL A   1     -27.086   2.102  30.349  0.00  0.00    -0.018 A 
ATOM     17  C   UNL A   1     -27.404   2.620  31.703  0.00  0.00    -0.004 A 
ATOM     18  C   UNL A   1     -26.543   2.265  32.784  0.00  0.00    -0.000 A 
ATOM     19  C   UNL A   1     -25.357   1.512  32.539  0.00  0.00    -0.000 A 
ATOM     20  C   UNL A   1     -24.943   1.356  31.251  0.00  0.00    -0.000 A 
ATOM     21  C   UNL A   1     -25.828   1.619  30.189  0.00  0.00    -0.004 A 
ENDBRANCH  15  16
ENDBRANCH   2  15
TORSDOF 4
