MODEL 1876
MODEL 1
REMARK VINA RESULT:    -4.747      0.000      0.000
REMARK INTER + INTRA:          -5.380
REMARK INTER:                  -5.302
REMARK INTRA:                  -0.078
REMARK UNBOUND:                -0.078
REMARK  Name = No_1876-gen_results/8p0m/2024-11-26-14-13-15/
REMARK  2 active torsions:
REMARK  status: ('A' for Active; 'I' for Inactive)
REMARK    1  A    between atoms: C_1  and  C_2
REMARK    2  A    between atoms: C_1  and  C_3
REMARK                            x       y       z     vdW  Elec       q    Type
REMARK                         _______ _______ _______ _____ _____    ______ ____
ROOT
ATOM      1  C   UNL A   1     -24.278  -2.696  29.280  0.00  0.00    -0.021 A 
ATOM      2  C   UNL A   1     -23.946  -3.945  28.882  0.00  0.00    -0.004 A 
ATOM      3  C   UNL A   1     -24.856  -4.959  28.912  0.00  0.00    -0.000 A 
ATOM      4  C   UNL A   1     -26.122  -4.845  29.563  0.00  0.00    -0.000 A 
ATOM      5  C   UNL A   1     -26.496  -3.592  29.969  0.00  0.00    -0.000 A 
ATOM      6  C   UNL A   1     -25.614  -2.533  29.744  0.00  0.00    -0.004 A 
ENDROOT
BRANCH   1   7
ATOM      7  C   UNL A   1     -23.632  -1.496  28.751  0.00  0.00    +0.047 C 
BRANCH   7   8
ATOM      8  C   UNL A   1     -22.909  -1.085  29.399  0.00  0.00    +0.114 C 
ATOM      9  N   UNL A   1     -21.612  -1.028  29.011  0.00  0.00    -0.131 NA
ENDBRANCH   7   8
ENDBRANCH   1   7
TORSDOF 2
ENDMDL
ENDMDL
