REMARK  Name = No_1877-gen_results/8p0m/2024-11-26-14-13-15/
REMARK  2 active torsions:
REMARK  status: ('A' for Active; 'I' for Inactive)
REMARK    1  A    between atoms: C_1  and  C_8
REMARK    2  A    between atoms: C_5  and  C_12
REMARK                            x       y       z     vdW  Elec       q    Type
REMARK                         _______ _______ _______ _____ _____    ______ ____
ROOT
ATOM      1  C   UNL A   1     -28.016  -0.814  28.878  0.00  0.00    +0.067 C 
ATOM      2  C   UNL A   1     -27.064  -0.119  28.608  0.00  0.00    -0.040 C 
ATOM      3  C   UNL A   1     -26.972   0.714  27.506  0.00  0.00    +0.022 C 
ATOM      4  C   UNL A   1     -25.820   1.491  27.116  0.00  0.00    +0.012 C 
ATOM      5  C   UNL A   1     -24.656   1.424  27.918  0.00  0.00    +0.066 C 
ATOM      6  C   UNL A   1     -24.685   0.590  29.066  0.00  0.00    +0.012 C 
ATOM      7  C   UNL A   1     -25.810  -0.127  29.334  0.00  0.00    +0.022 C 
ENDROOT
BRANCH   1   8
ATOM      8  C   UNL A   1     -28.709  -0.459  30.175  0.00  0.00    +0.418 C 
ATOM      9  F   UNL A   1     -29.342  -1.476  30.637  0.00  0.00    -0.166 F 
ATOM     10  F   UNL A   1     -27.844  -0.149  31.116  0.00  0.00    -0.166 F 
ATOM     11  F   UNL A   1     -29.534   0.520  29.930  0.00  0.00    -0.166 F 
ENDBRANCH   1   8
BRANCH   5  12
ATOM     12  C   UNL A   1     -23.484   2.245  27.654  0.00  0.00    +0.207 C 
ATOM     13  O   UNL A   1     -23.489   3.133  26.852  0.00  0.00    -0.288 OA
ENDBRANCH   5  12
TORSDOF 2
