MODEL 1877
MODEL 1
REMARK VINA RESULT:    -5.410      0.000      0.000
REMARK INTER + INTRA:          -6.330
REMARK INTER:                  -6.042
REMARK INTRA:                  -0.288
REMARK UNBOUND:                -0.288
REMARK  Name = No_1877-gen_results/8p0m/2024-11-26-14-13-15/
REMARK  2 active torsions:
REMARK  status: ('A' for Active; 'I' for Inactive)
REMARK    1  A    between atoms: C_1  and  C_8
REMARK    2  A    between atoms: C_5  and  C_12
REMARK                            x       y       z     vdW  Elec       q    Type
REMARK                         _______ _______ _______ _____ _____    ______ ____
ROOT
ATOM      1  C   UNL A   1     -23.328   2.697  25.559  0.00  0.00    +0.067 C 
ATOM      2  C   UNL A   1     -23.103   1.942  26.477  0.00  0.00    -0.040 C 
ATOM      3  C   UNL A   1     -21.876   1.789  27.100  0.00  0.00    +0.022 C 
ATOM      4  C   UNL A   1     -21.558   0.840  28.140  0.00  0.00    +0.012 C 
ATOM      5  C   UNL A   1     -22.577  -0.030  28.596  0.00  0.00    +0.066 C 
ATOM      6  C   UNL A   1     -23.861   0.077  28.000  0.00  0.00    +0.012 C 
ATOM      7  C   UNL A   1     -24.054   0.985  27.005  0.00  0.00    +0.022 C 
ENDROOT
BRANCH   1   8
ATOM      8  C   UNL A   1     -24.327   3.789  25.872  0.00  0.00    +0.418 C 
ATOM      9  F   UNL A   1     -24.360   4.017  27.135  0.00  0.00    -0.166 F 
ATOM     10  F   UNL A   1     -23.972   4.937  25.336  0.00  0.00    -0.166 F 
ATOM     11  F   UNL A   1     -25.494   3.394  25.448  0.00  0.00    -0.166 F 
ENDBRANCH   1   8
BRANCH   5  12
ATOM     12  C   UNL A   1     -22.373  -0.951  29.704  0.00  0.00    +0.207 C 
ATOM     13  O   UNL A   1     -22.396  -0.596  30.846  0.00  0.00    -0.288 OA
ENDBRANCH   5  12
TORSDOF 2
ENDMDL
ENDMDL
