REMARK  Name = No_1878-gen_results/8p0m/2024-11-26-14-13-15/
REMARK  7 active torsions:
REMARK  status: ('A' for Active; 'I' for Inactive)
REMARK    1  A    between atoms: C_3  and  C_15
REMARK    2  A    between atoms: C_5  and  C_11
REMARK    3  A    between atoms: C_8  and  O_18
REMARK    4  A    between atoms: O_18  and  C_19
REMARK    5  A    between atoms: C_19  and  C_20
REMARK    6  A    between atoms: C_20  and  C_21
REMARK    7  A    between atoms: C_21  and  C_22
REMARK                            x       y       z     vdW  Elec       q    Type
REMARK                         _______ _______ _______ _____ _____    ______ ____
ROOT
ATOM      1  C   UNL A   1     -28.016  -0.814  28.878  0.00  0.00    +0.037 A 
ATOM      2  C   UNL A   1     -27.064  -0.119  28.608  0.00  0.00    +0.009 A 
ATOM      3  C   UNL A   1     -27.001   0.691  27.491  0.00  0.00    +0.080 A 
ATOM      4  C   UNL A   1     -25.855   1.482  27.083  0.00  0.00    +0.010 A 
ATOM      5  C   UNL A   1     -24.690   1.453  27.881  0.00  0.00    +0.072 A 
ATOM      6  C   UNL A   1     -24.738   0.601  29.042  0.00  0.00    +0.004 A 
ATOM      7  C   UNL A   1     -25.823  -0.169  29.389  0.00  0.00    +0.000 A 
ATOM      8  C   UNL A   1     -28.038  -1.535  30.205  0.00  0.00    +0.139 A 
ATOM      9  C   UNL A   1     -26.847  -1.662  30.952  0.00  0.00    +0.037 A 
ATOM     10  C   UNL A   1     -25.745  -0.924  30.591  0.00  0.00    +0.003 A 
ENDROOT
BRANCH   5  11
ATOM     11  C   UNL A   1     -23.500   2.222  27.544  0.00  0.00    +0.419 C 
ATOM     12  F   UNL A   1     -22.959   2.713  28.527  0.00  0.00    -0.166 F 
ATOM     13  F   UNL A   1     -23.793   3.281  26.694  0.00  0.00    -0.166 F 
ATOM     14  F   UNL A   1     -22.576   1.474  26.919  0.00  0.00    -0.166 F 
ENDBRANCH   5  11
BRANCH   3  15
ATOM     15  C   UNL A   1     -28.127   0.759  26.541  0.00  0.00    +0.388 C 
ATOM     16  O   UNL A   1     -29.216   1.025  26.927  0.00  0.00    -0.241 OA
ATOM     17  O   UNL A   1     -27.894   0.740  25.269  0.00  0.00    -0.241 OA
ENDBRANCH   3  15
BRANCH   8  18
ATOM     18  O   UNL A   1     -29.105  -2.321  30.510  0.00  0.00    -0.469 OA
BRANCH  18  19
ATOM     19  C   UNL A   1     -28.969  -3.633  30.716  0.00  0.00    +0.279 C 
BRANCH  19  20
ATOM     20  C   UNL A   1     -30.136  -4.337  30.278  0.00  0.00    +0.357 C 
ATOM     21  F   UNL A   1     -31.100  -4.408  31.357  0.00  0.00    -0.192 F 
ATOM     22  F   UNL A   1     -29.651  -5.659  30.223  0.00  0.00    -0.192 F 
BRANCH  20  23
ATOM     23  C   UNL A   1     -30.765  -4.030  29.191  0.00  0.00    +0.237 C 
ATOM     24  O   UNL A   1     -30.580  -4.857  28.110  0.00  0.00    -0.285 OA
BRANCH  23  25
ATOM     25  C   UNL A   1     -31.649  -3.118  29.189  0.00  0.00    +0.040 A 
ATOM     26  C   UNL A   1     -32.830  -3.318  28.737  0.00  0.00    +0.003 A 
ATOM     27  C   UNL A   1     -33.856  -2.263  28.818  0.00  0.00    +0.000 A 
ATOM     28  C   UNL A   1     -33.462  -0.976  29.211  0.00  0.00    +0.000 A 
ATOM     29  C   UNL A   1     -32.109  -0.753  29.567  0.00  0.00    +0.000 A 
ATOM     30  C   UNL A   1     -31.271  -1.718  29.556  0.00  0.00    +0.003 A 
ENDBRANCH  23  25
ENDBRANCH  20  23
ENDBRANCH  19  20
ENDBRANCH  18  19
ENDBRANCH   8  18
TORSDOF 7
