REMARK  Name = No_1879-gen_results/8p0m/2024-11-26-14-13-15/
REMARK  3 active torsions:
REMARK  status: ('A' for Active; 'I' for Inactive)
REMARK    1  A    between atoms: C_5  and  C_16
REMARK    2  A    between atoms: C_16  and  O_18
REMARK    3  A    between atoms: O_18  and  C_20
REMARK                            x       y       z     vdW  Elec       q    Type
REMARK                         _______ _______ _______ _____ _____    ______ ____
ROOT
ATOM      1  C   UNL A   1     -28.016  -0.814  28.878  0.00  0.00    +0.003 A 
ATOM      2  C   UNL A   1     -27.064  -0.119  28.608  0.00  0.00    +0.035 A 
ATOM      3  C   UNL A   1     -26.972   0.714  27.506  0.00  0.00    -0.015 A 
ATOM      4  C   UNL A   1     -28.105   0.774  26.642  0.00  0.00    +0.003 A 
ATOM      5  C   UNL A   1     -29.204   0.118  27.048  0.00  0.00    +0.075 A 
ATOM      6  C   UNL A   1     -29.213  -0.609  28.128  0.00  0.00    +0.006 A 
ATOM      7  C   UNL A   1     -25.711   1.452  27.138  0.00  0.00    +0.045 C 
ATOM      8  C   UNL A   1     -24.605   0.925  27.690  0.00  0.00    -0.015 A 
ATOM      9  C   UNL A   1     -23.309   1.602  27.492  0.00  0.00    -0.004 A 
ATOM     10  C   UNL A   1     -22.177   1.197  28.274  0.00  0.00    -0.000 A 
ATOM     11  C   UNL A   1     -22.218   0.093  29.062  0.00  0.00    +0.000 A 
ATOM     12  C   UNL A   1     -23.401  -0.673  29.162  0.00  0.00    +0.003 A 
ATOM     13  C   UNL A   1     -24.556  -0.222  28.540  0.00  0.00    +0.035 A 
ATOM     14  C   UNL A   1     -25.731  -0.602  29.134  0.00  0.00    +0.195 C 
ATOM     15  O   UNL A   1     -25.768  -1.546  30.009  0.00  0.00    -0.287 OA
ATOM     16  C   UNL A   1     -25.756   2.490  26.158  0.00  0.00    +0.009 C 
ENDROOT
BRANCH   5  17
ATOM     17  C   UNL A   1     -30.449   0.345  26.270  0.00  0.00    +0.341 C 
ATOM     18  O   UNL A   1     -30.505   0.169  25.056  0.00  0.00    -0.245 OA
BRANCH  17  19
ATOM     19  O   UNL A   1     -31.614   0.282  26.937  0.00  0.00    -0.453 OA
BRANCH  19  20
ATOM     20  C   UNL A   1     -32.639   0.873  26.518  0.00  0.00    +0.136 C 
ATOM     21  C   UNL A   1     -33.664   0.056  26.062  0.00  0.00    +0.040 C 
ATOM     22  C   UNL A   1     -34.414   0.354  25.142  0.00  0.00    +0.004 C 
ATOM     23  C   UNL A   1     -34.286   1.216  24.549  0.00  0.00    +0.000 C 
ATOM     24  C   UNL A   1     -33.356   2.334  24.788  0.00  0.00    +0.004 C 
ATOM     25  C   UNL A   1     -32.132   1.737  25.436  0.00  0.00    +0.040 C 
ATOM     26  C   UNL A   1     -33.104   1.800  27.716  0.00  0.00    +0.044 C 
ENDBRANCH  19  20
ENDBRANCH  17  19
ENDBRANCH   5  17
TORSDOF 3
