MODEL 1879
MODEL 1
REMARK VINA RESULT:    -7.181      0.000      0.000
REMARK INTER + INTRA:          -9.199
REMARK INTER:                  -8.440
REMARK INTRA:                  -0.759
REMARK UNBOUND:                -0.759
REMARK  Name = No_1879-gen_results/8p0m/2024-11-26-14-13-15/
REMARK  3 active torsions:
REMARK  status: ('A' for Active; 'I' for Inactive)
REMARK    1  A    between atoms: C_5  and  C_16
REMARK    2  A    between atoms: C_16  and  O_18
REMARK    3  A    between atoms: O_18  and  C_20
REMARK                            x       y       z     vdW  Elec       q    Type
REMARK                         _______ _______ _______ _____ _____    ______ ____
ROOT
ATOM      1  C   UNL A   1     -26.286  -0.377  24.778  0.00  0.00    +0.003 A 
ATOM      2  C   UNL A   1     -27.091   0.475  24.482  0.00  0.00    +0.035 A 
ATOM      3  C   UNL A   1     -27.192   1.720  25.081  0.00  0.00    -0.015 A 
ATOM      4  C   UNL A   1     -26.249   2.024  26.107  0.00  0.00    +0.003 A 
ATOM      5  C   UNL A   1     -25.270   1.127  26.307  0.00  0.00    +0.075 A 
ATOM      6  C   UNL A   1     -25.229  -0.003  25.662  0.00  0.00    +0.006 A 
ATOM      7  C   UNL A   1     -28.301   2.691  24.773  0.00  0.00    +0.045 C 
ATOM      8  C   UNL A   1     -29.378   2.111  24.217  0.00  0.00    -0.015 A 
ATOM      9  C   UNL A   1     -30.504   2.957  23.776  0.00  0.00    -0.004 A 
ATOM     10  C   UNL A   1     -31.538   2.384  22.963  0.00  0.00    -0.000 A 
ATOM     11  C   UNL A   1     -31.603   1.048  22.736  0.00  0.00    +0.000 A 
ATOM     12  C   UNL A   1     -30.623   0.181  23.270  0.00  0.00    +0.003 A 
ATOM     13  C   UNL A   1     -29.528   0.720  23.930  0.00  0.00    +0.035 A 
ATOM     14  C   UNL A   1     -28.380  -0.026  23.872  0.00  0.00    +0.195 C 
ATOM     15  O   UNL A   1     -28.398  -1.260  23.503  0.00  0.00    -0.287 OA
ATOM     16  C   UNL A   1     -28.203   4.045  25.217  0.00  0.00    +0.009 C 
ENDROOT
BRANCH   5  17
ATOM     17  C   UNL A   1     -24.168   1.527  27.219  0.00  0.00    +0.341 C 
ATOM     18  O   UNL A   1     -23.226   2.221  26.845  0.00  0.00    -0.245 OA
BRANCH  17  19
ATOM     19  O   UNL A   1     -24.429   1.534  28.537  0.00  0.00    -0.453 OA
BRANCH  19  20
ATOM     20  C   UNL A   1     -24.097   0.574  29.274  0.00  0.00    +0.136 C 
ATOM     21  C   UNL A   1     -23.156  -0.298  28.744  0.00  0.00    +0.040 C 
ATOM     22  C   UNL A   1     -23.136  -1.500  28.974  0.00  0.00    +0.004 C 
ATOM     23  C   UNL A   1     -23.890  -1.996  29.517  0.00  0.00    +0.000 C 
ATOM     24  C   UNL A   1     -24.992  -1.383  30.280  0.00  0.00    +0.004 C 
ATOM     25  C   UNL A   1     -25.369  -0.123  29.543  0.00  0.00    +0.040 C 
ATOM     26  C   UNL A   1     -23.600   1.237  30.624  0.00  0.00    +0.044 C 
ENDBRANCH  19  20
ENDBRANCH  17  19
ENDBRANCH   5  17
TORSDOF 3
ENDMDL
ENDMDL
