MODEL 187
MODEL 1
REMARK VINA RESULT:    -8.025      0.000      0.000
REMARK INTER + INTRA:         -10.510
REMARK INTER:                  -9.433
REMARK INTRA:                  -1.077
REMARK UNBOUND:                -1.077
REMARK  Name = No_187-gen_results/8p0m/2024-11-26-14-13-15/
REMARK  3 active torsions:
REMARK  status: ('A' for Active; 'I' for Inactive)
REMARK    1  A    between atoms: C_4  and  C_8
REMARK    2  A    between atoms: C_8  and  C_9
REMARK    3  A    between atoms: C_13  and  C_15
REMARK                            x       y       z     vdW  Elec       q    Type
REMARK                         _______ _______ _______ _____ _____    ______ ____
ROOT
ATOM      1  C   UNL A   1     -24.072  -0.917  29.458  0.00  0.00    +0.038 C 
ATOM      2  C   UNL A   1     -23.515  -0.776  30.906  0.00  0.00    +0.009 C 
ATOM      3  C   UNL A   1     -25.525  -0.159  29.546  0.00  0.00    +0.009 C 
ENDROOT
BRANCH   1   7
ATOM      4  C   UNL A   1     -23.994  -4.646  28.547  0.00  0.00    +0.029 A 
ATOM      5  C   UNL A   1     -24.960  -4.891  28.889  0.00  0.00    +0.140 A 
ATOM      6  C   UNL A   1     -23.593  -3.235  28.658  0.00  0.00    -0.002 A 
ATOM      7  C   UNL A   1     -24.429  -2.295  29.328  0.00  0.00    -0.019 A 
ATOM      8  C   UNL A   1     -25.982  -4.133  29.662  0.00  0.00    +0.029 A 
ATOM      9  C   UNL A   1     -25.650  -2.816  29.777  0.00  0.00    -0.002 A 
ATOM     10  F   UNL A   1     -25.353  -6.274  28.798  0.00  0.00    -0.204 F 
ENDBRANCH   1   7
BRANCH   1  11
ATOM     11  C   UNL A   1     -23.208  -0.288  28.615  0.00  0.00    -0.019 A 
ATOM     12  C   UNL A   1     -21.873   0.019  29.064  0.00  0.00    -0.004 A 
ATOM     13  C   UNL A   1     -21.023   0.731  28.199  0.00  0.00    -0.000 A 
ATOM     14  C   UNL A   1     -21.568   1.519  27.156  0.00  0.00    +0.004 A 
ATOM     15  C   UNL A   1     -22.923   1.442  26.857  0.00  0.00    +0.071 A 
ATOM     16  C   UNL A   1     -23.762   0.633  27.637  0.00  0.00    -0.000 A 
BRANCH  15  17
ATOM     17  C   UNL A   1     -23.427   2.285  25.766  0.00  0.00    +0.419 C 
ATOM     18  F   UNL A   1     -23.969   3.218  26.036  0.00  0.00    -0.166 F 
ATOM     19  F   UNL A   1     -24.241   1.449  24.899  0.00  0.00    -0.166 F 
ATOM     20  F   UNL A   1     -22.327   2.610  24.922  0.00  0.00    -0.166 F 
ENDBRANCH  15  17
ENDBRANCH   1  11
TORSDOF 3
ENDMDL
ENDMDL
