REMARK  Name = No_188-gen_results/8p0m/2024-11-26-14-13-15/
REMARK  2 active torsions:
REMARK  status: ('A' for Active; 'I' for Inactive)
REMARK    1  A    between atoms: C_3  and  C_7
REMARK    2  A    between atoms: C_8  and  C_9
REMARK                            x       y       z     vdW  Elec       q    Type
REMARK                         _______ _______ _______ _____ _____    ______ ____
ROOT
ATOM      1  C   UNL A   1     -27.450   0.375  26.707  0.00  0.00    +0.003 C 
ATOM      2  C   UNL A   1     -27.882   0.687  25.670  0.00  0.00    -0.000 C 
ENDROOT
BRANCH   1   5
ATOM      3  C   UNL A   1     -28.016  -0.814  28.878  0.00  0.00    +0.003 A 
ATOM      4  C   UNL A   1     -28.469  -0.785  29.829  0.00  0.00    +0.000 A 
ATOM      5  C   UNL A   1     -28.196   0.348  28.055  0.00  0.00    +0.039 A 
ATOM      6  C   UNL A   1     -29.019   1.350  28.378  0.00  0.00    +0.196 A 
ATOM      7  C   UNL A   1     -29.625   1.268  29.601  0.00  0.00    +0.042 A 
ATOM      8  C   UNL A   1     -29.382   0.182  30.400  0.00  0.00    +0.003 A 
ATOM      9  O   UNL A   1     -28.197   2.459  28.703  0.00  0.00    -0.287 OA
ENDBRANCH   1   5
BRANCH   2  10
ATOM     10  C   UNL A   1     -29.261   1.049  25.586  0.00  0.00    -0.004 A 
ATOM     11  C   UNL A   1     -29.939   0.976  24.646  0.00  0.00    -0.000 A 
ATOM     12  C   UNL A   1     -31.296   1.481  24.474  0.00  0.00    -0.000 A 
ATOM     13  C   UNL A   1     -31.743   2.253  25.524  0.00  0.00    -0.000 A 
ATOM     14  C   UNL A   1     -30.983   2.525  26.594  0.00  0.00    -0.004 A 
ATOM     15  C   UNL A   1     -29.662   2.025  26.636  0.00  0.00    -0.022 A 
ATOM     16  C   UNL A   1     -28.806   3.337  26.386  0.00  0.00    +0.031 C 
ENDBRANCH   2  10
TORSDOF 2
