MODEL 1880
MODEL 1
REMARK VINA RESULT:    -4.424      0.000      0.000
REMARK INTER + INTRA:          -4.424
REMARK INTER:                  -4.424
REMARK INTRA:                   0.000
REMARK UNBOUND:                 0.000
REMARK  Name = No_1880-gen_results/8p0m/2024-11-26-14-13-15/
REMARK  0 active torsions:
REMARK  status: ('A' for Active; 'I' for Inactive)
REMARK                            x       y       z     vdW  Elec       q    Type
REMARK                         _______ _______ _______ _____ _____    ______ ____
ROOT
ATOM      1  C   UNL A   1     -24.194  -2.967  29.223  0.00  0.00    +0.058 A 
ATOM      2  C   UNL A   1     -24.002  -4.088  28.813  0.00  0.00    +0.011 A 
ATOM      3  C   UNL A   1     -24.906  -5.122  28.964  0.00  0.00    +0.001 A 
ATOM      4  C   UNL A   1     -26.145  -4.837  29.602  0.00  0.00    +0.000 A 
ATOM      5  C   UNL A   1     -26.382  -3.535  29.888  0.00  0.00    +0.001 A 
ATOM      6  C   UNL A   1     -25.473  -2.604  29.671  0.00  0.00    +0.011 A 
ATOM      7 CL   UNL A   1     -23.015  -1.716  28.965  0.00  0.00    -0.082 Cl
ENDROOT
TORSDOF 0
ENDMDL
ENDMDL
