REMARK  Name = No_1881-gen_results/8p0m/2024-11-26-14-13-15/
REMARK  13 active torsions:
REMARK  status: ('A' for Active; 'I' for Inactive)
REMARK    1  A    between atoms: C_3  and  O_14
REMARK    2  A    between atoms: C_5  and  C_7
REMARK    3  A    between atoms: O_14  and  C_15
REMARK    4  A    between atoms: C_16  and  C_17
REMARK    5  A    between atoms: C_17  and  C_19
REMARK    6  A    between atoms: C_19  and  O_20
REMARK    7  A    between atoms: O_20  and  C_23
REMARK    8  A    between atoms: C_24  and  C_25
REMARK    9  A    between atoms: C_25  and  O_26
REMARK   10  A    between atoms: O_26  and  C_27
REMARK   11  A    between atoms: C_27  and  C_28
REMARK   12  A    between atoms: C_29  and  C_30
REMARK   13  A    between atoms: C_30  and  C_31
REMARK                            x       y       z     vdW  Elec       q    Type
REMARK                         _______ _______ _______ _____ _____    ______ ____
ROOT
ATOM      1  C   UNL A   1     -24.190   3.225  26.395  0.00  0.00    +0.069 C 
ATOM      2  C   UNL A   1     -24.729   3.950  25.528  0.00  0.00    +0.168 C 
ATOM      3  F   UNL A   1     -25.874   4.537  25.881  0.00  0.00    -0.202 F 
ENDROOT
BRANCH   1   5
ATOM      4  C   UNL A   1     -25.216   2.269  28.019  0.00  0.00    +0.179 C 
ATOM      5  C   UNL A   1     -24.613   3.151  27.773  0.00  0.00    +0.044 C 
BRANCH   4   6
ATOM      6  O   UNL A   1     -25.796   1.387  27.185  0.00  0.00    -0.449 OA
BRANCH   6   9
ATOM      7  C   UNL A   1     -28.016  -0.814  28.878  0.00  0.00    +0.048 A 
ATOM      8  C   UNL A   1     -27.064  -0.119  28.608  0.00  0.00    +0.099 A 
ATOM      9  C   UNL A   1     -26.972   0.714  27.506  0.00  0.00    +0.167 A 
ATOM     10  C   UNL A   1     -28.105   0.774  26.642  0.00  0.00    +0.097 A 
ATOM     11  C   UNL A   1     -29.201   0.104  27.053  0.00  0.00    +0.068 A 
ATOM     12  C   UNL A   1     -29.210  -0.603  28.185  0.00  0.00    +0.013 A 
ATOM     13 BR   UNL A   1     -28.037  -1.889  30.467  0.00  0.00    -0.048 Br
ATOM     14 CL   UNL A   1     -25.521  -0.196  29.587  0.00  0.00    -0.079 Cl
ATOM     15 CL   UNL A   1     -27.917   1.750  25.258  0.00  0.00    -0.079 Cl
BRANCH  11  16
ATOM     16  C   UNL A   1     -30.370   0.226  26.160  0.00  0.00    +0.250 C 
ATOM     17  N   UNL A   1     -30.993   1.145  26.058  0.00  0.00    -0.273 N 
ATOM     18  O   UNL A   1     -30.735  -0.864  25.534  0.00  0.00    -0.270 OA
ATOM     19  C   UNL A   1     -32.195   1.355  25.170  0.00  0.00    +0.115 C 
ATOM     20  C   UNL A   1     -30.758   2.511  26.831  0.00  0.00    +0.115 C 
ENDBRANCH  11  16
ENDBRANCH   6   9
ENDBRANCH   4   6
ENDBRANCH   1   5
BRANCH   1  21
ATOM     21  C   UNL A   1     -23.047   2.350  26.037  0.00  0.00    +0.283 C 
ATOM     22  N   UNL A   1     -22.386   2.538  24.939  0.00  0.00    -0.082 NA
BRANCH  21  23
ATOM     23  O   UNL A   1     -22.515   1.663  26.954  0.00  0.00    -0.454 OA
BRANCH  23  24
ATOM     24  C   UNL A   1     -21.198   1.813  27.298  0.00  0.00    +0.172 C 
ATOM     25  C   UNL A   1     -20.908   0.862  28.430  0.00  0.00    +0.046 C 
BRANCH  25  26
ATOM     26  C   UNL A   1     -22.023   0.269  29.025  0.00  0.00    +0.172 C 
BRANCH  26  27
ATOM     27  O   UNL A   1     -21.864  -0.874  29.439  0.00  0.00    -0.344 OA
BRANCH  27  28
ATOM     28  C   UNL A   1     -23.142  -1.590  29.751  0.00  0.00    +0.169 C 
BRANCH  28  29
ATOM     29  C   UNL A   1     -23.727  -1.574  28.493  0.00  0.00    +0.001 C 
ATOM     30  C   UNL A   1     -24.770  -2.593  28.476  0.00  0.00    -0.019 C 
BRANCH  30  31
ATOM     31  C   UNL A   1     -24.899  -3.563  29.467  0.00  0.00    +0.129 C 
BRANCH  31  32
ATOM     32  C   UNL A   1     -25.976  -4.514  29.293  0.00  0.00    +0.402 C 
ATOM     33  F   UNL A   1     -26.694  -4.217  28.641  0.00  0.00    -0.170 F 
ATOM     34  F   UNL A   1     -26.459  -4.756  30.689  0.00  0.00    -0.170 F 
ATOM     35  F   UNL A   1     -25.209  -5.576  28.944  0.00  0.00    -0.170 F 
ENDBRANCH  31  32
ENDBRANCH  30  31
ENDBRANCH  28  29
ENDBRANCH  27  28
ENDBRANCH  26  27
ENDBRANCH  25  26
ENDBRANCH  23  24
ENDBRANCH  21  23
ENDBRANCH   1  21
TORSDOF 13
