MODEL 1882
MODEL 1
REMARK VINA RESULT:    -9.572      0.000      0.000
REMARK INTER + INTRA:         -11.977
REMARK INTER:                 -11.251
REMARK INTRA:                  -0.726
REMARK UNBOUND:                -0.726
REMARK  Name = No_1882-gen_results/8p0m/2024-11-26-14-13-15/
REMARK  3 active torsions:
REMARK  status: ('A' for Active; 'I' for Inactive)
REMARK    1  A    between atoms: C_3  and  C_7
REMARK    2  A    between atoms: C_8  and  C_9
REMARK    3  A    between atoms: C_11  and  C_18
REMARK                            x       y       z     vdW  Elec       q    Type
REMARK                         _______ _______ _______ _____ _____    ______ ____
ROOT
ATOM      1  C   UNL A   1     -23.573   0.697  28.111  0.00  0.00    -0.003 A 
ATOM      2  C   UNL A   1     -23.808  -0.552  28.099  0.00  0.00    -0.000 A 
ATOM      3  C   UNL A   1     -24.341  -1.190  29.137  0.00  0.00    -0.000 A 
ATOM      4  C   UNL A   1     -24.792  -0.386  30.269  0.00  0.00    -0.000 A 
ATOM      5  C   UNL A   1     -24.473   0.963  30.350  0.00  0.00    -0.000 A 
ATOM      6  C   UNL A   1     -23.762   1.504  29.369  0.00  0.00    -0.000 A 
ENDROOT
BRANCH   3   7
ATOM      7  C   UNL A   1     -24.849  -2.631  29.152  0.00  0.00    -0.000 A 
ATOM      8  C   UNL A   1     -26.067  -2.799  29.585  0.00  0.00    -0.000 A 
ATOM      9  C   UNL A   1     -26.606  -4.153  29.759  0.00  0.00    +0.000 A 
ATOM     10  C   UNL A   1     -25.741  -5.207  29.417  0.00  0.00    +0.000 A 
ATOM     11  C   UNL A   1     -24.055  -3.698  28.880  0.00  0.00    -0.000 A 
ATOM     12  C   UNL A   1     -24.471  -4.978  29.027  0.00  0.00    +0.000 A 
ATOM     13  C   UNL A   1     -27.079  -1.763  29.932  0.00  0.00    +0.000 A 
ATOM     14  C   UNL A   1     -28.117  -2.048  30.658  0.00  0.00    +0.000 A 
ATOM     15  C   UNL A   1     -28.534  -3.451  30.744  0.00  0.00    +0.000 A 
ATOM     16  C   UNL A   1     -27.827  -4.468  30.403  0.00  0.00    +0.000 A 
ENDBRANCH   3   7
BRANCH   1  18
ATOM     17  C   UNL A   1     -23.201   1.783  26.105  0.00  0.00    +0.054 C 
ATOM     18  C   UNL A   1     -22.754   1.376  27.156  0.00  0.00    -0.011 C 
ATOM     19  C   UNL A   1     -21.350   1.785  27.501  0.00  0.00    +0.032 C 
ATOM     20 CL   UNL A   1     -22.434   2.709  24.852  0.00  0.00    -0.083 Cl
BRANCH  17  23
ATOM     21  C   UNL A   1     -25.196   0.493  25.144  0.00  0.00    +0.030 A 
ATOM     22  C   UNL A   1     -26.231   0.482  24.945  0.00  0.00    +0.140 A 
ATOM     23  C   UNL A   1     -24.651   1.653  25.738  0.00  0.00    +0.013 A 
ATOM     24  C   UNL A   1     -25.430   2.752  26.043  0.00  0.00    +0.001 A 
ATOM     25  C   UNL A   1     -27.272   1.503  25.172  0.00  0.00    +0.030 A 
ATOM     26  C   UNL A   1     -26.792   2.632  25.739  0.00  0.00    +0.002 A 
ATOM     27  F   UNL A   1     -26.851  -0.718  24.405  0.00  0.00    -0.204 F 
ENDBRANCH  17  23
ENDBRANCH   1  18
TORSDOF 3
ENDMDL
ENDMDL
