REMARK  Name = No_1882-gen_results/8p0m/2024-11-26-14-13-15/
REMARK  3 active torsions:
REMARK  status: ('A' for Active; 'I' for Inactive)
REMARK    1  A    between atoms: C_3  and  C_7
REMARK    2  A    between atoms: C_8  and  C_9
REMARK    3  A    between atoms: C_11  and  C_18
REMARK                            x       y       z     vdW  Elec       q    Type
REMARK                         _______ _______ _______ _____ _____    ______ ____
ROOT
ATOM      1  C   UNL A   1     -28.229   1.259  26.197  0.00  0.00    -0.003 A 
ATOM      2  C   UNL A   1     -28.863   1.644  27.229  0.00  0.00    -0.000 A 
ATOM      3  C   UNL A   1     -29.972   2.375  27.157  0.00  0.00    -0.000 A 
ATOM      4  C   UNL A   1     -30.541   2.616  25.835  0.00  0.00    -0.000 A 
ATOM      5  C   UNL A   1     -29.831   2.285  24.688  0.00  0.00    -0.000 A 
ATOM      6  C   UNL A   1     -28.632   1.733  24.825  0.00  0.00    -0.000 A 
ENDROOT
BRANCH   3   7
ATOM      7  C   UNL A   1     -30.913   2.711  28.313  0.00  0.00    -0.000 A 
ATOM      8  C   UNL A   1     -30.499   3.637  29.131  0.00  0.00    -0.000 A 
ATOM      9  C   UNL A   1     -31.267   3.946  30.343  0.00  0.00    +0.000 A 
ATOM     10  C   UNL A   1     -32.445   3.202  30.529  0.00  0.00    +0.000 A 
ATOM     11  C   UNL A   1     -32.041   2.003  28.578  0.00  0.00    -0.000 A 
ATOM     12  C   UNL A   1     -32.798   2.217  29.680  0.00  0.00    +0.000 A 
ATOM     13  C   UNL A   1     -29.299   4.512  29.011  0.00  0.00    +0.000 A 
ATOM     14  C   UNL A   1     -28.821   5.147  30.037  0.00  0.00    +0.000 A 
ATOM     15  C   UNL A   1     -29.707   5.375  31.182  0.00  0.00    +0.000 A 
ATOM     16  C   UNL A   1     -30.824   4.779  31.399  0.00  0.00    +0.000 A 
ENDBRANCH   3   7
BRANCH   1  18
ATOM     17  C   UNL A   1     -26.399   0.295  27.228  0.00  0.00    +0.054 C 
ATOM     18  C   UNL A   1     -26.902   0.728  26.213  0.00  0.00    -0.011 C 
ATOM     19  C   UNL A   1     -26.148   0.506  24.932  0.00  0.00    +0.032 C 
ATOM     20 CL   UNL A   1     -24.863  -0.479  27.468  0.00  0.00    -0.083 Cl
BRANCH  17  23
ATOM     21  C   UNL A   1     -28.016  -0.814  28.878  0.00  0.00    +0.030 A 
ATOM     22  C   UNL A   1     -28.469  -0.785  29.829  0.00  0.00    +0.140 A 
ATOM     23  C   UNL A   1     -27.136   0.236  28.535  0.00  0.00    +0.013 A 
ATOM     24  C   UNL A   1     -26.875   1.282  29.398  0.00  0.00    +0.001 A 
ATOM     25  C   UNL A   1     -28.361   0.199  30.924  0.00  0.00    +0.030 A 
ATOM     26  C   UNL A   1     -27.528   1.223  30.636  0.00  0.00    +0.002 A 
ATOM     27  F   UNL A   1     -29.323  -1.882  30.258  0.00  0.00    -0.204 F 
ENDBRANCH  17  23
ENDBRANCH   1  18
TORSDOF 3
