MODEL 1883
MODEL 1
REMARK VINA RESULT:    -7.664      0.000      0.000
REMARK INTER + INTRA:         -10.739
REMARK INTER:                  -9.905
REMARK INTRA:                  -0.834
REMARK UNBOUND:                -0.834
REMARK  Name = No_1883-gen_results/8p0m/2024-11-26-14-13-15/
REMARK  5 active torsions:
REMARK  status: ('A' for Active; 'I' for Inactive)
REMARK    1  A    between atoms: C_6  and  C_18
REMARK    2  A    between atoms: C_14  and  C_15
REMARK    3  A    between atoms: C_15  and  C_17
REMARK    4  A    between atoms: C_23  and  C_26
REMARK    5  A    between atoms: C_28  and  C_29
REMARK                            x       y       z     vdW  Elec       q    Type
REMARK                         _______ _______ _______ _____ _____    ______ ____
ROOT
ATOM      1  C   UNL A   1     -23.583  -0.163  28.570  0.00  0.00    -0.000 A 
ATOM      2  C   UNL A   1     -24.679   0.235  28.248  0.00  0.00    -0.020 A 
ATOM      3  C   UNL A   1     -24.830   1.203  27.262  0.00  0.00    -0.004 A 
ATOM      4  C   UNL A   1     -26.120   1.780  26.785  0.00  0.00    -0.004 A 
ATOM      5  C   UNL A   1     -26.256   2.796  25.776  0.00  0.00    -0.000 A 
ATOM      6  C   UNL A   1     -22.376   0.505  28.058  0.00  0.00    +0.071 A 
ATOM      7  C   UNL A   1     -22.438   1.415  27.032  0.00  0.00    +0.004 A 
ATOM      8  C   UNL A   1     -23.695   1.864  26.594  0.00  0.00    -0.000 A 
ATOM      9  C   UNL A   1     -27.520   3.179  25.383  0.00  0.00    -0.000 A 
ATOM     10  C   UNL A   1     -28.702   2.591  25.692  0.00  0.00    -0.000 A 
ATOM     11  C   UNL A   1     -27.380   1.143  27.137  0.00  0.00    -0.022 A 
ATOM     12  C   UNL A   1     -27.348   0.060  28.017  0.00  0.00    +0.033 C 
ATOM     13  C   UNL A   1     -28.642   1.526  26.596  0.00  0.00    -0.004 A 
ATOM     14  C   UNL A   1     -26.004  -0.406  28.516  0.00  0.00    +0.056 C 
ENDROOT
BRANCH  14  15
ATOM     15  C   UNL A   1     -25.963  -1.563  29.435  0.00  0.00    +0.116 C 
ATOM     16  C   UNL A   1     -27.102  -1.952  29.936  0.00  0.00    +0.032 C 
ATOM     17  O   UNL A   1     -25.402  -2.720  28.785  0.00  0.00    -0.349 OA
ATOM     18  C   UNL A   1     -25.430  -3.831  29.653  0.00  0.00    +0.180 C 
ATOM     19  C   UNL A   1     -26.692  -4.326  29.691  0.00  0.00    +0.038 C 
ATOM     20  C   UNL A   1     -27.493  -3.226  30.453  0.00  0.00    +0.006 C 
BRANCH  15  21
ATOM     21  C   UNL A   1     -24.935  -1.292  30.506  0.00  0.00    +0.001 C 
ATOM     22  C   UNL A   1     -25.267  -0.826  31.754  0.00  0.00    -0.002 C 
BRANCH  22  23
ATOM     23  C   UNL A   1     -24.264  -0.640  32.738  0.00  0.00    -0.000 C 
ATOM     24  C   UNL A   1     -23.037  -1.179  32.526  0.00  0.00    -0.000 C 
ENDBRANCH  22  23
ENDBRANCH  15  21
BRANCH  18  25
ATOM     25  C   UNL A   1     -24.355  -4.850  29.026  0.00  0.00    +0.237 C 
ATOM     26  O   UNL A   1     -23.857  -4.590  28.011  0.00  0.00    -0.286 OA
ENDBRANCH  18  25
ENDBRANCH  14  15
BRANCH   6  27
ATOM     27  C   UNL A   1     -21.034   0.084  28.569  0.00  0.00    +0.419 C 
ATOM     28  F   UNL A   1     -20.609  -0.841  28.124  0.00  0.00    -0.166 F 
ATOM     29  F   UNL A   1     -20.170   1.142  28.453  0.00  0.00    -0.166 F 
ATOM     30  F   UNL A   1     -21.209  -0.029  29.940  0.00  0.00    -0.166 F 
ENDBRANCH   6  27
TORSDOF 5
ENDMDL
ENDMDL
