REMARK  Name = No_1884-gen_results/8p0m/2024-11-26-14-13-15/
REMARK  5 active torsions:
REMARK  status: ('A' for Active; 'I' for Inactive)
REMARK    1  A    between atoms: C_1  and  C_2
REMARK    2  A    between atoms: C_1  and  N_8
REMARK    3  A    between atoms: C_5  and  C_9
REMARK    4  A    between atoms: N_8  and  C_13
REMARK    5  A    between atoms: C_14  and  C_15
REMARK                            x       y       z     vdW  Elec       q    Type
REMARK                         _______ _______ _______ _____ _____    ______ ____
ROOT
ATOM      1  C   UNL A   1     -28.988  -1.387  31.031  0.00  0.00    +0.048 A 
ATOM      2  C   UNL A   1     -29.956  -1.909  31.169  0.00  0.00    +0.013 A 
ATOM      3  C   UNL A   1     -28.619  -0.290  32.085  0.00  0.00    +0.015 A 
ATOM      4  C   UNL A   1     -31.108  -1.651  32.063  0.00  0.00    +0.001 A 
ATOM      5  C   UNL A   1     -29.541   0.157  32.916  0.00  0.00    +0.001 A 
ATOM      6  C   UNL A   1     -30.759  -0.619  33.054  0.00  0.00    +0.000 A 
ENDROOT
BRANCH   2   7
ATOM      7  C   UNL A   1     -30.227  -3.036  30.270  0.00  0.00    +0.001 A 
ATOM      8  C   UNL A   1     -29.694  -4.207  30.590  0.00  0.00    +0.002 A 
ATOM      9  C   UNL A   1     -29.815  -5.356  29.688  0.00  0.00    +0.030 A 
ATOM     10  C   UNL A   1     -30.753  -5.246  28.646  0.00  0.00    +0.140 A 
ATOM     11  C   UNL A   1     -31.505  -4.086  28.532  0.00  0.00    +0.030 A 
ATOM     12  C   UNL A   1     -31.247  -2.997  29.313  0.00  0.00    +0.002 A 
ATOM     13  F   UNL A   1     -30.925  -6.298  27.917  0.00  0.00    -0.204 F 
ENDBRANCH   2   7
BRANCH   1  14
ATOM     14  N   UNL A   1     -27.998  -1.583  30.102  0.00  0.00    -0.302 N 
ATOM     15  C   UNL A   1     -26.905  -2.000  30.515  0.00  0.00    +0.113 C 
BRANCH  14  16
ATOM     16  C   UNL A   1     -28.016  -0.814  28.878  0.00  0.00    +0.118 C 
BRANCH  16  17
ATOM     17  C   UNL A   1     -27.064  -0.119  28.608  0.00  0.00    -0.002 A 
ATOM     18  C   UNL A   1     -26.876   1.133  28.913  0.00  0.00    -0.002 A 
ATOM     19  C   UNL A   1     -25.688   1.952  28.567  0.00  0.00    +0.006 A 
ATOM     20  C   UNL A   1     -24.639   1.283  27.875  0.00  0.00    +0.080 A 
ATOM     21  C   UNL A   1     -24.807  -0.051  27.604  0.00  0.00    +0.006 A 
ATOM     22  C   UNL A   1     -25.902  -0.767  27.951  0.00  0.00    -0.002 A 
BRANCH  20  23
ATOM     23  C   UNL A   1     -23.454   1.985  27.477  0.00  0.00    +0.388 C 
ATOM     24  O   UNL A   1     -23.430   2.657  26.536  0.00  0.00    -0.241 OA
ATOM     25  O   UNL A   1     -22.280   1.684  28.110  0.00  0.00    -0.241 OA
ENDBRANCH  20  23
ENDBRANCH  16  17
ENDBRANCH  14  16
ENDBRANCH   1  14
TORSDOF 5
