MODEL 1884
MODEL 1
REMARK VINA RESULT:    -7.104      0.000      0.000
REMARK INTER + INTRA:         -10.244
REMARK INTER:                  -9.181
REMARK INTRA:                  -1.063
REMARK UNBOUND:                -1.063
REMARK  Name = No_1884-gen_results/8p0m/2024-11-26-14-13-15/
REMARK  5 active torsions:
REMARK  status: ('A' for Active; 'I' for Inactive)
REMARK    1  A    between atoms: C_1  and  C_2
REMARK    2  A    between atoms: C_1  and  N_8
REMARK    3  A    between atoms: C_5  and  C_9
REMARK    4  A    between atoms: N_8  and  C_13
REMARK    5  A    between atoms: C_14  and  C_15
REMARK                            x       y       z     vdW  Elec       q    Type
REMARK                         _______ _______ _______ _____ _____    ______ ____
ROOT
ATOM      1  C   UNL A   1     -22.786  -0.229  28.854  0.00  0.00    +0.048 A 
ATOM      2  C   UNL A   1     -23.276   0.565  28.257  0.00  0.00    +0.013 A 
ATOM      3  C   UNL A   1     -21.223  -0.202  28.921  0.00  0.00    +0.015 A 
ATOM      4  C   UNL A   1     -22.742   1.575  27.315  0.00  0.00    +0.001 A 
ATOM      5  C   UNL A   1     -20.544   0.562  28.087  0.00  0.00    +0.001 A 
ATOM      6  C   UNL A   1     -21.271   1.599  27.379  0.00  0.00    +0.000 A 
ENDROOT
BRANCH   2   7
ATOM      7  C   UNL A   1     -24.741   0.625  28.321  0.00  0.00    +0.001 A 
ATOM      8  C   UNL A   1     -25.274   1.409  29.248  0.00  0.00    +0.002 A 
ATOM      9  C   UNL A   1     -26.724   1.437  29.460  0.00  0.00    +0.030 A 
ATOM     10  C   UNL A   1     -27.521   0.847  28.463  0.00  0.00    +0.140 A 
ATOM     11  C   UNL A   1     -26.909   0.288  27.351  0.00  0.00    +0.030 A 
ATOM     12  C   UNL A   1     -25.552   0.164  27.278  0.00  0.00    +0.002 A 
ATOM     13  F   UNL A   1     -28.799   0.964  28.608  0.00  0.00    -0.204 F 
ENDBRANCH   2   7
BRANCH   1  14
ATOM     14  N   UNL A   1     -23.332  -1.228  29.620  0.00  0.00    -0.302 N 
ATOM     15  C   UNL A   1     -23.074  -1.220  30.834  0.00  0.00    +0.113 C 
BRANCH  14  16
ATOM     16  C   UNL A   1     -23.659  -2.493  29.002  0.00  0.00    +0.118 C 
BRANCH  16  17
ATOM     17  C   UNL A   1     -24.705  -3.031  29.284  0.00  0.00    -0.002 A 
ATOM     18  C   UNL A   1     -25.007  -4.294  29.182  0.00  0.00    -0.002 A 
ATOM     19  C   UNL A   1     -26.303  -4.918  29.546  0.00  0.00    +0.006 A 
ATOM     20  C   UNL A   1     -27.288  -4.052  30.102  0.00  0.00    +0.080 A 
ATOM     21  C   UNL A   1     -26.952  -2.732  30.267  0.00  0.00    +0.006 A 
ATOM     22  C   UNL A   1     -25.751  -2.205  29.935  0.00  0.00    -0.002 A 
BRANCH  20  23
ATOM     23  C   UNL A   1     -28.581  -4.548  30.471  0.00  0.00    +0.388 C 
ATOM     24  O   UNL A   1     -28.832  -4.847  31.560  0.00  0.00    -0.241 OA
ATOM     25  O   UNL A   1     -29.461  -4.867  29.474  0.00  0.00    -0.241 OA
ENDBRANCH  20  23
ENDBRANCH  16  17
ENDBRANCH  14  16
ENDBRANCH   1  14
TORSDOF 5
ENDMDL
ENDMDL
