REMARK  Name = No_1885-gen_results/8p0m/2024-11-26-14-13-15/
REMARK  1 active torsions:
REMARK  status: ('A' for Active; 'I' for Inactive)
REMARK    1  A    between atoms: C_4  and  C_5
REMARK                            x       y       z     vdW  Elec       q    Type
REMARK                         _______ _______ _______ _____ _____    ______ ____
ROOT
ATOM      1  O   UNL A   1     -28.123  -1.335  28.487  0.00  0.00    -0.273 OA
ATOM      2  C   UNL A   1     -27.481  -0.404  28.709  0.00  0.00    +0.241 C 
ATOM      3  N   UNL A   1     -26.460  -0.110  28.005  0.00  0.00    -0.203 NA
ATOM      4  C   UNL A   1     -25.430   0.879  28.357  0.00  0.00    +0.117 C 
ATOM      5  C   UNL A   1     -27.737   0.501  29.964  0.00  0.00    +0.078 C 
ATOM      6  C   UNL A   1     -28.830   0.213  30.709  0.00  0.00    +0.010 C 
ATOM      7  C   UNL A   1     -25.566   1.572  29.572  0.00  0.00    +0.026 C 
ATOM      8  C   UNL A   1     -26.282   1.771  30.430  0.00  0.00    +0.003 C 
ATOM      9  C   UNL A   1     -27.305   1.557  30.002  0.00  0.00    +0.009 C 
ENDROOT
BRANCH   4  10
ATOM     10  C   UNL A   1     -24.360   1.056  27.565  0.00  0.00    -0.009 C 
ATOM     11  C   UNL A   1     -23.148   1.564  28.071  0.00  0.00    -0.029 C 
ATOM     12  C   UNL A   1     -21.994   1.682  27.319  0.00  0.00    +0.030 C 
ENDBRANCH   4  10
TORSDOF 1
