MODEL 1885
MODEL 1
REMARK VINA RESULT:    -6.133      0.000      0.000
REMARK INTER + INTRA:          -6.655
REMARK INTER:                  -6.492
REMARK INTRA:                  -0.163
REMARK UNBOUND:                -0.163
REMARK  Name = No_1885-gen_results/8p0m/2024-11-26-14-13-15/
REMARK  1 active torsions:
REMARK  status: ('A' for Active; 'I' for Inactive)
REMARK    1  A    between atoms: C_4  and  C_5
REMARK                            x       y       z     vdW  Elec       q    Type
REMARK                         _______ _______ _______ _____ _____    ______ ____
ROOT
ATOM      1  O   UNL A   1     -20.712  -0.098  28.699  0.00  0.00    -0.273 OA
ATOM      2  C   UNL A   1     -21.850  -0.283  28.687  0.00  0.00    +0.241 C 
ATOM      3  N   UNL A   1     -22.359  -1.357  29.146  0.00  0.00    -0.203 NA
ATOM      4  C   UNL A   1     -23.743  -1.810  28.937  0.00  0.00    +0.117 C 
ATOM      5  C   UNL A   1     -22.846   0.711  27.995  0.00  0.00    +0.078 C 
ATOM      6  C   UNL A   1     -22.322   1.866  27.521  0.00  0.00    +0.010 C 
ATOM      7  C   UNL A   1     -24.594  -1.000  28.167  0.00  0.00    +0.026 C 
ATOM      8  C   UNL A   1     -24.682   0.021  27.678  0.00  0.00    +0.003 C 
ATOM      9  C   UNL A   1     -23.958   0.673  28.250  0.00  0.00    +0.009 C 
ENDROOT
BRANCH   4  10
ATOM     10  C   UNL A   1     -24.149  -2.997  29.416  0.00  0.00    -0.009 C 
ATOM     11  C   UNL A   1     -24.328  -4.108  28.570  0.00  0.00    -0.029 C 
ATOM     12  C   UNL A   1     -24.658  -5.371  29.024  0.00  0.00    +0.030 C 
ENDBRANCH   4  10
TORSDOF 1
ENDMDL
ENDMDL
