MODEL 1886
MODEL 1
REMARK VINA RESULT:    -8.359      0.000      0.000
REMARK INTER + INTRA:         -11.350
REMARK INTER:                 -10.802
REMARK INTRA:                  -0.548
REMARK UNBOUND:                -0.548
REMARK  Name = No_1886-gen_results/8p0m/2024-11-26-14-13-15/
REMARK  5 active torsions:
REMARK  status: ('A' for Active; 'I' for Inactive)
REMARK    1  A    between atoms: C_2  and  N_7
REMARK    2  A    between atoms: C_8  and  C_10
REMARK    3  A    between atoms: C_15  and  C_16
REMARK    4  A    between atoms: C_20  and  C_22
REMARK    5  A    between atoms: N_24  and  C_26
REMARK                            x       y       z     vdW  Elec       q    Type
REMARK                         _______ _______ _______ _____ _____    ______ ____
ROOT
ATOM      1  C   UNL A   1     -24.412   0.957  27.263  0.00  0.00    +0.000 A 
ATOM      2  C   UNL A   1     -23.332   1.105  27.021  0.00  0.00    +0.000 A 
ATOM      3  C   UNL A   1     -22.284   1.219  27.577  0.00  0.00    +0.000 A 
ATOM      4  C   UNL A   1     -22.426   1.105  29.058  0.00  0.00    +0.004 A 
ATOM      5  C   UNL A   1     -23.643   0.916  29.554  0.00  0.00    +0.054 A 
ATOM      6  C   UNL A   1     -24.763   0.816  28.720  0.00  0.00    +0.004 A 
ENDROOT
BRANCH   1  12
ATOM      7  C   UNL A   1     -27.690   0.618  24.711  0.00  0.00    +0.055 A 
ATOM      8  C   UNL A   1     -27.813   1.276  25.659  0.00  0.00    +0.005 A 
ATOM      9  C   UNL A   1     -26.729   1.536  26.600  0.00  0.00    +0.000 A 
ATOM     10  C   UNL A   1     -26.536  -0.137  24.435  0.00  0.00    +0.005 A 
ATOM     11  C   UNL A   1     -25.452  -0.001  25.284  0.00  0.00    +0.000 A 
ATOM     12  C   UNL A   1     -25.568   0.832  26.365  0.00  0.00    +0.000 A 
BRANCH   7  14
ATOM     13  N   UNL A   1     -29.723   1.391  23.918  0.00  0.00    -0.175 NA
ATOM     14  C   UNL A   1     -28.893   0.438  23.792  0.00  0.00    +0.269 C 
ATOM     15  O   UNL A   1     -29.046  -0.405  23.075  0.00  0.00    -0.268 OA
BRANCH  13  17
ATOM     16  C   UNL A   1     -30.902   2.217  22.269  0.00  0.00    +0.017 A 
ATOM     17  C   UNL A   1     -30.880   1.413  22.950  0.00  0.00    +0.074 A 
ATOM     18  C   UNL A   1     -32.073   2.227  21.312  0.00  0.00    +0.001 A 
ATOM     19  C   UNL A   1     -33.106   1.280  21.474  0.00  0.00    +0.000 A 
ATOM     20  C   UNL A   1     -31.822   0.340  23.341  0.00  0.00    +0.017 A 
ATOM     21  C   UNL A   1     -32.915   0.321  22.487  0.00  0.00    +0.001 A 
ENDBRANCH  13  17
ENDBRANCH   7  14
ENDBRANCH   1  12
BRANCH   5  22
ATOM     22  C   UNL A   1     -23.862   0.802  31.029  0.00  0.00    +0.253 C 
ATOM     23  O   UNL A   1     -24.232   1.682  31.671  0.00  0.00    -0.270 OA
ATOM     24  N   UNL A   1     -23.989  -0.495  31.448  0.00  0.00    -0.253 N 
ATOM     25  C   UNL A   1     -24.251  -0.760  32.842  0.00  0.00    +0.120 C 
BRANCH  24  26
ATOM     26  C   UNL A   1     -24.180  -1.569  30.595  0.00  0.00    +0.054 A 
ATOM     27  C   UNL A   1     -23.548  -2.108  29.880  0.00  0.00    +0.015 A 
ATOM     28  C   UNL A   1     -23.907  -3.150  28.939  0.00  0.00    +0.001 A 
ATOM     29  C   UNL A   1     -25.247  -3.538  28.971  0.00  0.00    +0.000 A 
ATOM     30  C   UNL A   1     -26.136  -2.979  29.845  0.00  0.00    +0.001 A 
ATOM     31  C   UNL A   1     -25.682  -2.046  30.673  0.00  0.00    +0.015 A 
ENDBRANCH  24  26
ENDBRANCH   5  22
TORSDOF 5
ENDMDL
ENDMDL
