REMARK  Name = No_1886-gen_results/8p0m/2024-11-26-14-13-15/
REMARK  5 active torsions:
REMARK  status: ('A' for Active; 'I' for Inactive)
REMARK    1  A    between atoms: C_2  and  N_7
REMARK    2  A    between atoms: C_8  and  C_10
REMARK    3  A    between atoms: C_15  and  C_16
REMARK    4  A    between atoms: C_20  and  C_22
REMARK    5  A    between atoms: N_24  and  C_26
REMARK                            x       y       z     vdW  Elec       q    Type
REMARK                         _______ _______ _______ _____ _____    ______ ____
ROOT
ATOM      1  C   UNL A   1     -36.183  -1.113  28.877  0.00  0.00    +0.000 A 
ATOM      2  C   UNL A   1     -36.748  -1.951  28.404  0.00  0.00    +0.000 A 
ATOM      3  C   UNL A   1     -37.871  -2.324  28.261  0.00  0.00    +0.000 A 
ATOM      4  C   UNL A   1     -38.851  -1.379  28.873  0.00  0.00    +0.004 A 
ATOM      5  C   UNL A   1     -38.377  -0.300  29.485  0.00  0.00    +0.054 A 
ATOM      6  C   UNL A   1     -37.002  -0.045  29.551  0.00  0.00    +0.004 A 
ENDROOT
BRANCH   1  12
ATOM      7  C   UNL A   1     -32.082  -0.380  28.996  0.00  0.00    +0.055 A 
ATOM      8  C   UNL A   1     -32.793   0.518  29.182  0.00  0.00    +0.005 A 
ATOM      9  C   UNL A   1     -34.246   0.391  29.236  0.00  0.00    +0.000 A 
ATOM     10  C   UNL A   1     -32.530  -1.665  28.642  0.00  0.00    +0.005 A 
ATOM     11  C   UNL A   1     -33.894  -1.895  28.622  0.00  0.00    +0.000 A 
ATOM     12  C   UNL A   1     -34.737  -0.855  28.913  0.00  0.00    +0.000 A 
BRANCH   7  14
ATOM     13  N   UNL A   1     -29.977  -0.829  29.850  0.00  0.00    -0.175 NA
ATOM     14  C   UNL A   1     -30.579  -0.123  28.982  0.00  0.00    +0.269 C 
ATOM     15  O   UNL A   1     -30.043   0.577  28.296  0.00  0.00    -0.268 OA
BRANCH  13  17
ATOM     16  C   UNL A   1     -28.016  -0.814  28.878  0.00  0.00    +0.017 A 
ATOM     17  C   UNL A   1     -28.469  -0.785  29.829  0.00  0.00    +0.074 A 
ATOM     18  C   UNL A   1     -26.504  -0.778  28.877  0.00  0.00    +0.001 A 
ATOM     19  C   UNL A   1     -25.810  -0.853  30.103  0.00  0.00    +0.000 A 
ATOM     20  C   UNL A   1     -27.991  -0.892  31.226  0.00  0.00    +0.017 A 
ATOM     21  C   UNL A   1     -26.604  -0.868  31.265  0.00  0.00    +0.001 A 
ENDBRANCH  13  17
ENDBRANCH   7  14
ENDBRANCH   1  12
BRANCH   5  22
ATOM     22  C   UNL A   1     -39.299   0.685  30.129  0.00  0.00    +0.253 C 
ATOM     23  O   UNL A   1     -39.314   0.871  31.264  0.00  0.00    -0.270 OA
ATOM     24  N   UNL A   1     -39.793   1.606  29.244  0.00  0.00    -0.253 N 
ATOM     25  C   UNL A   1     -40.663   2.650  29.730  0.00  0.00    +0.120 C 
BRANCH  24  26
ATOM     26  C   UNL A   1     -39.295   1.797  27.967  0.00  0.00    +0.054 A 
ATOM     27  C   UNL A   1     -39.722   1.760  26.958  0.00  0.00    +0.015 A 
ATOM     28  C   UNL A   1     -39.058   1.854  25.674  0.00  0.00    +0.001 A 
ATOM     29  C   UNL A   1     -37.677   2.045  25.736  0.00  0.00    +0.000 A 
ATOM     30  C   UNL A   1     -37.020   2.153  26.930  0.00  0.00    +0.001 A 
ATOM     31  C   UNL A   1     -37.743   2.071  28.040  0.00  0.00    +0.015 A 
ENDBRANCH  24  26
ENDBRANCH   5  22
TORSDOF 5
