MODEL 1887
MODEL 1
REMARK VINA RESULT:    -6.036      0.000      0.000
REMARK INTER + INTRA:          -6.036
REMARK INTER:                  -6.036
REMARK INTRA:                   0.000
REMARK UNBOUND:                 0.000
REMARK  Name = No_1887-gen_results/8p0m/2024-11-26-14-13-15/
REMARK  0 active torsions:
REMARK  status: ('A' for Active; 'I' for Inactive)
REMARK                            x       y       z     vdW  Elec       q    Type
REMARK                         _______ _______ _______ _____ _____    ______ ____
ROOT
ATOM      1  C   UNL A   1     -23.104   2.274  26.696  0.00  0.00    +0.053 C 
ATOM      2  C   UNL A   1     -22.671   1.376  27.381  0.00  0.00    -0.005 A 
ATOM      3  C   UNL A   1     -23.442   0.483  28.106  0.00  0.00    +0.040 A 
ATOM      4  C   UNL A   1     -22.952  -0.544  28.993  0.00  0.00    -0.007 A 
ATOM      5  C   UNL A   1     -21.554  -0.685  29.159  0.00  0.00    -0.003 A 
ATOM      6  C   UNL A   1     -20.706   0.198  28.441  0.00  0.00    -0.001 A 
ATOM      7  C   UNL A   1     -21.265   1.154  27.650  0.00  0.00    -0.003 A 
ATOM      8  C   UNL A   1     -23.882   1.837  25.531  0.00  0.00    -0.024 C 
ATOM      9  C   UNL A   1     -24.697   0.996  25.591  0.00  0.00    -0.009 C 
ATOM     10  C   UNL A   1     -25.230   0.170  26.620  0.00  0.00    +0.117 C 
ATOM     11  N   UNL A   1     -24.415  -0.445  27.466  0.00  0.00    -0.304 N 
ATOM     12  C   UNL A   1     -24.918  -1.436  28.446  0.00  0.00    +0.096 C 
ATOM     13  C   UNL A   1     -23.714  -1.857  28.926  0.00  0.00    +0.049 C 
ENDROOT
TORSDOF 0
ENDMDL
ENDMDL
