REMARK  Name = No_1887-gen_results/8p0m/2024-11-26-14-13-15/
REMARK  0 active torsions:
REMARK  status: ('A' for Active; 'I' for Inactive)
REMARK                            x       y       z     vdW  Elec       q    Type
REMARK                         _______ _______ _______ _____ _____    ______ ____
ROOT
ATOM      1  C   UNL A   1     -28.016  -0.814  28.878  0.00  0.00    +0.053 C 
ATOM      2  C   UNL A   1     -27.064  -0.119  28.608  0.00  0.00    -0.005 A 
ATOM      3  C   UNL A   1     -26.972   0.714  27.506  0.00  0.00    +0.040 A 
ATOM      4  C   UNL A   1     -25.820   1.491  27.116  0.00  0.00    -0.007 A 
ATOM      5  C   UNL A   1     -24.656   1.424  27.918  0.00  0.00    -0.003 A 
ATOM      6  C   UNL A   1     -24.685   0.590  29.066  0.00  0.00    -0.001 A 
ATOM      7  C   UNL A   1     -25.810  -0.127  29.334  0.00  0.00    -0.003 A 
ATOM      8  C   UNL A   1     -29.244  -0.077  29.201  0.00  0.00    -0.024 C 
ATOM      9  C   UNL A   1     -29.622   0.833  28.566  0.00  0.00    -0.009 C 
ATOM     10  C   UNL A   1     -29.174   1.515  27.400  0.00  0.00    +0.117 C 
ATOM     11  N   UNL A   1     -27.899   1.857  27.281  0.00  0.00    -0.304 N 
ATOM     12  C   UNL A   1     -27.425   2.705  26.162  0.00  0.00    +0.096 C 
ATOM     13  C   UNL A   1     -26.141   2.878  26.585  0.00  0.00    +0.049 C 
ENDROOT
TORSDOF 0
