REMARK  Name = No_1888-gen_results/8p0m/2024-11-26-14-13-15/
REMARK  4 active torsions:
REMARK  status: ('A' for Active; 'I' for Inactive)
REMARK    1  A    between atoms: C_4  and  C_14
REMARK    2  A    between atoms: C_5  and  C_11
REMARK    3  A    between atoms: C_15  and  C_16
REMARK    4  A    between atoms: N_17  and  C_19
REMARK                            x       y       z     vdW  Elec       q    Type
REMARK                         _______ _______ _______ _____ _____    ______ ____
ROOT
ATOM      1  C   UNL A   1     -28.016  -0.814  28.878  0.00  0.00    +0.000 A 
ATOM      2  C   UNL A   1     -27.064  -0.119  28.608  0.00  0.00    +0.000 A 
ATOM      3  C   UNL A   1     -26.876   1.133  28.913  0.00  0.00    +0.000 A 
ATOM      4  C   UNL A   1     -25.688   1.952  28.567  0.00  0.00    +0.006 A 
ATOM      5  C   UNL A   1     -24.639   1.283  27.875  0.00  0.00    +0.080 A 
ATOM      6  C   UNL A   1     -24.807  -0.051  27.604  0.00  0.00    +0.007 A 
ATOM      7  C   UNL A   1     -25.902  -0.767  27.951  0.00  0.00    +0.000 A 
ATOM      8  C   UNL A   1     -29.212  -0.115  29.122  0.00  0.00    +0.000 A 
ATOM      9  C   UNL A   1     -29.193   1.221  29.415  0.00  0.00    +0.000 A 
ATOM     10  C   UNL A   1     -28.033   1.926  29.179  0.00  0.00    +0.000 A 
ENDROOT
BRANCH   5  11
ATOM     11  C   UNL A   1     -23.354   1.890  27.589  0.00  0.00    +0.388 C 
ATOM     12  O   UNL A   1     -23.179   2.631  26.751  0.00  0.00    -0.241 OA
ATOM     13  O   UNL A   1     -22.210   1.415  28.358  0.00  0.00    -0.241 OA
ENDBRANCH   5  11
BRANCH   4  14
ATOM     14  C   UNL A   1     -25.478   3.373  28.909  0.00  0.00    +0.005 C 
ATOM     15  C   UNL A   1     -25.464   3.985  30.021  0.00  0.00    +0.060 C 
BRANCH  15  16
ATOM     16  C   UNL A   1     -25.532   5.376  30.224  0.00  0.00    +0.269 C 
ATOM     17  N   UNL A   1     -25.533   5.951  31.453  0.00  0.00    -0.175 NA
ATOM     18  O   UNL A   1     -25.491   6.216  29.232  0.00  0.00    -0.268 OA
BRANCH  17  19
ATOM     19  C   UNL A   1     -25.449   7.387  31.742  0.00  0.00    +0.074 A 
ATOM     20  C   UNL A   1     -25.793   8.223  31.216  0.00  0.00    +0.017 A 
ATOM     21  C   UNL A   1     -25.628   9.634  31.565  0.00  0.00    +0.001 A 
ATOM     22  C   UNL A   1     -25.102   7.620  33.181  0.00  0.00    +0.017 A 
ATOM     23  C   UNL A   1     -24.963   8.921  33.669  0.00  0.00    +0.001 A 
ATOM     24  C   UNL A   1     -25.273   9.953  32.833  0.00  0.00    +0.000 A 
ENDBRANCH  17  19
ENDBRANCH  15  16
ENDBRANCH   4  14
TORSDOF 4
