MODEL 1888
MODEL 1
REMARK VINA RESULT:    -7.223      0.000      0.000
REMARK INTER + INTRA:          -9.571
REMARK INTER:                  -8.912
REMARK INTRA:                  -0.659
REMARK UNBOUND:                -0.659
REMARK  Name = No_1888-gen_results/8p0m/2024-11-26-14-13-15/
REMARK  4 active torsions:
REMARK  status: ('A' for Active; 'I' for Inactive)
REMARK    1  A    between atoms: C_4  and  C_14
REMARK    2  A    between atoms: C_5  and  C_11
REMARK    3  A    between atoms: C_15  and  C_16
REMARK    4  A    between atoms: N_17  and  C_19
REMARK                            x       y       z     vdW  Elec       q    Type
REMARK                         _______ _______ _______ _____ _____    ______ ____
ROOT
ATOM      1  C   UNL A   1     -23.290  -1.195  30.012  0.00  0.00    +0.000 A 
ATOM      2  C   UNL A   1     -23.364  -0.478  29.041  0.00  0.00    +0.000 A 
ATOM      3  C   UNL A   1     -24.308  -0.442  28.144  0.00  0.00    +0.000 A 
ATOM      4  C   UNL A   1     -24.365   0.460  26.967  0.00  0.00    +0.006 A 
ATOM      5  C   UNL A   1     -23.306   1.402  26.841  0.00  0.00    +0.080 A 
ATOM      6  C   UNL A   1     -22.341   1.408  27.816  0.00  0.00    +0.007 A 
ATOM      7  C   UNL A   1     -22.333   0.577  28.884  0.00  0.00    +0.000 A 
ATOM      8  C   UNL A   1     -24.018  -2.395  29.921  0.00  0.00    +0.000 A 
ATOM      9  C   UNL A   1     -25.018  -2.538  28.999  0.00  0.00    +0.000 A 
ATOM     10  C   UNL A   1     -25.103  -1.615  27.978  0.00  0.00    +0.000 A 
ENDROOT
BRANCH   5  11
ATOM     11  C   UNL A   1     -23.280   2.448  25.837  0.00  0.00    +0.388 C 
ATOM     12  O   UNL A   1     -22.607   2.433  24.927  0.00  0.00    -0.241 OA
ATOM     13  O   UNL A   1     -24.086   3.635  26.095  0.00  0.00    -0.241 OA
ENDBRANCH   5  11
BRANCH   4  14
ATOM     14  C   UNL A   1     -25.432   0.497  25.948  0.00  0.00    +0.005 C 
ATOM     15  C   UNL A   1     -26.611   0.967  25.970  0.00  0.00    +0.060 C 
BRANCH  15  16
ATOM     16  C   UNL A   1     -27.644   0.710  25.050  0.00  0.00    +0.269 C 
ATOM     17  N   UNL A   1     -28.872   1.283  25.126  0.00  0.00    -0.175 NA
ATOM     18  O   UNL A   1     -27.453  -0.022  23.992  0.00  0.00    -0.268 OA
BRANCH  17  19
ATOM     19  C   UNL A   1     -29.942   1.185  24.128  0.00  0.00    +0.074 A 
ATOM     20  C   UNL A   1     -30.789   0.573  24.076  0.00  0.00    +0.017 A 
ATOM     21  C   UNL A   1     -31.791   0.516  23.012  0.00  0.00    +0.001 A 
ATOM     22  C   UNL A   1     -29.955   2.392  23.241  0.00  0.00    +0.017 A 
ATOM     23  C   UNL A   1     -30.893   2.499  22.213  0.00  0.00    +0.001 A 
ATOM     24  C   UNL A   1     -31.860   1.541  22.128  0.00  0.00    +0.000 A 
ENDBRANCH  17  19
ENDBRANCH  15  16
ENDBRANCH   4  14
TORSDOF 4
ENDMDL
ENDMDL
