REMARK  Name = No_1889-gen_results/8p0m/2024-11-26-14-13-15/
REMARK  7 active torsions:
REMARK  status: ('A' for Active; 'I' for Inactive)
REMARK    1  A    between atoms: C_2  and  C_18
REMARK    2  A    between atoms: C_3  and  C_4
REMARK    3  A    between atoms: C_4  and  C_8
REMARK    4  A    between atoms: C_7  and  C_15
REMARK    5  A    between atoms: C_14  and  N_21
REMARK    6  A    between atoms: N_21  and  C_23
REMARK    7  A    between atoms: C_23  and  C_24
REMARK                            x       y       z     vdW  Elec       q    Type
REMARK                         _______ _______ _______ _____ _____    ______ ____
ROOT
ATOM      1  C   UNL A   1     -25.898   0.239  26.745  0.00  0.00    -0.017 A 
ATOM      2  C   UNL A   1     -24.926   0.763  26.032  0.00  0.00    -0.004 A 
ATOM      3  C   UNL A   1     -24.247   1.800  26.160  0.00  0.00    -0.003 A 
ATOM      4  C   UNL A   1     -24.451   2.700  27.273  0.00  0.00    -0.008 A 
ATOM      5  C   UNL A   1     -23.601   3.738  27.640  0.00  0.00    +0.032 C 
ATOM      6  C   UNL A   1     -26.038   1.538  27.675  0.00  0.00    +0.011 A 
ATOM      7  C   UNL A   1     -25.352   2.518  28.029  0.00  0.00    +0.051 A 
ENDROOT
BRANCH   7   8
ATOM      8  N   UNL A   1     -25.769   3.273  29.091  0.00  0.00    -0.243 N 
ATOM      9  C   UNL A   1     -26.009   4.559  29.076  0.00  0.00    +0.307 C 
ATOM     10  O   UNL A   1     -26.781   5.086  28.476  0.00  0.00    -0.265 OA
BRANCH   8  11
ATOM     11  C   UNL A   1     -25.980   2.691  30.451  0.00  0.00    +0.185 C 
BRANCH  11  12
ATOM     12  C   UNL A   1     -25.072   3.145  31.549  0.00  0.00    +0.262 C 
ATOM     13  O   UNL A   1     -24.194   2.633  31.964  0.00  0.00    -0.272 OA
ATOM     14  N   UNL A   1     -25.677   4.243  32.239  0.00  0.00    -0.202 NA
ATOM     15  C   UNL A   1     -24.963   4.870  33.367  0.00  0.00    +0.139 C 
ENDBRANCH  11  12
ENDBRANCH   8  11
ENDBRANCH   7   8
BRANCH   1  16
ATOM     16  C   UNL A   1     -25.683  -0.777  27.683  0.00  0.00    +0.053 C 
BRANCH  16  19
ATOM     17  C   UNL A   1     -28.016  -0.814  28.878  0.00  0.00    +0.003 A 
ATOM     18  C   UNL A   1     -28.469  -0.785  29.829  0.00  0.00    +0.080 A 
ATOM     19  C   UNL A   1     -26.546  -0.876  28.850  0.00  0.00    -0.011 A 
ATOM     20  C   UNL A   1     -27.918  -1.003  31.188  0.00  0.00    +0.007 A 
ATOM     21  C   UNL A   1     -26.531  -1.079  31.246  0.00  0.00    +0.006 A 
ATOM     22  C   UNL A   1     -25.780  -1.046  30.090  0.00  0.00    +0.076 A 
BRANCH  22  23
ATOM     23  C   UNL A   1     -24.386  -1.183  30.150  0.00  0.00    +0.388 C 
ATOM     24  O   UNL A   1     -23.654  -0.463  30.808  0.00  0.00    -0.241 OA
ATOM     25  O   UNL A   1     -23.764  -1.926  29.146  0.00  0.00    -0.241 OA
ENDBRANCH  22  23
BRANCH  18  26
ATOM     26  C   UNL A   1     -30.075  -0.738  29.898  0.00  0.00    +0.388 C 
ATOM     27  O   UNL A   1     -30.704  -0.051  30.779  0.00  0.00    -0.241 OA
ATOM     28  O   UNL A   1     -30.666  -1.045  28.806  0.00  0.00    -0.241 OA
ENDBRANCH  18  26
ENDBRANCH  16  19
ENDBRANCH   1  16
TORSDOF 7
