MODEL 1890
MODEL 1
REMARK VINA RESULT:    -4.250      0.000      0.000
REMARK INTER + INTRA:          -4.250
REMARK INTER:                  -4.250
REMARK INTRA:                   0.000
REMARK UNBOUND:                 0.000
REMARK  Name = No_1890-gen_results/8p0m/2024-11-26-14-13-15/
REMARK  0 active torsions:
REMARK  status: ('A' for Active; 'I' for Inactive)
REMARK                            x       y       z     vdW  Elec       q    Type
REMARK                         _______ _______ _______ _____ _____    ______ ____
ROOT
ATOM      1  C   UNL A   1     -25.033  -5.437  29.121  0.00  0.00    +0.000 A 
ATOM      2  C   UNL A   1     -26.004  -4.845  29.534  0.00  0.00    +0.000 A 
ATOM      3  C   UNL A   1     -26.072  -3.470  29.644  0.00  0.00    +0.000 A 
ATOM      4  C   UNL A   1     -24.949  -2.710  29.210  0.00  0.00    +0.000 A 
ATOM      5  C   UNL A   1     -23.961  -3.404  28.600  0.00  0.00    +0.000 A 
ATOM      6  C   UNL A   1     -23.999  -4.719  28.502  0.00  0.00    +0.000 A 
ENDROOT
TORSDOF 0
ENDMDL
ENDMDL
