REMARK  Name = No_1891-gen_results/8p0m/2024-11-26-14-13-15/
REMARK  4 active torsions:
REMARK  status: ('A' for Active; 'I' for Inactive)
REMARK    1  A    between atoms: C_2  and  C_4
REMARK    2  A    between atoms: C_4  and  C_5
REMARK    3  A    between atoms: C_5  and  C_6
REMARK    4  A    between atoms: C_8  and  C_13
REMARK                            x       y       z     vdW  Elec       q    Type
REMARK                         _______ _______ _______ _____ _____    ______ ____
ROOT
ATOM      1  C   UNL A   1     -30.621   1.887  27.582  0.00  0.00    -0.020 A 
ATOM      2  C   UNL A   1     -30.535   3.283  27.078  0.00  0.00    -0.004 A 
ATOM      3  C   UNL A   1     -31.580   4.083  26.461  0.00  0.00    -0.000 A 
ATOM      4  C   UNL A   1     -32.718   3.383  26.148  0.00  0.00    -0.000 A 
ATOM      5  C   UNL A   1     -32.822   2.066  26.523  0.00  0.00    -0.000 A 
ATOM      6  C   UNL A   1     -31.872   1.348  27.172  0.00  0.00    -0.004 A 
ENDROOT
BRANCH   2   7
ATOM      7  C   UNL A   1     -29.275   4.084  27.348  0.00  0.00    -0.000 A 
ATOM      8  C   UNL A   1     -29.096   4.586  28.619  0.00  0.00    -0.000 A 
ATOM      9  C   UNL A   1     -27.853   5.100  28.966  0.00  0.00    -0.000 A 
ATOM     10  C   UNL A   1     -26.773   5.051  28.055  0.00  0.00    -0.000 A 
ATOM     11  C   UNL A   1     -26.934   4.474  26.817  0.00  0.00    -0.000 A 
ATOM     12  C   UNL A   1     -28.186   3.922  26.476  0.00  0.00    -0.000 A 
ENDBRANCH   2   7
BRANCH   1  13
ATOM     13  C   UNL A   1     -29.710   1.376  28.163  0.00  0.00    +0.054 C 
BRANCH  13  14
ATOM     14  C   UNL A   1     -29.807   0.189  28.663  0.00  0.00    +0.187 C 
ATOM     15 CL   UNL A   1     -30.886  -0.017  29.992  0.00  0.00    -0.102 Cl
BRANCH  14  17
ATOM     16  O   UNL A   1     -28.123  -1.335  28.487  0.00  0.00    -0.244 OA
ATOM     17  C   UNL A   1     -28.521  -0.436  29.078  0.00  0.00    +0.380 C 
ATOM     18  O   UNL A   1     -27.915   0.078  30.039  0.00  0.00    -0.244 OA
ENDBRANCH  14  17
ENDBRANCH  13  14
ENDBRANCH   1  13
TORSDOF 4
