MODEL 1891
MODEL 1
REMARK VINA RESULT:    -6.566      0.000      0.000
REMARK INTER + INTRA:          -9.094
REMARK INTER:                  -8.101
REMARK INTRA:                  -0.993
REMARK UNBOUND:                -0.993
REMARK  Name = No_1891-gen_results/8p0m/2024-11-26-14-13-15/
REMARK  4 active torsions:
REMARK  status: ('A' for Active; 'I' for Inactive)
REMARK    1  A    between atoms: C_2  and  C_4
REMARK    2  A    between atoms: C_4  and  C_5
REMARK    3  A    between atoms: C_5  and  C_6
REMARK    4  A    between atoms: C_8  and  C_13
REMARK                            x       y       z     vdW  Elec       q    Type
REMARK                         _______ _______ _______ _____ _____    ______ ____
ROOT
ATOM      1  C   UNL A   1     -24.343  -0.356  27.649  0.00  0.00    -0.020 A 
ATOM      2  C   UNL A   1     -23.892  -1.362  28.647  0.00  0.00    -0.004 A 
ATOM      3  C   UNL A   1     -22.860  -1.224  29.661  0.00  0.00    -0.000 A 
ATOM      4  C   UNL A   1     -22.098  -0.089  29.542  0.00  0.00    -0.000 A 
ATOM      5  C   UNL A   1     -22.423   0.842  28.586  0.00  0.00    -0.000 A 
ATOM      6  C   UNL A   1     -23.441   0.742  27.695  0.00  0.00    -0.004 A 
ENDROOT
BRANCH   2   7
ATOM      7  C   UNL A   1     -24.666  -2.661  28.780  0.00  0.00    -0.000 A 
ATOM      8  C   UNL A   1     -24.000  -3.834  28.499  0.00  0.00    -0.000 A 
ATOM      9  C   UNL A   1     -24.593  -5.040  28.850  0.00  0.00    -0.000 A 
ATOM     10  C   UNL A   1     -25.826  -5.063  29.541  0.00  0.00    -0.000 A 
ATOM     11  C   UNL A   1     -26.447  -3.887  29.893  0.00  0.00    -0.000 A 
ATOM     12  C   UNL A   1     -25.829  -2.662  29.567  0.00  0.00    -0.000 A 
ENDBRANCH   2   7
BRANCH   1  13
ATOM     13  C   UNL A   1     -25.277  -0.563  26.933  0.00  0.00    +0.054 C 
BRANCH  13  14
ATOM     14  C   UNL A   1     -26.233   0.295  26.803  0.00  0.00    +0.187 C 
ATOM     15 CL   UNL A   1     -27.541   0.188  27.922  0.00  0.00    -0.102 Cl
BRANCH  14  17
ATOM     16  O   UNL A   1     -27.992   0.485  25.367  0.00  0.00    -0.244 OA
ATOM     17  C   UNL A   1     -26.855   0.359  25.452  0.00  0.00    +0.380 C 
ATOM     18  O   UNL A   1     -26.094   0.308  24.465  0.00  0.00    -0.244 OA
ENDBRANCH  14  17
ENDBRANCH  13  14
ENDBRANCH   1  13
TORSDOF 4
ENDMDL
ENDMDL
