REMARK  Name = No_1892-gen_results/8p0m/2024-11-26-14-13-15/
REMARK  3 active torsions:
REMARK  status: ('A' for Active; 'I' for Inactive)
REMARK    1  A    between atoms: C_2  and  C_7
REMARK    2  A    between atoms: C_3  and  C_11
REMARK    3  A    between atoms: C_11  and  C_12
REMARK                            x       y       z     vdW  Elec       q    Type
REMARK                         _______ _______ _______ _____ _____    ______ ____
ROOT
ATOM      1  C   UNL A   1     -28.016  -0.814  28.878  0.00  0.00    +0.008 A 
ATOM      2  C   UNL A   1     -28.469  -0.785  29.829  0.00  0.00    +0.072 A 
ATOM      3  C   UNL A   1     -26.504  -0.778  28.877  0.00  0.00    +0.050 A 
ATOM      4  C   UNL A   1     -25.810  -0.853  30.103  0.00  0.00    +0.061 A 
ATOM      5  C   UNL A   1     -27.991  -0.892  31.226  0.00  0.00    +0.005 A 
ATOM      6  C   UNL A   1     -26.604  -0.868  31.265  0.00  0.00    +0.011 A 
ATOM      7 CL   UNL A   1     -24.176  -0.904  30.240  0.00  0.00    -0.082 Cl
ENDROOT
BRANCH   2   8
ATOM      8  C   UNL A   1     -30.074  -0.836  29.861  0.00  0.00    +0.419 C 
ATOM      9  F   UNL A   1     -30.592  -1.828  30.096  0.00  0.00    -0.166 F 
ATOM     10  F   UNL A   1     -30.413  -0.387  28.612  0.00  0.00    -0.166 F 
ATOM     11  F   UNL A   1     -30.535   0.155  30.642  0.00  0.00    -0.166 F 
ENDBRANCH   2   8
BRANCH   3  12
ATOM     12  C   UNL A   1     -25.629  -0.716  27.675  0.00  0.00    +0.199 C 
ATOM     13  O   UNL A   1     -25.617  -1.620  26.910  0.00  0.00    -0.286 OA
BRANCH  12  14
ATOM     14  C   UNL A   1     -25.238   0.655  27.332  0.00  0.00    +0.066 A 
ATOM     15  C   UNL A   1     -25.544   1.181  26.131  0.00  0.00    +0.143 A 
ATOM     16  C   UNL A   1     -25.041   2.449  25.761  0.00  0.00    +0.030 A 
ATOM     17  C   UNL A   1     -24.226   3.164  26.730  0.00  0.00    +0.002 A 
ATOM     18  C   UNL A   1     -24.397   1.441  28.147  0.00  0.00    +0.005 A 
ATOM     19  C   UNL A   1     -23.856   2.595  27.821  0.00  0.00    +0.000 A 
ATOM     20  F   UNL A   1     -26.270   0.609  25.261  0.00  0.00    -0.204 F 
ENDBRANCH  12  14
ENDBRANCH   3  12
TORSDOF 3
