MODEL 1892
MODEL 1
REMARK VINA RESULT:    -8.131      0.000      0.000
REMARK INTER + INTRA:         -10.325
REMARK INTER:                  -9.557
REMARK INTRA:                  -0.767
REMARK UNBOUND:                -0.767
REMARK  Name = No_1892-gen_results/8p0m/2024-11-26-14-13-15/
REMARK  3 active torsions:
REMARK  status: ('A' for Active; 'I' for Inactive)
REMARK    1  A    between atoms: C_2  and  C_7
REMARK    2  A    between atoms: C_3  and  C_11
REMARK    3  A    between atoms: C_11  and  C_12
REMARK                            x       y       z     vdW  Elec       q    Type
REMARK                         _______ _______ _______ _____ _____    ______ ____
ROOT
ATOM      1  C   UNL A   1     -25.379  -0.492  27.123  0.00  0.00    +0.008 A 
ATOM      2  C   UNL A   1     -24.912   0.075  26.367  0.00  0.00    +0.072 A 
ATOM      3  C   UNL A   1     -24.822  -0.302  28.516  0.00  0.00    +0.050 A 
ATOM      4  C   UNL A   1     -23.846   0.692  28.741  0.00  0.00    +0.061 A 
ATOM      5  C   UNL A   1     -23.925   1.178  26.338  0.00  0.00    +0.005 A 
ATOM      6  C   UNL A   1     -23.395   1.386  27.603  0.00  0.00    +0.011 A 
ATOM      7 CL   UNL A   1     -23.218   1.056  30.212  0.00  0.00    -0.082 Cl
ENDROOT
BRANCH   2   8
ATOM      8  C   UNL A   1     -25.492  -0.096  24.880  0.00  0.00    +0.419 C 
ATOM      9  F   UNL A   1     -25.897  -1.116  24.557  0.00  0.00    -0.166 F 
ATOM     10  F   UNL A   1     -24.431   0.282  24.099  0.00  0.00    -0.166 F 
ATOM     11  F   UNL A   1     -26.377   0.884  24.632  0.00  0.00    -0.166 F 
ENDBRANCH   2   8
BRANCH   3  12
ATOM     12  C   UNL A   1     -25.238  -1.046  29.736  0.00  0.00    +0.199 C 
ATOM     13  O   UNL A   1     -25.930  -0.517  30.539  0.00  0.00    -0.286 OA
BRANCH  12  14
ATOM     14  C   UNL A   1     -25.131  -2.500  29.574  0.00  0.00    +0.066 A 
ATOM     15  C   UNL A   1     -24.022  -3.057  29.054  0.00  0.00    +0.143 A 
ATOM     16  C   UNL A   1     -23.986  -4.442  28.774  0.00  0.00    +0.030 A 
ATOM     17  C   UNL A   1     -25.164  -5.230  29.101  0.00  0.00    +0.002 A 
ATOM     18  C   UNL A   1     -26.212  -3.379  29.793  0.00  0.00    +0.005 A 
ATOM     19  C   UNL A   1     -26.246  -4.659  29.491  0.00  0.00    +0.000 A 
ATOM     20  F   UNL A   1     -22.961  -2.419  28.773  0.00  0.00    -0.204 F 
ENDBRANCH  12  14
ENDBRANCH   3  12
TORSDOF 3
ENDMDL
ENDMDL
