MODEL 1893
MODEL 1
REMARK VINA RESULT:    -7.148      0.000      0.000
REMARK INTER + INTRA:          -8.833
REMARK INTER:                  -7.984
REMARK INTRA:                  -0.849
REMARK UNBOUND:                -0.849
REMARK  Name = No_1893-gen_results/8p0m/2024-11-26-14-13-15/
REMARK  2 active torsions:
REMARK  status: ('A' for Active; 'I' for Inactive)
REMARK    1  A    between atoms: C_3  and  C_7
REMARK    2  A    between atoms: C_8  and  C_13
REMARK                            x       y       z     vdW  Elec       q    Type
REMARK                         _______ _______ _______ _____ _____    ______ ____
ROOT
ATOM      1  C   UNL A   1     -23.472   0.677  27.419  0.00  0.00    -0.000 A 
ATOM      2  C   UNL A   1     -23.166  -0.364  28.288  0.00  0.00    -0.000 A 
ATOM      3  C   UNL A   1     -22.555   1.649  27.091  0.00  0.00    -0.000 A 
ATOM      4  C   UNL A   1     -21.241   1.492  27.451  0.00  0.00    -0.000 A 
ATOM      5  C   UNL A   1     -21.890  -0.346  28.935  0.00  0.00    -0.000 A 
ATOM      6  C   UNL A   1     -20.951   0.580  28.461  0.00  0.00    -0.000 A 
ENDROOT
BRANCH   1   9
ATOM      7  C   UNL A   1     -25.108   0.020  25.538  0.00  0.00    -0.000 A 
ATOM      8  C   UNL A   1     -26.127   0.024  25.267  0.00  0.00    -0.000 A 
ATOM      9  C   UNL A   1     -24.847   0.627  26.843  0.00  0.00    -0.004 A 
ATOM     10  C   UNL A   1     -25.854   1.129  27.630  0.00  0.00    -0.022 A 
ATOM     11  C   UNL A   1     -27.377   0.470  25.882  0.00  0.00    -0.000 A 
ATOM     12  C   UNL A   1     -27.135   1.058  27.146  0.00  0.00    -0.004 A 
ATOM     13  C   UNL A   1     -25.629   2.700  27.917  0.00  0.00    +0.031 C 
ENDBRANCH   1   9
BRANCH   2  14
ATOM     14  C   UNL A   1     -24.083  -1.335  28.810  0.00  0.00    -0.004 A 
ATOM     15  C   UNL A   1     -24.487  -2.337  28.565  0.00  0.00    -0.000 A 
ATOM     16  C   UNL A   1     -25.378  -3.272  29.234  0.00  0.00    -0.000 A 
ATOM     17  C   UNL A   1     -26.130  -2.621  30.229  0.00  0.00    -0.000 A 
ATOM     18  C   UNL A   1     -25.766  -1.413  30.744  0.00  0.00    -0.004 A 
ATOM     19  C   UNL A   1     -24.756  -0.667  30.093  0.00  0.00    -0.022 A 
ATOM     20  C   UNL A   1     -23.664  -0.319  31.238  0.00  0.00    +0.031 C 
ENDBRANCH   2  14
TORSDOF 2
ENDMDL
ENDMDL
