REMARK  Name = No_1893-gen_results/8p0m/2024-11-26-14-13-15/
REMARK  2 active torsions:
REMARK  status: ('A' for Active; 'I' for Inactive)
REMARK    1  A    between atoms: C_3  and  C_7
REMARK    2  A    between atoms: C_8  and  C_13
REMARK                            x       y       z     vdW  Elec       q    Type
REMARK                         _______ _______ _______ _____ _____    ______ ____
ROOT
ATOM      1  C   UNL A   1     -26.317   0.399  27.365  0.00  0.00    -0.000 A 
ATOM      2  C   UNL A   1     -24.941   0.255  27.503  0.00  0.00    -0.000 A 
ATOM      3  C   UNL A   1     -26.913   0.586  26.140  0.00  0.00    -0.000 A 
ATOM      4  C   UNL A   1     -26.177   0.419  24.994  0.00  0.00    -0.000 A 
ATOM      5  C   UNL A   1     -24.128   0.417  26.337  0.00  0.00    -0.000 A 
ATOM      6  C   UNL A   1     -24.791   0.464  25.103  0.00  0.00    -0.000 A 
ENDROOT
BRANCH   1   9
ATOM      7  C   UNL A   1     -28.016  -0.814  28.878  0.00  0.00    -0.000 A 
ATOM      8  C   UNL A   1     -28.469  -0.785  29.829  0.00  0.00    -0.000 A 
ATOM      9  C   UNL A   1     -27.087   0.290  28.638  0.00  0.00    -0.004 A 
ATOM     10  C   UNL A   1     -26.832   1.249  29.587  0.00  0.00    -0.022 A 
ATOM     11  C   UNL A   1     -28.391   0.080  31.006  0.00  0.00    -0.000 A 
ATOM     12  C   UNL A   1     -27.494   1.152  30.784  0.00  0.00    -0.004 A 
ATOM     13  C   UNL A   1     -27.223   2.716  29.040  0.00  0.00    +0.031 C 
ENDBRANCH   1   9
BRANCH   2  14
ATOM     14  C   UNL A   1     -24.209   0.206  28.735  0.00  0.00    -0.004 A 
ATOM     15  C   UNL A   1     -23.408  -0.383  29.223  0.00  0.00    -0.000 A 
ATOM     16  C   UNL A   1     -22.683  -0.280  30.480  0.00  0.00    -0.000 A 
ATOM     17  C   UNL A   1     -23.377   0.535  31.392  0.00  0.00    -0.000 A 
ATOM     18  C   UNL A   1     -24.348   1.407  30.998  0.00  0.00    -0.004 A 
ATOM     19  C   UNL A   1     -24.857   1.315  29.682  0.00  0.00    -0.022 A 
ATOM     20  C   UNL A   1     -24.717   2.803  29.055  0.00  0.00    +0.031 C 
ENDBRANCH   2  14
TORSDOF 2
