REMARK  Name = No_1894-gen_results/8p0m/2024-11-26-14-13-15/
REMARK  3 active torsions:
REMARK  status: ('A' for Active; 'I' for Inactive)
REMARK    1  A    between atoms: C_2  and  C_5
REMARK    2  A    between atoms: C_3  and  C_10
REMARK    3  A    between atoms: C_10  and  C_11
REMARK                            x       y       z     vdW  Elec       q    Type
REMARK                         _______ _______ _______ _____ _____    ______ ____
ROOT
ATOM      1  C   UNL A   1     -28.016  -0.814  28.878  0.00  0.00    +0.003 A 
ATOM      2  C   UNL A   1     -28.469  -0.785  29.829  0.00  0.00    +0.080 A 
ATOM      3  C   UNL A   1     -26.504  -0.778  28.877  0.00  0.00    -0.018 A 
ATOM      4  C   UNL A   1     -25.810  -0.853  30.103  0.00  0.00    -0.004 A 
ATOM      5  C   UNL A   1     -26.567  -0.885  31.252  0.00  0.00    -0.000 A 
ATOM      6  C   UNL A   1     -27.941  -0.907  31.185  0.00  0.00    +0.007 A 
ENDROOT
BRANCH   2   7
ATOM      7  C   UNL A   1     -30.014  -0.841  29.851  0.00  0.00    +0.388 C 
ATOM      8  O   UNL A   1     -30.649  -0.057  30.676  0.00  0.00    -0.241 OA
ATOM      9  O   UNL A   1     -30.603  -1.602  29.040  0.00  0.00    -0.241 OA
ENDBRANCH   2   7
BRANCH   3  10
ATOM     10  C   UNL A   1     -25.639  -0.716  27.671  0.00  0.00    +0.053 C 
BRANCH  10  11
ATOM     11  C   UNL A   1     -25.299   0.661  27.303  0.00  0.00    -0.018 A 
ATOM     12  C   UNL A   1     -25.513   1.100  26.040  0.00  0.00    -0.004 A 
ATOM     13  C   UNL A   1     -25.119   2.412  25.641  0.00  0.00    -0.000 A 
ATOM     14  C   UNL A   1     -24.436   3.234  26.639  0.00  0.00    -0.000 A 
ATOM     15  C   UNL A   1     -24.600   1.581  28.095  0.00  0.00    -0.004 A 
ATOM     16  C   UNL A   1     -24.177   2.783  27.806  0.00  0.00    -0.000 A 
ENDBRANCH  10  11
ENDBRANCH   3  10
TORSDOF 3
