MODEL 1894
MODEL 1
REMARK VINA RESULT:    -6.761      0.000      0.000
REMARK INTER + INTRA:          -8.621
REMARK INTER:                  -7.947
REMARK INTRA:                  -0.674
REMARK UNBOUND:                -0.674
REMARK  Name = No_1894-gen_results/8p0m/2024-11-26-14-13-15/
REMARK  3 active torsions:
REMARK  status: ('A' for Active; 'I' for Inactive)
REMARK    1  A    between atoms: C_2  and  C_5
REMARK    2  A    between atoms: C_3  and  C_10
REMARK    3  A    between atoms: C_10  and  C_11
REMARK                            x       y       z     vdW  Elec       q    Type
REMARK                         _______ _______ _______ _____ _____    ______ ____
ROOT
ATOM      1  C   UNL A   1     -25.035  -0.302  27.455  0.00  0.00    +0.003 A 
ATOM      2  C   UNL A   1     -24.722   0.312  26.659  0.00  0.00    +0.080 A 
ATOM      3  C   UNL A   1     -24.103  -0.348  28.646  0.00  0.00    -0.018 A 
ATOM      4  C   UNL A   1     -22.987   0.513  28.683  0.00  0.00    -0.004 A 
ATOM      5  C   UNL A   1     -22.770   1.308  27.581  0.00  0.00    -0.000 A 
ATOM      6  C   UNL A   1     -23.652   1.297  26.525  0.00  0.00    +0.007 A 
ENDROOT
BRANCH   2   7
ATOM      7  C   UNL A   1     -25.671   0.387  25.441  0.00  0.00    +0.388 C 
ATOM      8  O   UNL A   1     -26.683   1.208  25.495  0.00  0.00    -0.241 OA
ATOM      9  O   UNL A   1     -25.407  -0.306  24.424  0.00  0.00    -0.241 OA
ENDBRANCH   2   7
BRANCH   3  10
ATOM     10  C   UNL A   1     -24.273  -1.205  29.847  0.00  0.00    +0.053 C 
BRANCH  10  11
ATOM     11  C   UNL A   1     -24.658  -2.576  29.501  0.00  0.00    -0.018 A 
ATOM     12  C   UNL A   1     -25.824  -3.091  29.957  0.00  0.00    -0.004 A 
ATOM     13  C   UNL A   1     -26.180  -4.448  29.695  0.00  0.00    -0.000 A 
ATOM     14  C   UNL A   1     -25.213  -5.259  28.958  0.00  0.00    -0.000 A 
ATOM     15  C   UNL A   1     -23.855  -3.521  28.850  0.00  0.00    -0.004 A 
ATOM     16  C   UNL A   1     -24.086  -4.781  28.593  0.00  0.00    -0.000 A 
ENDBRANCH  10  11
ENDBRANCH   3  10
TORSDOF 3
ENDMDL
ENDMDL
