REMARK  Name = No_1895-gen_results/8p0m/2024-11-26-14-13-15/
REMARK  4 active torsions:
REMARK  status: ('A' for Active; 'I' for Inactive)
REMARK    1  A    between atoms: C_5  and  C_14
REMARK    2  A    between atoms: C_7  and  C_18
REMARK    3  A    between atoms: C_18  and  O_20
REMARK    4  A    between atoms: O_20  and  C_30
REMARK                            x       y       z     vdW  Elec       q    Type
REMARK                         _______ _______ _______ _____ _____    ______ ____
ROOT
ATOM      1  C   UNL A   1     -28.016  -0.814  28.878  0.00  0.00    -0.000 C 
ATOM      2  C   UNL A   1     -27.064  -0.119  28.608  0.00  0.00    +0.027 C 
ATOM      3  C   UNL A   1     -25.765  -0.390  29.036  0.00  0.00    +0.168 C 
ATOM      4  C   UNL A   1     -24.552   0.406  28.765  0.00  0.00    +0.082 C 
ATOM      5  C   UNL A   1     -24.696   1.448  27.799  0.00  0.00    +0.104 C 
ATOM      6  C   UNL A   1     -25.976   1.725  27.308  0.00  0.00    +0.025 C 
ATOM      7  C   UNL A   1     -27.072   1.013  27.654  0.00  0.00    +0.125 C 
ATOM      8  C   UNL A   1     -28.604  -0.474  30.232  0.00  0.00    +0.003 A 
ATOM      9  C   UNL A   1     -29.632  -0.505  30.601  0.00  0.00    +0.000 A 
ATOM     10  C   UNL A   1     -30.108  -0.174  31.967  0.00  0.00    +0.003 A 
ATOM     11  C   UNL A   1     -29.162   0.161  32.907  0.00  0.00    +0.037 A 
ATOM     12  C   UNL A   1     -27.810   0.127  32.528  0.00  0.00    +0.145 A 
ATOM     13  C   UNL A   1     -27.424  -0.154  31.338  0.00  0.00    +0.037 A 
ATOM     14  O   UNL A   1     -26.854   0.442  33.450  0.00  0.00    -0.450 OA
ATOM     15  C   UNL A   1     -25.618   0.206  33.124  0.00  0.00    +0.179 C 
ATOM     16  C   UNL A   1     -25.253  -0.753  32.958  0.00  0.00    +0.040 C 
ATOM     17  C   UNL A   1     -23.924  -0.980  32.310  0.00  0.00    -0.001 C 
ATOM     18  C   UNL A   1     -23.404  -2.148  31.905  0.00  0.00    -0.013 C 
ATOM     19  C   UNL A   1     -23.733  -2.074  30.596  0.00  0.00    +0.155 C 
ATOM     20  N   UNL A   1     -25.510  -1.415  29.931  0.00  0.00    -0.039 NA
ATOM     21  C   UNL A   1     -24.315  -1.787  29.907  0.00  0.00    +0.407 C 
ATOM     22  N   UNL A   1     -24.143  -2.227  28.586  0.00  0.00    +0.195 NA
ENDROOT
BRANCH   5  23
ATOM     23  C   UNL A   1     -23.498   2.206  27.444  0.00  0.00    +0.398 C 
ATOM     24  F   UNL A   1     -23.726   3.128  26.669  0.00  0.00    -0.170 F 
ATOM     25  F   UNL A   1     -22.530   1.418  26.793  0.00  0.00    -0.170 F 
ATOM     26  F   UNL A   1     -22.879   2.726  28.509  0.00  0.00    -0.170 F 
ENDBRANCH   5  23
BRANCH   7  27
ATOM     27  C   UNL A   1     -28.372   1.415  27.073  0.00  0.00    +0.325 C 
ATOM     28  O   UNL A   1     -28.682   1.397  26.007  0.00  0.00    -0.249 OA
BRANCH  27  29
ATOM     29  O   UNL A   1     -29.382   1.456  28.039  0.00  0.00    -0.424 OA
BRANCH  29  30
ATOM     30  C   UNL A   1     -29.787   2.701  28.262  0.00  0.00    +0.148 A 
ATOM     31  C   UNL A   1     -29.269   3.301  29.064  0.00  0.00    +0.038 A 
ATOM     32  C   UNL A   1     -29.680   4.675  29.480  0.00  0.00    +0.003 A 
ATOM     33  C   UNL A   1     -30.833   5.145  28.899  0.00  0.00    +0.000 A 
ATOM     34  C   UNL A   1     -30.972   3.050  27.564  0.00  0.00    +0.038 A 
ATOM     35  C   UNL A   1     -31.497   4.346  27.919  0.00  0.00    +0.003 A 
ENDBRANCH  29  30
ENDBRANCH  27  29
ENDBRANCH   7  27
TORSDOF 4
