MODEL 1895
MODEL 1
REMARK VINA RESULT:    -8.666      0.000      0.000
REMARK INTER + INTRA:         -12.077
REMARK INTER:                 -10.693
REMARK INTRA:                  -1.384
REMARK UNBOUND:                -1.384
REMARK  Name = No_1895-gen_results/8p0m/2024-11-26-14-13-15/
REMARK  4 active torsions:
REMARK  status: ('A' for Active; 'I' for Inactive)
REMARK    1  A    between atoms: C_5  and  C_14
REMARK    2  A    between atoms: C_7  and  C_18
REMARK    3  A    between atoms: C_18  and  O_20
REMARK    4  A    between atoms: O_20  and  C_30
REMARK                            x       y       z     vdW  Elec       q    Type
REMARK                         _______ _______ _______ _____ _____    ______ ____
ROOT
ATOM      1  C   UNL A   1     -23.712   1.408  30.370  0.00  0.00    -0.000 C 
ATOM      2  C   UNL A   1     -24.135   1.123  29.274  0.00  0.00    +0.027 C 
ATOM      3  C   UNL A   1     -24.906   1.986  28.496  0.00  0.00    +0.168 C 
ATOM      4  C   UNL A   1     -25.472   1.718  27.160  0.00  0.00    +0.082 C 
ATOM      5  C   UNL A   1     -25.012   0.528  26.518  0.00  0.00    +0.104 C 
ATOM      6  C   UNL A   1     -24.198  -0.346  27.246  0.00  0.00    +0.025 C 
ATOM      7  C   UNL A   1     -23.774  -0.089  28.504  0.00  0.00    +0.125 C 
ATOM      8  C   UNL A   1     -24.734   1.156  31.459  0.00  0.00    +0.003 A 
ATOM      9  C   UNL A   1     -24.618   0.842  32.499  0.00  0.00    +0.000 A 
ATOM     10  C   UNL A   1     -25.691   0.646  33.505  0.00  0.00    +0.003 A 
ATOM     11  C   UNL A   1     -26.980   0.937  33.125  0.00  0.00    +0.037 A 
ATOM     12  C   UNL A   1     -27.192   1.439  31.830  0.00  0.00    +0.145 A 
ATOM     13  C   UNL A   1     -26.249   1.591  30.976  0.00  0.00    +0.037 A 
ATOM     14  O   UNL A   1     -28.463   1.748  31.438  0.00  0.00    -0.450 OA
ATOM     15  C   UNL A   1     -28.595   2.393  30.317  0.00  0.00    +0.179 C 
ATOM     16  C   UNL A   1     -28.234   3.357  30.177  0.00  0.00    +0.040 C 
ATOM     17  C   UNL A   1     -28.138   3.963  28.813  0.00  0.00    -0.001 C 
ATOM     18  C   UNL A   1     -27.560   5.125  28.476  0.00  0.00    -0.013 C 
ATOM     19  C   UNL A   1     -26.368   4.645  28.057  0.00  0.00    +0.155 C 
ATOM     20  N   UNL A   1     -25.358   3.191  29.006  0.00  0.00    -0.039 NA
ATOM     21  C   UNL A   1     -25.672   4.005  28.109  0.00  0.00    +0.407 C 
ATOM     22  N   UNL A   1     -24.473   4.183  27.403  0.00  0.00    +0.195 NA
ENDROOT
BRANCH   5  23
ATOM     23  C   UNL A   1     -25.487   0.269  25.161  0.00  0.00    +0.398 C 
ATOM     24  F   UNL A   1     -25.993  -0.840  25.033  0.00  0.00    -0.170 F 
ATOM     25  F   UNL A   1     -24.453   0.307  24.207  0.00  0.00    -0.170 F 
ATOM     26  F   UNL A   1     -26.388   1.167  24.747  0.00  0.00    -0.170 F 
ENDBRANCH   5  23
BRANCH   7  27
ATOM     27  C   UNL A   1     -22.926  -1.101  29.170  0.00  0.00    +0.325 C 
ATOM     28  O   UNL A   1     -21.833  -1.262  29.058  0.00  0.00    -0.249 OA
BRANCH  27  29
ATOM     29  O   UNL A   1     -23.543  -1.626  30.310  0.00  0.00    -0.424 OA
BRANCH  29  30
ATOM     30  C   UNL A   1     -24.506  -2.482  29.987  0.00  0.00    +0.148 A 
ATOM     31  C   UNL A   1     -25.542  -2.308  30.398  0.00  0.00    +0.038 A 
ATOM     32  C   UNL A   1     -26.692  -3.237  30.190  0.00  0.00    +0.003 A 
ATOM     33  C   UNL A   1     -26.390  -4.414  29.550  0.00  0.00    +0.000 A 
ATOM     34  C   UNL A   1     -24.041  -3.632  29.299  0.00  0.00    +0.038 A 
ATOM     35  C   UNL A   1     -25.059  -4.631  29.080  0.00  0.00    +0.003 A 
ENDBRANCH  29  30
ENDBRANCH  27  29
ENDBRANCH   7  27
TORSDOF 4
ENDMDL
ENDMDL
