MODEL 1896
MODEL 1
REMARK VINA RESULT:    -6.523      0.000      0.000
REMARK INTER + INTRA:          -6.758
REMARK INTER:                  -6.904
REMARK INTRA:                   0.147
REMARK UNBOUND:                 0.147
REMARK  Name = No_1896-gen_results/8p0m/2024-11-26-14-13-15/
REMARK  1 active torsions:
REMARK  status: ('A' for Active; 'I' for Inactive)
REMARK    1  A    between atoms: C_2  and  C_7
REMARK                            x       y       z     vdW  Elec       q    Type
REMARK                         _______ _______ _______ _____ _____    ______ ____
ROOT
ATOM      1  C   UNL A   1     -23.501  -1.192  29.836  0.00  0.00    +0.249 C 
ATOM      2  O   UNL A   1     -23.051  -0.834  30.757  0.00  0.00    -0.270 OA
ATOM      3  N   UNL A   1     -23.347  -0.527  28.616  0.00  0.00    -0.276 N 
ATOM      4  C   UNL A   1     -22.593   0.678  28.591  0.00  0.00    +0.094 C 
ATOM      5  C   UNL A   1     -24.510  -0.428  27.772  0.00  0.00    +0.094 C 
ATOM      6  C   UNL A   1     -24.594   0.366  26.950  0.00  0.00    +0.022 C 
ATOM      7  C   UNL A   1     -22.590   1.478  27.461  0.00  0.00    +0.022 C 
ATOM      8  C   UNL A   1     -23.653   1.351  26.627  0.00  0.00    +0.004 C 
ENDROOT
BRANCH   1  10
ATOM      9  C   UNL A   1     -25.451  -2.323  30.181  0.00  0.00    +0.016 A 
ATOM     10  C   UNL A   1     -24.526  -2.419  29.685  0.00  0.00    +0.054 A 
ATOM     11  C   UNL A   1     -26.393  -3.498  30.033  0.00  0.00    +0.058 A 
ATOM     12  C   UNL A   1     -25.942  -4.668  29.388  0.00  0.00    +0.011 A 
ATOM     13  C   UNL A   1     -23.812  -3.515  28.992  0.00  0.00    +0.005 A 
ATOM     14  C   UNL A   1     -24.645  -4.615  28.842  0.00  0.00    +0.001 A 
ATOM     15 CL   UNL A   1     -27.991  -3.506  30.636  0.00  0.00    -0.082 Cl
ENDBRANCH   1  10
TORSDOF 1
ENDMDL
ENDMDL
