REMARK  Name = No_1897-gen_results/8p0m/2024-11-26-14-13-15/
REMARK  2 active torsions:
REMARK  status: ('A' for Active; 'I' for Inactive)
REMARK    1  A    between atoms: C_4  and  C_8
REMARK    2  A    between atoms: C_11  and  C_14
REMARK                            x       y       z     vdW  Elec       q    Type
REMARK                         _______ _______ _______ _____ _____    ______ ____
ROOT
ATOM      1  C   UNL A   1     -24.380  -0.802  30.142  0.00  0.00    +0.000 A 
ATOM      2  C   UNL A   1     -23.662  -1.365  30.715  0.00  0.00    +0.000 A 
ATOM      3  C   UNL A   1     -23.762   0.228  29.222  0.00  0.00    +0.002 A 
ATOM      4  C   UNL A   1     -22.378   0.326  29.134  0.00  0.00    +0.021 A 
ATOM      5  C   UNL A   1     -22.214  -1.319  30.840  0.00  0.00    +0.000 A 
ATOM      6  C   UNL A   1     -21.621  -0.467  29.881  0.00  0.00    +0.002 A 
ENDROOT
BRANCH   1  10
ATOM      7  C   UNL A   1     -28.016  -0.814  28.878  0.00  0.00    +0.030 A 
ATOM      8  C   UNL A   1     -28.469  -0.785  29.829  0.00  0.00    +0.140 A 
ATOM      9  C   UNL A   1     -26.504  -0.778  28.877  0.00  0.00    +0.002 A 
ATOM     10  C   UNL A   1     -25.810  -0.853  30.103  0.00  0.00    +0.000 A 
ATOM     11  C   UNL A   1     -27.991  -0.892  31.226  0.00  0.00    +0.030 A 
ATOM     12  C   UNL A   1     -26.604  -0.868  31.265  0.00  0.00    +0.002 A 
ATOM     13  F   UNL A   1     -29.920  -0.833  29.824  0.00  0.00    -0.204 F 
ENDBRANCH   1  10
BRANCH   4  14
ATOM     14  C   UNL A   1     -21.804   1.245  28.111  0.00  0.00    +0.122 C 
ATOM     15  N   UNL A   1     -22.071   2.060  27.416  0.00  0.00    -0.146 NA
ENDBRANCH   4  14
TORSDOF 2
