MODEL 1898
MODEL 1
REMARK VINA RESULT:    -6.985      0.000      0.000
REMARK INTER + INTRA:         -10.671
REMARK INTER:                  -9.435
REMARK INTRA:                  -1.236
REMARK UNBOUND:                -1.236
REMARK  Name = No_1898-gen_results/8p0m/2024-11-26-14-13-15/
REMARK  6 active torsions:
REMARK  status: ('A' for Active; 'I' for Inactive)
REMARK    1  A    between atoms: C_3  and  C_7
REMARK    2  A    between atoms: N_8  and  C_10
REMARK    3  A    between atoms: C_10  and  C_13
REMARK    4  A    between atoms: C_13  and  C_14
REMARK    5  A    between atoms: C_14  and  C_15
REMARK    6  A    between atoms: C_15  and  C_16
REMARK                            x       y       z     vdW  Elec       q    Type
REMARK                         _______ _______ _______ _____ _____    ______ ____
ROOT
ATOM      1  C   UNL A   1     -26.781   1.256  27.740  0.00  0.00    +0.094 C 
ENDROOT
BRANCH   1   3
ATOM      2  C   UNL A   1     -25.495   3.043  28.306  0.00  0.00    +0.249 C 
ATOM      3  N   UNL A   1     -26.464   2.533  28.405  0.00  0.00    -0.274 N 
ATOM      4  O   UNL A   1     -25.343   4.234  28.978  0.00  0.00    -0.270 OA
ATOM      5  C   UNL A   1     -27.642   3.074  29.149  0.00  0.00    +0.115 C 
BRANCH   2   8
ATOM      6  C   UNL A   1     -24.289   2.917  26.074  0.00  0.00    +0.005 A 
ATOM      7  C   UNL A   1     -23.393   2.675  25.576  0.00  0.00    +0.001 A 
ATOM      8  C   UNL A   1     -24.265   2.604  27.508  0.00  0.00    +0.054 A 
ATOM      9  C   UNL A   1     -23.274   1.913  28.073  0.00  0.00    +0.016 A 
ATOM     10  C   UNL A   1     -22.222   1.925  25.960  0.00  0.00    +0.011 A 
ATOM     11  C   UNL A   1     -22.229   1.622  27.289  0.00  0.00    +0.058 A 
ATOM     12 CL   UNL A   1     -20.910   0.727  27.968  0.00  0.00    -0.082 Cl
ENDBRANCH   2   8
ENDBRANCH   1   3
BRANCH   1  13
ATOM     13  C   UNL A   1     -26.679   0.076  28.586  0.00  0.00    +0.027 C 
BRANCH  13  14
ATOM     14  C   UNL A   1     -25.602  -0.694  28.252  0.00  0.00    +0.070 C 
BRANCH  14  15
ATOM     15  C   UNL A   1     -25.019  -1.383  29.354  0.00  0.00    +0.276 C 
ATOM     16  F   UNL A   1     -23.810  -0.814  29.602  0.00  0.00    -0.202 F 
ATOM     17  O   UNL A   1     -25.827  -1.038  30.548  0.00  0.00    -0.185 OA
BRANCH  15  18
ATOM     18  C   UNL A   1     -24.859  -2.781  29.186  0.00  0.00    +0.036 A 
ATOM     19  C   UNL A   1     -24.088  -3.261  28.742  0.00  0.00    +0.001 A 
ATOM     20  C   UNL A   1     -23.946  -4.706  28.428  0.00  0.00    -0.000 A 
ATOM     21  C   UNL A   1     -24.882  -5.502  28.944  0.00  0.00    -0.000 A 
ATOM     22  C   UNL A   1     -25.988  -4.976  29.614  0.00  0.00    -0.000 A 
ATOM     23  C   UNL A   1     -26.002  -3.632  29.744  0.00  0.00    +0.001 A 
ENDBRANCH  15  18
ENDBRANCH  14  15
ENDBRANCH  13  14
ENDBRANCH   1  13
TORSDOF 6
ENDMDL
ENDMDL
