REMARK  Name = No_1898-gen_results/8p0m/2024-11-26-14-13-15/
REMARK  6 active torsions:
REMARK  status: ('A' for Active; 'I' for Inactive)
REMARK    1  A    between atoms: C_3  and  C_7
REMARK    2  A    between atoms: N_8  and  C_10
REMARK    3  A    between atoms: C_10  and  C_13
REMARK    4  A    between atoms: C_13  and  C_14
REMARK    5  A    between atoms: C_14  and  C_15
REMARK    6  A    between atoms: C_15  and  C_16
REMARK                            x       y       z     vdW  Elec       q    Type
REMARK                         _______ _______ _______ _____ _____    ______ ____
ROOT
ATOM      1  C   UNL A   1     -29.282   0.974  25.526  0.00  0.00    +0.094 C 
ENDROOT
BRANCH   1   3
ATOM      2  C   UNL A   1     -27.445   0.487  26.773  0.00  0.00    +0.249 C 
ATOM      3  N   UNL A   1     -27.855   0.699  25.775  0.00  0.00    -0.274 N 
ATOM      4  O   UNL A   1     -26.094   0.240  26.855  0.00  0.00    -0.270 OA
ATOM      5  C   UNL A   1     -27.070   0.662  24.503  0.00  0.00    +0.115 C 
BRANCH   2   8
ATOM      6  C   UNL A   1     -28.016  -0.814  28.878  0.00  0.00    +0.005 A 
ATOM      7  C   UNL A   1     -28.469  -0.785  29.829  0.00  0.00    +0.001 A 
ATOM      8  C   UNL A   1     -28.182   0.428  28.113  0.00  0.00    +0.054 A 
ATOM      9  C   UNL A   1     -28.984   1.415  28.515  0.00  0.00    +0.016 A 
ATOM     10  C   UNL A   1     -29.380   0.138  30.461  0.00  0.00    +0.011 A 
ATOM     11  C   UNL A   1     -29.541   1.274  29.724  0.00  0.00    +0.058 A 
ATOM     12 CL   UNL A   1     -30.591   2.525  30.301  0.00  0.00    -0.082 Cl
ENDBRANCH   2   8
ENDBRANCH   1   3
BRANCH   1  13
ATOM     13  C   UNL A   1     -29.945   0.038  24.630  0.00  0.00    +0.027 C 
BRANCH  13  14
ATOM     14  C   UNL A   1     -30.644  -0.911  25.318  0.00  0.00    +0.070 C 
BRANCH  14  15
ATOM     15  C   UNL A   1     -32.054  -0.845  25.127  0.00  0.00    +0.276 C 
ATOM     16  F   UNL A   1     -32.424   0.458  25.233  0.00  0.00    -0.202 F 
ATOM     17  O   UNL A   1     -32.307  -1.172  23.703  0.00  0.00    -0.185 OA
BRANCH  15  18
ATOM     18  C   UNL A   1     -32.830  -1.631  26.015  0.00  0.00    +0.036 A 
ATOM     19  C   UNL A   1     -32.718  -1.716  27.016  0.00  0.00    +0.001 A 
ATOM     20  C   UNL A   1     -33.419  -2.626  27.959  0.00  0.00    -0.000 A 
ATOM     21  C   UNL A   1     -34.445  -3.305  27.447  0.00  0.00    -0.000 A 
ATOM     22  C   UNL A   1     -34.737  -3.255  26.083  0.00  0.00    -0.000 A 
ATOM     23  C   UNL A   1     -33.950  -2.436  25.352  0.00  0.00    +0.001 A 
ENDBRANCH  15  18
ENDBRANCH  14  15
ENDBRANCH  13  14
ENDBRANCH   1  13
TORSDOF 6
