MODEL 1899
MODEL 1
REMARK VINA RESULT:    -4.267      0.000      0.000
REMARK INTER + INTRA:          -4.267
REMARK INTER:                  -4.267
REMARK INTRA:                   0.000
REMARK UNBOUND:                 0.000
REMARK  Name = No_1899-gen_results/8p0m/2024-11-26-14-13-15/
REMARK  0 active torsions:
REMARK  status: ('A' for Active; 'I' for Inactive)
REMARK                            x       y       z     vdW  Elec       q    Type
REMARK                         _______ _______ _______ _____ _____    ______ ____
ROOT
ATOM      1  C   UNL A   1      -8.212  -9.690  20.290  0.00  0.00    +0.000 A 
ATOM      2  C   UNL A   1      -7.988 -10.153  19.371  0.00  0.00    +0.000 A 
ATOM      3  C   UNL A   1      -9.540  -9.078  20.329  0.00  0.00    +0.000 A 
ATOM      4  C   UNL A   1     -10.320  -9.230  19.487  0.00  0.00    +0.000 A 
ATOM      5  C   UNL A   1      -8.754 -10.446  18.175  0.00  0.00    +0.000 A 
ATOM      6  C   UNL A   1     -10.053  -9.878  18.277  0.00  0.00    +0.000 A 
ENDROOT
TORSDOF 0
ENDMDL
ENDMDL
