MODEL 189
MODEL 1
REMARK VINA RESULT:    -5.821      0.000      0.000
REMARK INTER + INTRA:          -6.117
REMARK INTER:                  -6.161
REMARK INTRA:                   0.044
REMARK UNBOUND:                 0.044
REMARK  Name = No_189-gen_results/8p0m/2024-11-26-14-13-15/
REMARK  1 active torsions:
REMARK  status: ('A' for Active; 'I' for Inactive)
REMARK    1  A    between atoms: C_2  and  C_7
REMARK                            x       y       z     vdW  Elec       q    Type
REMARK                         _______ _______ _______ _____ _____    ______ ____
ROOT
ATOM      1  C   UNL A   1     -22.535  -0.578  29.301  0.00  0.00    +0.249 C 
ATOM      2  O   UNL A   1     -21.961  -1.494  29.197  0.00  0.00    -0.270 OA
ATOM      3  N   UNL A   1     -22.988  -0.110  30.539  0.00  0.00    -0.276 N 
ATOM      4  C   UNL A   1     -22.706  -0.882  31.699  0.00  0.00    +0.094 C 
ATOM      5  C   UNL A   1     -23.729   1.127  30.742  0.00  0.00    +0.094 C 
ATOM      6  C   UNL A   1     -24.880   0.993  31.244  0.00  0.00    +0.022 C 
ATOM      7  C   UNL A   1     -24.919   0.281  32.557  0.00  0.00    +0.004 C 
ATOM      8  C   UNL A   1     -24.031  -0.950  32.508  0.00  0.00    +0.022 C 
ENDROOT
BRANCH   1  10
ATOM      9  C   UNL A   1     -24.032   0.043  27.697  0.00  0.00    +0.004 A 
ATOM     10  C   UNL A   1     -23.107   0.334  28.110  0.00  0.00    +0.054 A 
ATOM     11  C   UNL A   1     -24.542   0.911  26.568  0.00  0.00    +0.000 A 
ATOM     12  C   UNL A   1     -23.716   1.932  26.054  0.00  0.00    +0.000 A 
ATOM     13  C   UNL A   1     -22.054   1.310  27.749  0.00  0.00    +0.004 A 
ATOM     14  C   UNL A   1     -22.485   2.123  26.709  0.00  0.00    +0.000 A 
ENDBRANCH   1  10
TORSDOF 1
ENDMDL
ENDMDL
