MODEL 18
MODEL 1
REMARK VINA RESULT:    -6.064      0.000      0.000
REMARK INTER + INTRA:          -8.888
REMARK INTER:                  -8.191
REMARK INTRA:                  -0.697
REMARK UNBOUND:                -0.697
REMARK  Name = No_18-gen_results/8p0m/2024-11-26-14-13-15/
REMARK  6 active torsions:
REMARK  status: ('A' for Active; 'I' for Inactive)
REMARK    1  A    between atoms: C_1  and  C_2
REMARK    2  A    between atoms: C_3  and  O_19
REMARK    3  A    between atoms: C_5  and  C_10
REMARK    4  A    between atoms: N_11  and  C_13
REMARK    5  A    between atoms: C_13  and  C_14
REMARK    6  A    between atoms: O_19  and  C_20
REMARK                            x       y       z     vdW  Elec       q    Type
REMARK                         _______ _______ _______ _____ _____    ______ ____
ROOT
ATOM      1  C   UNL A   1     -22.686   0.150  28.473  0.00  0.00    +0.107 A 
ATOM      2  C   UNL A   1     -23.974  -0.261  28.594  0.00  0.00    +0.160 A 
ATOM      3  C   UNL A   1     -25.093   0.222  27.755  0.00  0.00    +0.096 A 
ATOM      4  C   UNL A   1     -24.782   1.209  26.764  0.00  0.00    +0.057 A 
ATOM      5  C   UNL A   1     -23.445   1.664  26.718  0.00  0.00    +0.005 A 
ATOM      6  C   UNL A   1     -22.457   1.169  27.530  0.00  0.00    +0.007 A 
ATOM      7 CL   UNL A   1     -26.618  -0.415  28.013  0.00  0.00    -0.079 Cl
ENDROOT
BRANCH   1   8
ATOM      8  C   UNL A   1     -21.780  -0.252  29.166  0.00  0.00    +0.421 C 
ATOM      9  F   UNL A   1     -21.952  -0.083  30.382  0.00  0.00    -0.166 F 
ATOM     10  F   UNL A   1     -20.517   0.355  28.850  0.00  0.00    -0.166 F 
ATOM     11  F   UNL A   1     -21.422  -1.503  28.900  0.00  0.00    -0.166 F 
ENDBRANCH   1   8
BRANCH   4  12
ATOM     12  C   UNL A   1     -25.757   1.773  25.909  0.00  0.00    +0.215 C 
ATOM     13  N   UNL A   1     -25.999   3.006  25.684  0.00  0.00    -0.149 NA
ATOM     14  F   UNL A   1     -25.905   1.077  24.838  0.00  0.00    -0.186 F 
BRANCH  13  15
ATOM     15  C   UNL A   1     -26.538   3.750  26.780  0.00  0.00    +0.281 C 
ATOM     16  O   UNL A   1     -27.312   3.127  27.620  0.00  0.00    -0.270 OA
BRANCH  15  17
ATOM     17  C   UNL A   1     -25.783   4.924  27.138  0.00  0.00    +0.268 C 
ATOM     18  O   UNL A   1     -24.672   4.670  27.845  0.00  0.00    -0.210 OA
ENDBRANCH  15  17
ENDBRANCH  13  15
ENDBRANCH   4  12
BRANCH   2  19
ATOM     19  O   UNL A   1     -24.237  -1.212  29.488  0.00  0.00    -0.450 OA
BRANCH  19  20
ATOM     20  C   UNL A   1     -24.604  -2.414  29.339  0.00  0.00    +0.175 C 
ATOM     21  C   UNL A   1     -24.042  -3.287  28.978  0.00  0.00    +0.015 C 
ATOM     22  C   UNL A   1     -24.497  -4.688  28.879  0.00  0.00    +0.034 C 
ENDBRANCH  19  20
ENDBRANCH   2  19
TORSDOF 6
ENDMDL
ENDMDL
