REMARK  Name = No_19-gen_results/8p0m/2024-11-26-14-13-15/
REMARK  2 active torsions:
REMARK  status: ('A' for Active; 'I' for Inactive)
REMARK    1  A    between atoms: C_4  and  C_7
REMARK    2  A    between atoms: C_7  and  C_8
REMARK                            x       y       z     vdW  Elec       q    Type
REMARK                         _______ _______ _______ _____ _____    ______ ____
ROOT
ATOM      1  C   UNL A   1     -28.016  -0.814  28.878  0.00  0.00    -0.000 A 
ATOM      2  C   UNL A   1     -28.469  -0.785  29.829  0.00  0.00    -0.000 A 
ATOM      3  C   UNL A   1     -26.546  -0.876  28.850  0.00  0.00    -0.004 A 
ATOM      4  C   UNL A   1     -25.804  -1.032  30.057  0.00  0.00    -0.018 A 
ATOM      5  C   UNL A   1     -26.411  -0.907  31.040  0.00  0.00    -0.004 A 
ATOM      6  C   UNL A   1     -27.798  -0.855  31.179  0.00  0.00    -0.000 A 
ENDROOT
BRANCH   4   7
ATOM      7  C   UNL A   1     -24.326  -1.102  29.925  0.00  0.00    +0.052 C 
BRANCH   7   8
ATOM      8  C   UNL A   1     -23.584   0.058  29.653  0.00  0.00    -0.026 C 
ATOM      9  C   UNL A   1     -22.348   0.015  29.052  0.00  0.00    -0.030 C 
ATOM     10  C   UNL A   1     -21.709   1.200  28.671  0.00  0.00    +0.030 C 
ENDBRANCH   7   8
ENDBRANCH   4   7
TORSDOF 2
