REMARK  Name = No_190-gen_results/8p0m/2024-11-26-14-13-15/
REMARK  7 active torsions:
REMARK  status: ('A' for Active; 'I' for Inactive)
REMARK    1  A    between atoms: C_2  and  C_3
REMARK    2  A    between atoms: C_7  and  C_10
REMARK    3  A    between atoms: N_11  and  C_13
REMARK    4  A    between atoms: N_11  and  C_14
REMARK    5  A    between atoms: C_13  and  C_15
REMARK    6  A    between atoms: C_19  and  C_20
REMARK    7  A    between atoms: C_20  and  C_21
REMARK                            x       y       z     vdW  Elec       q    Type
REMARK                         _______ _______ _______ _____ _____    ______ ____
ROOT
ATOM      1  C   UNL A   1     -26.458   2.663  33.198  0.00  0.00    +0.253 C 
ATOM      2  N   UNL A   1     -26.781   2.392  34.353  0.00  0.00    -0.246 N 
ATOM      3  O   UNL A   1     -25.829   3.795  32.901  0.00  0.00    -0.270 OA
ENDROOT
BRANCH   1   7
ATOM      4  C   UNL A   1     -26.959   0.093  29.758  0.00  0.00    +0.080 A 
ATOM      5  C   UNL A   1     -25.883   0.220  30.479  0.00  0.00    +0.007 A 
ATOM      6  C   UNL A   1     -25.591   0.971  31.563  0.00  0.00    +0.005 A 
ATOM      7  C   UNL A   1     -26.702   1.733  32.076  0.00  0.00    +0.054 A 
ATOM      8  C   UNL A   1     -27.908   1.584  31.383  0.00  0.00    +0.005 A 
ATOM      9  C   UNL A   1     -28.073   0.749  30.343  0.00  0.00    +0.007 A 
BRANCH   4  11
ATOM     10  O   UNL A   1     -28.123  -1.335  28.487  0.00  0.00    -0.241 OA
ATOM     11  C   UNL A   1     -27.064  -0.824  28.869  0.00  0.00    +0.388 C 
ATOM     12  O   UNL A   1     -25.880  -1.112  28.159  0.00  0.00    -0.241 OA
ENDBRANCH   4  11
ENDBRANCH   1   7
BRANCH   2  13
ATOM     13  C   UNL A   1     -27.316   1.108  34.748  0.00  0.00    +0.064 C 
ATOM     14  C   UNL A   1     -26.973   0.672  35.910  0.00  0.00    -0.005 C 
BRANCH  14  15
ATOM     15  C   UNL A   1     -27.085  -0.382  36.444  0.00  0.00    +0.053 C 
BRANCH  15  16
ATOM     16  C   UNL A   1     -26.596  -0.897  37.734  0.00  0.00    -0.026 C 
ATOM     17  C   UNL A   1     -25.898  -0.020  38.596  0.00  0.00    -0.030 C 
ATOM     18  C   UNL A   1     -25.814   1.315  38.102  0.00  0.00    +0.030 C 
ENDBRANCH  15  16
ENDBRANCH  14  15
ENDBRANCH   2  13
BRANCH   2  19
ATOM     19  C   UNL A   1     -26.651   3.421  35.496  0.00  0.00    +0.202 C 
BRANCH  19  20
ATOM     20  C   UNL A   1     -26.996   4.654  35.224  0.00  0.00    +0.416 C 
ATOM     21  F   UNL A   1     -27.377   4.950  34.184  0.00  0.00    -0.168 F 
ATOM     22  F   UNL A   1     -25.937   5.514  35.605  0.00  0.00    -0.168 F 
ATOM     23  F   UNL A   1     -27.837   5.067  36.295  0.00  0.00    -0.168 F 
ENDBRANCH  19  20
ENDBRANCH   2  19
TORSDOF 7
