MODEL 1900
MODEL 1
REMARK VINA RESULT:    -7.676      0.000      0.000
REMARK INTER + INTRA:          -9.537
REMARK INTER:                  -9.022
REMARK INTRA:                  -0.515
REMARK UNBOUND:                -0.515
REMARK  Name = No_1900-gen_results/8p0m/2024-11-26-14-13-15/
REMARK  3 active torsions:
REMARK  status: ('A' for Active; 'I' for Inactive)
REMARK    1  A    between atoms: C_3  and  C_6
REMARK    2  A    between atoms: N_4  and  C_14
REMARK    3  A    between atoms: C_14  and  C_15
REMARK                            x       y       z     vdW  Elec       q    Type
REMARK                         _______ _______ _______ _____ _____    ______ ____
ROOT
ATOM      1  O   UNL A   1      -8.282   0.708  37.428  0.00  0.00    -0.274 OA
ATOM      2  C   UNL A   1      -8.830   1.038  36.476  0.00  0.00    +0.235 C 
ATOM      3  C   UNL A   1      -8.289   1.188  35.328  0.00  0.00    +0.100 C 
ATOM      4  N   UNL A   1     -10.246   1.029  36.563  0.00  0.00    -0.225 N 
ATOM      5  C   UNL A   1     -11.077   1.424  35.467  0.00  0.00    +0.232 C 
ATOM      6  C   UNL A   1     -10.375   1.616  34.317  0.00  0.00    +0.086 C 
ATOM      7  C   UNL A   1      -9.096   1.563  34.168  0.00  0.00    +0.023 C 
ATOM      8  O   UNL A   1     -12.309   1.490  35.587  0.00  0.00    -0.275 OA
ENDROOT
BRANCH   3   9
ATOM      9  C   UNL A   1      -6.979   1.202  35.133  0.00  0.00    -0.014 A 
ATOM     10  C   UNL A   1      -6.312   2.355  34.587  0.00  0.00    -0.004 A 
ATOM     11  C   UNL A   1      -4.936   2.315  34.203  0.00  0.00    -0.000 A 
ATOM     12  C   UNL A   1      -4.209   1.106  34.355  0.00  0.00    -0.000 A 
ATOM     13  C   UNL A   1      -4.854  -0.067  34.826  0.00  0.00    -0.000 A 
ATOM     14  C   UNL A   1      -6.293  -0.088  35.229  0.00  0.00    -0.004 A 
ATOM     15  C   UNL A   1      -4.129  -1.317  34.927  0.00  0.00    -0.000 A 
ATOM     16  C   UNL A   1      -4.953  -2.351  34.530  0.00  0.00    -0.000 A 
ATOM     17  C   UNL A   1      -6.167  -2.229  33.951  0.00  0.00    -0.000 A 
ATOM     18  C   UNL A   1      -7.056  -1.247  34.752  0.00  0.00    -0.000 A 
ENDBRANCH   3   9
BRANCH   4  19
ATOM     19  C   UNL A   1     -10.909   0.786  37.895  0.00  0.00    +0.127 C 
BRANCH  19  20
ATOM     20  C   UNL A   1     -11.264  -0.212  38.228  0.00  0.00    -0.002 A 
ATOM     21  C   UNL A   1     -11.312  -1.349  37.541  0.00  0.00    -0.003 A 
ATOM     22  C   UNL A   1     -11.608  -2.547  37.993  0.00  0.00    -0.000 A 
ATOM     23  C   UNL A   1     -12.221  -2.652  39.265  0.00  0.00    -0.000 A 
ATOM     24  C   UNL A   1     -12.223  -1.453  40.066  0.00  0.00    -0.000 A 
ATOM     25  C   UNL A   1     -11.809  -0.253  39.549  0.00  0.00    -0.003 A 
ENDBRANCH  19  20
ENDBRANCH   4  19
TORSDOF 3
ENDMDL
ENDMDL
