REMARK  Name = No_1900-gen_results/8p0m/2024-11-26-14-13-15/
REMARK  3 active torsions:
REMARK  status: ('A' for Active; 'I' for Inactive)
REMARK    1  A    between atoms: C_3  and  C_6
REMARK    2  A    between atoms: N_4  and  C_14
REMARK    3  A    between atoms: C_14  and  C_15
REMARK                            x       y       z     vdW  Elec       q    Type
REMARK                         _______ _______ _______ _____ _____    ______ ____
ROOT
ATOM      1  O   UNL A   1     -28.123  -1.335  28.487  0.00  0.00    -0.274 OA
ATOM      2  C   UNL A   1     -28.521  -0.436  29.078  0.00  0.00    +0.235 C 
ATOM      3  C   UNL A   1     -29.698   0.051  28.976  0.00  0.00    +0.100 C 
ATOM      4  N   UNL A   1     -27.706  -0.022  30.163  0.00  0.00    -0.225 N 
ATOM      5  C   UNL A   1     -28.055   1.091  30.993  0.00  0.00    +0.232 C 
ATOM      6  C   UNL A   1     -29.307   1.561  30.744  0.00  0.00    +0.086 C 
ATOM      7  C   UNL A   1     -30.116   1.169  29.820  0.00  0.00    +0.023 C 
ATOM      8  O   UNL A   1     -27.291   1.491  31.884  0.00  0.00    -0.275 OA
ENDROOT
BRANCH   3   9
ATOM      9  C   UNL A   1     -30.543  -0.274  28.010  0.00  0.00    -0.014 A 
ATOM     10  C   UNL A   1     -31.632  -1.188  28.239  0.00  0.00    -0.004 A 
ATOM     11  C   UNL A   1     -32.434  -1.685  27.166  0.00  0.00    -0.000 A 
ATOM     12  C   UNL A   1     -32.147  -1.274  25.838  0.00  0.00    -0.000 A 
ATOM     13  C   UNL A   1     -31.039  -0.428  25.571  0.00  0.00    -0.000 A 
ATOM     14  C   UNL A   1     -30.157   0.110  26.651  0.00  0.00    -0.004 A 
ATOM     15  C   UNL A   1     -30.708  -0.055  24.211  0.00  0.00    -0.000 A 
ATOM     16  C   UNL A   1     -29.335  -0.058  24.063  0.00  0.00    -0.000 A 
ATOM     17  C   UNL A   1     -28.435  -0.519  24.957  0.00  0.00    -0.000 A 
ATOM     18  C   UNL A   1     -28.720   0.060  26.364  0.00  0.00    -0.000 A 
ENDBRANCH   3   9
BRANCH   4  19
ATOM     19  C   UNL A   1     -26.340  -0.632  30.345  0.00  0.00    +0.127 C 
BRANCH  19  20
ATOM     20  C   UNL A   1     -25.395  -0.083  30.151  0.00  0.00    -0.002 A 
ATOM     21  C   UNL A   1     -24.737   0.060  29.006  0.00  0.00    -0.003 A 
ATOM     22  C   UNL A   1     -23.694   0.824  28.770  0.00  0.00    -0.000 A 
ATOM     23  C   UNL A   1     -22.984   1.352  29.876  0.00  0.00    -0.000 A 
ATOM     24  C   UNL A   1     -23.628   1.221  31.160  0.00  0.00    -0.000 A 
ATOM     25  C   UNL A   1     -24.771   0.479  31.309  0.00  0.00    -0.003 A 
ENDBRANCH  19  20
ENDBRANCH   4  19
TORSDOF 3
