REMARK  Name = No_1902-gen_results/8p0m/2024-11-26-14-13-15/
REMARK  6 active torsions:
REMARK  status: ('A' for Active; 'I' for Inactive)
REMARK    1  A    between atoms: C_5  and  C_11
REMARK    2  A    between atoms: C_8  and  C_14
REMARK    3  A    between atoms: C_14  and  C_16
REMARK    4  A    between atoms: C_16  and  O_17
REMARK    5  A    between atoms: O_17  and  C_20
REMARK    6  A    between atoms: C_21  and  C_22
REMARK                            x       y       z     vdW  Elec       q    Type
REMARK                         _______ _______ _______ _____ _____    ______ ____
ROOT
ATOM      1  C   UNL A   1     -28.016  -0.814  28.878  0.00  0.00    +0.002 A 
ATOM      2  C   UNL A   1     -27.064  -0.119  28.608  0.00  0.00    +0.006 A 
ATOM      3  C   UNL A   1     -25.792  -0.430  29.076  0.00  0.00    +0.001 A 
ATOM      4  C   UNL A   1     -24.546   0.349  28.823  0.00  0.00    +0.007 A 
ATOM      5  C   UNL A   1     -24.659   1.420  27.888  0.00  0.00    +0.080 A 
ATOM      6  C   UNL A   1     -25.947   1.681  27.379  0.00  0.00    +0.013 A 
ATOM      7  C   UNL A   1     -27.044   0.974  27.687  0.00  0.00    +0.035 A 
ATOM      8  C   UNL A   1     -28.024  -1.647  30.126  0.00  0.00    +0.019 A 
ATOM      9  C   UNL A   1     -26.728  -2.085  30.581  0.00  0.00    +0.001 A 
ATOM     10  C   UNL A   1     -25.591  -1.406  30.149  0.00  0.00    +0.000 A 
ATOM     11 BR   UNL A   1     -28.656   1.473  26.863  0.00  0.00    -0.049 Br
ENDROOT
BRANCH   5  12
ATOM     12  C   UNL A   1     -23.449   2.167  27.524  0.00  0.00    +0.388 C 
ATOM     13  O   UNL A   1     -23.584   3.260  27.081  0.00  0.00    -0.241 OA
ATOM     14  O   UNL A   1     -22.252   1.698  27.783  0.00  0.00    -0.241 OA
ENDBRANCH   5  12
BRANCH   8  15
ATOM     15  C   UNL A   1     -29.160  -2.469  30.534  0.00  0.00    +0.128 C 
ATOM     16  N   UNL A   1     -29.144  -3.626  30.893  0.00  0.00    -0.266 NA
ATOM     17  C   UNL A   1     -28.465  -4.629  30.226  0.00  0.00    +0.151 C 
BRANCH  15  18
ATOM     18  C   UNL A   1     -30.450  -1.782  30.552  0.00  0.00    +0.368 C 
ATOM     19  F   UNL A   1     -31.493  -2.520  30.566  0.00  0.00    -0.181 F 
BRANCH  18  20
ATOM     20  O   UNL A   1     -30.585  -0.567  30.285  0.00  0.00    -0.442 OA
BRANCH  20  21
ATOM     21  C   UNL A   1     -31.604   0.207  30.960  0.00  0.00    +0.180 C 
ATOM     22  C   UNL A   1     -31.674   0.457  31.963  0.00  0.00    +0.115 C 
BRANCH  22  23
ATOM     23  C   UNL A   1     -30.481   0.286  32.922  0.00  0.00    +0.422 C 
ATOM     24  F   UNL A   1     -29.387   0.518  32.534  0.00  0.00    -0.166 F 
ATOM     25  F   UNL A   1     -30.540   1.090  34.095  0.00  0.00    -0.166 F 
ATOM     26  F   UNL A   1     -30.547  -1.036  33.428  0.00  0.00    -0.166 F 
ENDBRANCH  22  23
ENDBRANCH  20  21
ENDBRANCH  18  20
ENDBRANCH  15  18
ENDBRANCH   8  15
TORSDOF 6
