REMARK  Name = No_1903-gen_results/8p0m/2024-11-26-14-13-15/
REMARK  3 active torsions:
REMARK  status: ('A' for Active; 'I' for Inactive)
REMARK    1  A    between atoms: N_4  and  C_8
REMARK    2  A    between atoms: C_8  and  C_9
REMARK    3  A    between atoms: C_13  and  C_14
REMARK                            x       y       z     vdW  Elec       q    Type
REMARK                         _______ _______ _______ _____ _____    ______ ____
ROOT
ATOM      1  C   UNL A   1     -27.920  -0.802  32.051  0.00  0.00    +0.079 A 
ATOM      2  N   UNL A   1     -28.122  -0.200  33.191  0.00  0.00    -0.246 NA
ATOM      3  C   UNL A   1     -27.169  -0.200  34.220  0.00  0.00    +0.099 A 
ATOM      4  C   UNL A   1     -25.862  -0.502  33.881  0.00  0.00    +0.021 A 
ATOM      5  C   UNL A   1     -25.438  -0.224  32.691  0.00  0.00    +0.003 A 
ATOM      6  C   UNL A   1     -26.503  -1.416  31.904  0.00  0.00    +0.017 A 
ENDROOT
BRANCH   5   7
ATOM      7  C   UNL A   1     -24.034  -0.408  32.208  0.00  0.00    -0.004 C 
ATOM      8  C   UNL A   1     -23.783  -0.324  30.886  0.00  0.00    -0.026 C 
ATOM      9  C   UNL A   1     -22.432  -0.503  30.428  0.00  0.00    +0.031 C 
ENDBRANCH   5   7
BRANCH   1  10
ATOM     10  C   UNL A   1     -28.399  -0.271  30.995  0.00  0.00    +0.139 C 
BRANCH  10  14
ATOM     11  O   UNL A   1     -28.123  -1.335  28.487  0.00  0.00    -0.275 OA
ATOM     12  C   UNL A   1     -27.481  -0.404  28.709  0.00  0.00    +0.226 C 
ATOM     13  C   UNL A   1     -26.380  -0.087  27.939  0.00  0.00    +0.085 C 
ATOM     14  N   UNL A   1     -27.423   0.175  30.055  0.00  0.00    -0.274 N 
ATOM     15  C   UNL A   1     -25.848   1.005  27.994  0.00  0.00    +0.011 C 
ATOM     16  C   UNL A   1     -25.811   1.741  29.284  0.00  0.00    +0.022 C 
ATOM     17  C   UNL A   1     -26.748   1.315  30.232  0.00  0.00    +0.094 C 
ENDBRANCH  10  14
ENDBRANCH   1  10
TORSDOF 3
