MODEL 1903
MODEL 1
REMARK VINA RESULT:    -6.260      0.000      0.000
REMARK INTER + INTRA:          -7.424
REMARK INTER:                  -7.358
REMARK INTRA:                  -0.066
REMARK UNBOUND:                -0.066
REMARK  Name = No_1903-gen_results/8p0m/2024-11-26-14-13-15/
REMARK  3 active torsions:
REMARK  status: ('A' for Active; 'I' for Inactive)
REMARK    1  A    between atoms: N_4  and  C_8
REMARK    2  A    between atoms: C_8  and  C_9
REMARK    3  A    between atoms: C_13  and  C_14
REMARK                            x       y       z     vdW  Elec       q    Type
REMARK                         _______ _______ _______ _____ _____    ______ ____
ROOT
ATOM      1  C   UNL A   1     -23.042  -1.146  29.202  0.00  0.00    +0.079 A 
ATOM      2  N   UNL A   1     -21.792  -0.790  29.326  0.00  0.00    -0.246 NA
ATOM      3  C   UNL A   1     -21.204   0.185  28.507  0.00  0.00    +0.099 A 
ATOM      4  C   UNL A   1     -22.049   1.048  27.832  0.00  0.00    +0.021 A 
ATOM      5  C   UNL A   1     -23.202   1.333  28.345  0.00  0.00    +0.003 A 
ATOM      6  C   UNL A   1     -23.831  -0.323  28.150  0.00  0.00    +0.017 A 
ENDROOT
BRANCH   5   7
ATOM      7  C   UNL A   1     -24.182   2.313  27.780  0.00  0.00    -0.004 C 
ATOM      8  C   UNL A   1     -23.880   2.947  26.629  0.00  0.00    -0.026 C 
ATOM      9  C   UNL A   1     -24.825   3.888  26.093  0.00  0.00    +0.031 C 
ENDBRANCH   5   7
BRANCH   1  10
ATOM     10  C   UNL A   1     -23.690  -1.452  30.257  0.00  0.00    +0.139 C 
BRANCH  10  14
ATOM     11  O   UNL A   1     -23.469  -3.942  29.139  0.00  0.00    -0.275 OA
ATOM     12  C   UNL A   1     -24.509  -3.670  29.554  0.00  0.00    +0.226 C 
ATOM     13  C   UNL A   1     -25.641  -4.360  29.170  0.00  0.00    +0.085 C 
ATOM     14  N   UNL A   1     -24.802  -2.319  30.044  0.00  0.00    -0.274 N 
ATOM     15  C   UNL A   1     -26.692  -4.262  29.774  0.00  0.00    +0.011 C 
ATOM     16  C   UNL A   1     -27.059  -2.967  30.404  0.00  0.00    +0.022 C 
ATOM     17  C   UNL A   1     -25.990  -2.089  30.611  0.00  0.00    +0.094 C 
ENDBRANCH  10  14
ENDBRANCH   1  10
TORSDOF 3
ENDMDL
ENDMDL
