REMARK  Name = No_1904-gen_results/8p0m/2024-11-26-14-13-15/
REMARK  2 active torsions:
REMARK  status: ('A' for Active; 'I' for Inactive)
REMARK    1  A    between atoms: C_3  and  C_4
REMARK    2  A    between atoms: C_4  and  C_8
REMARK                            x       y       z     vdW  Elec       q    Type
REMARK                         _______ _______ _______ _____ _____    ______ ____
ROOT
ATOM      1  C   UNL A   1     -28.016  -0.814  28.878  0.00  0.00    -0.002 A 
ATOM      2  C   UNL A   1     -28.469  -0.785  29.829  0.00  0.00    -0.000 A 
ATOM      3  C   UNL A   1     -26.546  -0.876  28.850  0.00  0.00    +0.010 A 
ATOM      4  C   UNL A   1     -27.918  -1.003  31.188  0.00  0.00    +0.002 A 
ATOM      5  C   UNL A   1     -26.531  -1.079  31.246  0.00  0.00    +0.029 A 
ATOM      6  C   UNL A   1     -25.780  -1.046  30.090  0.00  0.00    +0.137 A 
ATOM      7  F   UNL A   1     -24.544  -0.901  30.062  0.00  0.00    -0.204 F 
ENDROOT
BRANCH   3   8
ATOM      8  C   UNL A   1     -25.683  -0.777  27.683  0.00  0.00    +0.055 C 
BRANCH   8   9
ATOM      9  C   UNL A   1     -25.232   0.579  27.329  0.00  0.00    -0.018 A 
ATOM     10  C   UNL A   1     -25.903   1.534  27.425  0.00  0.00    -0.004 A 
ATOM     11  C   UNL A   1     -25.335   2.867  27.080  0.00  0.00    -0.000 A 
ATOM     12  C   UNL A   1     -24.003   2.989  26.647  0.00  0.00    -0.000 A 
ATOM     13  C   UNL A   1     -23.233   1.838  26.612  0.00  0.00    -0.000 A 
ATOM     14  C   UNL A   1     -23.806   0.581  26.992  0.00  0.00    -0.004 A 
ENDBRANCH   8   9
ENDBRANCH   3   8
TORSDOF 2
