MODEL 1904
MODEL 1
REMARK VINA RESULT:    -6.556      0.000      0.000
REMARK INTER + INTRA:          -7.837
REMARK INTER:                  -7.323
REMARK INTRA:                  -0.514
REMARK UNBOUND:                -0.514
REMARK  Name = No_1904-gen_results/8p0m/2024-11-26-14-13-15/
REMARK  2 active torsions:
REMARK  status: ('A' for Active; 'I' for Inactive)
REMARK    1  A    between atoms: C_3  and  C_4
REMARK    2  A    between atoms: C_4  and  C_8
REMARK                            x       y       z     vdW  Elec       q    Type
REMARK                         _______ _______ _______ _____ _____    ______ ____
ROOT
ATOM      1  C   UNL A   1     -24.769  -0.271  27.502  0.00  0.00    -0.002 A 
ATOM      2  C   UNL A   1     -24.639   0.408  26.707  0.00  0.00    -0.000 A 
ATOM      3  C   UNL A   1     -23.661  -0.381  28.463  0.00  0.00    +0.010 A 
ATOM      4  C   UNL A   1     -23.617   1.454  26.465  0.00  0.00    +0.002 A 
ATOM      5  C   UNL A   1     -22.536   1.422  27.338  0.00  0.00    +0.029 A 
ATOM      6  C   UNL A   1     -22.512   0.529  28.389  0.00  0.00    +0.137 A 
ATOM      7  F   UNL A   1     -21.507   0.293  29.084  0.00  0.00    -0.204 F 
ENDROOT
BRANCH   3   8
ATOM      8  C   UNL A   1     -23.530  -1.338  29.551  0.00  0.00    +0.055 C 
BRANCH   8   9
ATOM      9  C   UNL A   1     -24.248  -2.612  29.377  0.00  0.00    -0.018 A 
ATOM     10  C   UNL A   1     -23.784  -3.556  28.862  0.00  0.00    -0.004 A 
ATOM     11  C   UNL A   1     -24.582  -4.810  28.774  0.00  0.00    -0.000 A 
ATOM     12  C   UNL A   1     -25.882  -4.873  29.308  0.00  0.00    -0.000 A 
ATOM     13  C   UNL A   1     -26.359  -3.749  29.963  0.00  0.00    -0.000 A 
ATOM     14  C   UNL A   1     -25.543  -2.576  30.061  0.00  0.00    -0.004 A 
ENDBRANCH   8   9
ENDBRANCH   3   8
TORSDOF 2
ENDMDL
ENDMDL
