MODEL 1905
MODEL 1
REMARK VINA RESULT:    -6.732      0.000      0.000
REMARK INTER + INTRA:          -9.568
REMARK INTER:                  -8.699
REMARK INTRA:                  -0.869
REMARK UNBOUND:                -0.869
REMARK  Name = No_1905-gen_results/8p0m/2024-11-26-14-13-15/
REMARK  5 active torsions:
REMARK  status: ('A' for Active; 'I' for Inactive)
REMARK    1  A    between atoms: C_3  and  C_7
REMARK    2  A    between atoms: C_6  and  C_13
REMARK    3  A    between atoms: N_15  and  C_16
REMARK    4  A    between atoms: C_17  and  C_18
REMARK    5  A    between atoms: C_19  and  C_20
REMARK                            x       y       z     vdW  Elec       q    Type
REMARK                         _______ _______ _______ _____ _____    ______ ____
ROOT
ATOM      1  C   UNL A   1     -24.975   0.097  25.343  0.00  0.00    +0.005 A 
ATOM      2  C   UNL A   1     -26.051   0.062  24.793  0.00  0.00    +0.000 A 
ATOM      3  C   UNL A   1     -26.960   1.119  24.809  0.00  0.00    +0.000 A 
ATOM      4  C   UNL A   1     -26.643   2.313  25.569  0.00  0.00    +0.000 A 
ATOM      5  C   UNL A   1     -25.401   2.302  26.204  0.00  0.00    +0.005 A 
ATOM      6  C   UNL A   1     -24.606   1.252  26.145  0.00  0.00    +0.055 A 
ENDROOT
BRANCH   3   7
ATOM      7  C   UNL A   1     -28.298   1.153  24.150  0.00  0.00    +0.000 A 
ATOM      8  C   UNL A   1     -28.810   2.287  23.615  0.00  0.00    +0.000 A 
ATOM      9  C   UNL A   1     -30.085   2.298  23.041  0.00  0.00    +0.000 A 
ATOM     10  C   UNL A   1     -30.878   1.107  22.963  0.00  0.00    +0.000 A 
ATOM     11  C   UNL A   1     -29.169   0.041  24.069  0.00  0.00    +0.000 A 
ATOM     12  C   UNL A   1     -30.393   0.037  23.513  0.00  0.00    +0.000 A 
ENDBRANCH   3   7
BRANCH   6  13
ATOM     13  C   UNL A   1     -23.322   1.317  26.904  0.00  0.00    +0.269 C 
ATOM     14  O   UNL A   1     -22.382   2.021  26.531  0.00  0.00    -0.268 OA
ATOM     15  N   UNL A   1     -23.362   0.988  28.205  0.00  0.00    -0.174 NA
BRANCH  15  16
ATOM     16  C   UNL A   1     -24.397   0.284  28.892  0.00  0.00    +0.089 C 
ATOM     17  C   UNL A   1     -24.015  -0.942  29.316  0.00  0.00    +0.018 C 
BRANCH  17  18
ATOM     18  C   UNL A   1     -24.865  -1.687  30.041  0.00  0.00    +0.001 C 
ATOM     19  C   UNL A   1     -25.179  -3.059  29.763  0.00  0.00    +0.000 C 
BRANCH  19  20
ATOM     20  C   UNL A   1     -24.514  -3.543  28.612  0.00  0.00    +0.000 C 
ATOM     21  C   UNL A   1     -24.074  -4.794  28.480  0.00  0.00    +0.000 C 
ENDBRANCH  19  20
ENDBRANCH  17  18
ENDBRANCH  15  16
ENDBRANCH   6  13
TORSDOF 5
ENDMDL
ENDMDL
