REMARK  Name = No_1905-gen_results/8p0m/2024-11-26-14-13-15/
REMARK  5 active torsions:
REMARK  status: ('A' for Active; 'I' for Inactive)
REMARK    1  A    between atoms: C_3  and  C_7
REMARK    2  A    between atoms: C_6  and  C_13
REMARK    3  A    between atoms: N_15  and  C_16
REMARK    4  A    between atoms: C_17  and  C_18
REMARK    5  A    between atoms: C_19  and  C_20
REMARK                            x       y       z     vdW  Elec       q    Type
REMARK                         _______ _______ _______ _____ _____    ______ ____
ROOT
ATOM      1  C   UNL A   1     -28.016  -0.814  28.878  0.00  0.00    +0.005 A 
ATOM      2  C   UNL A   1     -27.064  -0.119  28.608  0.00  0.00    +0.000 A 
ATOM      3  C   UNL A   1     -25.765  -0.390  29.036  0.00  0.00    +0.000 A 
ATOM      4  C   UNL A   1     -25.530  -1.530  29.901  0.00  0.00    +0.000 A 
ATOM      5  C   UNL A   1     -26.658  -2.292  30.203  0.00  0.00    +0.005 A 
ATOM      6  C   UNL A   1     -27.855  -1.956  29.763  0.00  0.00    +0.055 A 
ENDROOT
BRANCH   3   7
ATOM      7  C   UNL A   1     -24.544   0.413  28.738  0.00  0.00    +0.000 A 
ATOM      8  C   UNL A   1     -24.095   1.379  29.575  0.00  0.00    +0.000 A 
ATOM      9  C   UNL A   1     -22.971   2.145  29.249  0.00  0.00    +0.000 A 
ATOM     10  C   UNL A   1     -22.234   1.913  28.042  0.00  0.00    +0.000 A 
ATOM     11  C   UNL A   1     -23.783   0.287  27.552  0.00  0.00    +0.000 A 
ATOM     12  C   UNL A   1     -22.697   1.012  27.231  0.00  0.00    +0.000 A 
ENDBRANCH   3   7
BRANCH   6  13
ATOM     13  C   UNL A   1     -29.008  -2.804  30.187  0.00  0.00    +0.269 C 
ATOM     14  O   UNL A   1     -28.919  -4.030  30.262  0.00  0.00    -0.268 OA
ATOM     15  N   UNL A   1     -29.967  -2.213  30.918  0.00  0.00    -0.174 NA
BRANCH  15  16
ATOM     16  C   UNL A   1     -30.195  -0.814  31.084  0.00  0.00    +0.089 C 
ATOM     17  C   UNL A   1     -31.343  -0.537  31.742  0.00  0.00    +0.018 C 
BRANCH  17  18
ATOM     18  C   UNL A   1     -31.650   0.737  32.034  0.00  0.00    +0.001 C 
ATOM     19  C   UNL A   1     -32.828   1.145  32.744  0.00  0.00    +0.000 C 
BRANCH  19  20
ATOM     20  C   UNL A   1     -33.660   0.052  33.083  0.00  0.00    +0.000 C 
ATOM     21  C   UNL A   1     -33.377  -1.216  32.786  0.00  0.00    +0.000 C 
ENDBRANCH  19  20
ENDBRANCH  17  18
ENDBRANCH  15  16
ENDBRANCH   6  13
TORSDOF 5
