MODEL 1906
MODEL 1
REMARK VINA RESULT:    -4.526      0.000      0.000
REMARK INTER + INTRA:          -4.526
REMARK INTER:                  -4.526
REMARK INTRA:                   0.000
REMARK UNBOUND:                 0.000
REMARK  Name = No_1906-gen_results/8p0m/2024-11-26-14-13-15/
REMARK  0 active torsions:
REMARK  status: ('A' for Active; 'I' for Inactive)
REMARK                            x       y       z     vdW  Elec       q    Type
REMARK                         _______ _______ _______ _____ _____    ______ ____
ROOT
ATOM      1  C   UNL A   1     -10.305  -9.074  19.551  0.00  0.00    +0.002 A 
ATOM      2  C   UNL A   1      -9.406  -9.117  20.360  0.00  0.00    +0.030 A 
ATOM      3  C   UNL A   1      -8.206  -9.793  20.144  0.00  0.00    +0.140 A 
ATOM      4  C   UNL A   1      -8.028 -10.541  18.915  0.00  0.00    +0.030 A 
ATOM      5  C   UNL A   1      -9.096 -10.480  18.020  0.00  0.00    +0.002 A 
ATOM      6  C   UNL A   1     -10.202  -9.824  18.310  0.00  0.00    +0.000 A 
ATOM      7  F   UNL A   1      -7.206  -9.880  21.014  0.00  0.00    -0.204 F 
ENDROOT
TORSDOF 0
ENDMDL
ENDMDL
