REMARK  Name = No_1907-gen_results/8p0m/2024-11-26-14-13-15/
REMARK  2 active torsions:
REMARK  status: ('A' for Active; 'I' for Inactive)
REMARK    1  A    between atoms: C_1  and  C_2
REMARK    2  A    between atoms: C_1  and  N_8
REMARK                            x       y       z     vdW  Elec       q    Type
REMARK                         _______ _______ _______ _____ _____    ______ ____
ROOT
ATOM      1  C   UNL A   1     -27.064  -0.119  28.608  0.00  0.00    +0.003 A 
ATOM      2  C   UNL A   1     -27.001   0.691  27.491  0.00  0.00    -0.001 A 
ATOM      3  C   UNL A   1     -25.855   1.482  27.083  0.00  0.00    +0.011 A 
ATOM      4  C   UNL A   1     -24.690   1.453  27.881  0.00  0.00    +0.058 A 
ATOM      5  C   UNL A   1     -24.738   0.601  29.042  0.00  0.00    +0.011 A 
ATOM      6  C   UNL A   1     -25.823  -0.169  29.389  0.00  0.00    -0.001 A 
ATOM      7 CL   UNL A   1     -23.331   2.349  27.523  0.00  0.00    -0.082 Cl
ENDROOT
BRANCH   1   8
ATOM      8  C   UNL A   1     -28.016  -0.814  28.878  0.00  0.00    +0.165 C 
BRANCH   8   9
ATOM      9  N   UNL A   1     -27.961  -1.607  30.088  0.00  0.00    -0.188 NA
ATOM     10  C   UNL A   1     -29.043  -2.296  30.566  0.00  0.00    +0.236 C 
ATOM     11  O   UNL A   1     -28.862  -3.113  31.515  0.00  0.00    -0.210 OA
ENDBRANCH   8   9
ENDBRANCH   1   8
TORSDOF 2
