MODEL 1907
MODEL 1
REMARK VINA RESULT:    -4.946      0.000      0.000
REMARK INTER + INTRA:          -5.626
REMARK INTER:                  -5.525
REMARK INTRA:                  -0.101
REMARK UNBOUND:                -0.101
REMARK  Name = No_1907-gen_results/8p0m/2024-11-26-14-13-15/
REMARK  2 active torsions:
REMARK  status: ('A' for Active; 'I' for Inactive)
REMARK    1  A    between atoms: C_1  and  C_2
REMARK    2  A    between atoms: C_1  and  N_8
REMARK                            x       y       z     vdW  Elec       q    Type
REMARK                         _______ _______ _______ _____ _____    ______ ____
ROOT
ATOM      1  C   UNL A   1     -23.707  -0.521  28.525  0.00  0.00    +0.003 A 
ATOM      2  C   UNL A   1     -24.614  -0.295  27.508  0.00  0.00    -0.001 A 
ATOM      3  C   UNL A   1     -24.505   0.735  26.491  0.00  0.00    +0.011 A 
ATOM      4  C   UNL A   1     -23.395   1.607  26.523  0.00  0.00    +0.058 A 
ATOM      5  C   UNL A   1     -22.435   1.373  27.572  0.00  0.00    +0.011 A 
ATOM      6  C   UNL A   1     -22.539   0.367  28.502  0.00  0.00    -0.001 A 
ATOM      7 CL   UNL A   1     -23.191   2.845  25.425  0.00  0.00    -0.082 Cl
ENDROOT
BRANCH   1   8
ATOM      8  C   UNL A   1     -23.800  -1.433  29.314  0.00  0.00    +0.165 C 
BRANCH   8   9
ATOM      9  N   UNL A   1     -23.386  -2.752  28.885  0.00  0.00    -0.188 NA
ATOM     10  C   UNL A   1     -24.256  -3.805  28.802  0.00  0.00    +0.236 C 
ATOM     11  O   UNL A   1     -23.860  -4.867  28.239  0.00  0.00    -0.210 OA
ENDBRANCH   8   9
ENDBRANCH   1   8
TORSDOF 2
ENDMDL
ENDMDL
