REMARK  Name = No_1908-gen_results/8p0m/2024-11-26-14-13-15/
REMARK  3 active torsions:
REMARK  status: ('A' for Active; 'I' for Inactive)
REMARK    1  A    between atoms: C_3  and  C_7
REMARK    2  A    between atoms: C_7  and  C_8
REMARK    3  A    between atoms: C_7  and  C_14
REMARK                            x       y       z     vdW  Elec       q    Type
REMARK                         _______ _______ _______ _____ _____    ______ ____
ROOT
ATOM      1  C   UNL A   1     -27.459   0.493  26.770  0.00  0.00    +0.088 C 
ENDROOT
BRANCH   1   4
ATOM      2  C   UNL A   1     -28.016  -0.814  28.878  0.00  0.00    -0.004 A 
ATOM      3  C   UNL A   1     -28.469  -0.785  29.829  0.00  0.00    -0.000 A 
ATOM      4  C   UNL A   1     -28.182   0.428  28.113  0.00  0.00    -0.013 A 
ATOM      5  C   UNL A   1     -28.984   1.415  28.515  0.00  0.00    -0.004 A 
ATOM      6  C   UNL A   1     -29.380   0.138  30.461  0.00  0.00    -0.000 A 
ATOM      7  C   UNL A   1     -29.541   1.274  29.724  0.00  0.00    -0.000 A 
ENDBRANCH   1   4
BRANCH   1   8
ATOM      8  C   UNL A   1     -26.026   0.384  26.762  0.00  0.00    -0.013 A 
ATOM      9  C   UNL A   1     -25.368   0.574  25.514  0.00  0.00    -0.004 A 
ATOM     10  C   UNL A   1     -25.245   0.015  27.877  0.00  0.00    -0.004 A 
ATOM     11  C   UNL A   1     -23.843   0.134  27.811  0.00  0.00    -0.000 A 
ATOM     12  C   UNL A   1     -23.933   0.746  25.485  0.00  0.00    -0.000 A 
ATOM     13  C   UNL A   1     -23.220   0.550  26.620  0.00  0.00    -0.000 A 
ENDBRANCH   1   8
BRANCH   1  14
ATOM     14  C   UNL A   1     -28.235   0.586  25.627  0.00  0.00    +0.104 C 
ATOM     15  N   UNL A   1     -28.443   1.825  25.341  0.00  0.00    -0.151 NA
ENDBRANCH   1  14
TORSDOF 3
