MODEL 1909
MODEL 1
REMARK VINA RESULT:    -4.592      0.000      0.000
REMARK INTER + INTRA:          -5.935
REMARK INTER:                  -5.666
REMARK INTRA:                  -0.268
REMARK UNBOUND:                -0.268
REMARK  Name = No_1909-gen_results/8p0m/2024-11-26-14-13-15/
REMARK  4 active torsions:
REMARK  status: ('A' for Active; 'I' for Inactive)
REMARK    1  A    between atoms: C_1  and  C_3
REMARK    2  A    between atoms: C_3  and  C_4
REMARK    3  A    between atoms: C_5  and  C_6
REMARK    4  A    between atoms: C_7  and  C_8
REMARK                            x       y       z     vdW  Elec       q    Type
REMARK                         _______ _______ _______ _____ _____    ______ ____
ROOT
ATOM      1  C   UNL A   1     -23.979  -2.352  29.589  0.00  0.00    -0.026 C 
ATOM      2  C   UNL A   1     -23.054  -1.636  28.845  0.00  0.00    -0.005 C 
ENDROOT
BRANCH   2   3
ATOM      3  C   UNL A   1     -22.072  -0.725  29.405  0.00  0.00    -0.000 C 
ATOM      4  C   UNL A   1     -21.779   0.517  28.801  0.00  0.00    -0.000 C 
BRANCH   4   5
ATOM      5  C   UNL A   1     -22.682   1.018  27.837  0.00  0.00    -0.000 C 
ATOM      6  C   UNL A   1     -22.258   1.935  26.873  0.00  0.00    -0.000 C 
ENDBRANCH   4   5
ENDBRANCH   2   3
BRANCH   1   7
ATOM      7  C   UNL A   1     -24.760  -3.337  28.962  0.00  0.00    +0.026 C 
BRANCH   7   8
ATOM      8  C   UNL A   1     -24.238  -4.723  28.653  0.00  0.00    +0.005 C 
ATOM      9  C   UNL A   1     -24.840  -5.519  28.991  0.00  0.00    +0.000 C 
ENDBRANCH   7   8
ENDBRANCH   1   7
TORSDOF 4
ENDMDL
ENDMDL
