MODEL 190
MODEL 1
REMARK VINA RESULT:    -7.017      0.000      0.000
REMARK INTER + INTRA:         -10.374
REMARK INTER:                  -9.889
REMARK INTRA:                  -0.485
REMARK UNBOUND:                -0.485
REMARK  Name = No_190-gen_results/8p0m/2024-11-26-14-13-15/
REMARK  7 active torsions:
REMARK  status: ('A' for Active; 'I' for Inactive)
REMARK    1  A    between atoms: C_2  and  C_3
REMARK    2  A    between atoms: C_7  and  C_10
REMARK    3  A    between atoms: N_11  and  C_13
REMARK    4  A    between atoms: N_11  and  C_14
REMARK    5  A    between atoms: C_13  and  C_15
REMARK    6  A    between atoms: C_19  and  C_20
REMARK    7  A    between atoms: C_20  and  C_21
REMARK                            x       y       z     vdW  Elec       q    Type
REMARK                         _______ _______ _______ _____ _____    ______ ____
ROOT
ATOM      1  C   UNL A   1      -8.427   1.239  34.691  0.00  0.00    +0.253 C 
ATOM      2  N   UNL A   1      -9.342   1.168  35.509  0.00  0.00    -0.246 N 
ATOM      3  O   UNL A   1      -8.403   2.183  33.756  0.00  0.00    -0.270 OA
ENDROOT
BRANCH   1   7
ATOM      4  C   UNL A   1      -4.930  -1.299  34.556  0.00  0.00    +0.080 A 
ATOM      5  C   UNL A   1      -4.959  -0.038  34.878  0.00  0.00    +0.007 A 
ATOM      6  C   UNL A   1      -5.963   0.861  34.963  0.00  0.00    +0.005 A 
ATOM      7  C   UNL A   1      -7.275   0.314  34.720  0.00  0.00    +0.054 A 
ATOM      8  C   UNL A   1      -7.315  -1.055  34.436  0.00  0.00    +0.005 A 
ATOM      9  C   UNL A   1      -6.232  -1.850  34.441  0.00  0.00    +0.007 A 
BRANCH   4  11
ATOM     10  O   UNL A   1      -3.368  -2.303  35.806  0.00  0.00    -0.241 OA
ATOM     11  C   UNL A   1      -3.873  -2.006  34.717  0.00  0.00    +0.388 C 
ATOM     12  O   UNL A   1      -3.385  -2.633  33.552  0.00  0.00    -0.241 OA
ENDBRANCH   4  11
ENDBRANCH   1   7
BRANCH   2  13
ATOM     13  C   UNL A   1      -9.330   0.266  36.639  0.00  0.00    +0.064 C 
ATOM     14  C   UNL A   1     -10.369  -0.477  36.796  0.00  0.00    -0.005 C 
BRANCH  14  15
ATOM     15  C   UNL A   1     -10.743  -1.168  37.686  0.00  0.00    +0.053 C 
BRANCH  15  16
ATOM     16  C   UNL A   1     -11.566  -2.388  37.716  0.00  0.00    -0.026 C 
ATOM     17  C   UNL A   1     -12.238  -2.727  38.913  0.00  0.00    -0.030 C 
ATOM     18  C   UNL A   1     -12.067  -1.765  39.952  0.00  0.00    +0.030 C 
ENDBRANCH  15  16
ENDBRANCH  14  15
ENDBRANCH   2  13
BRANCH   2  19
ATOM     19  C   UNL A   1     -10.608   2.043  35.390  0.00  0.00    +0.202 C 
BRANCH  19  20
ATOM     20  C   UNL A   1     -11.498   1.678  34.502  0.00  0.00    +0.416 C 
ATOM     21  F   UNL A   1     -11.198   1.089  33.566  0.00  0.00    -0.168 F 
ATOM     22  F   UNL A   1     -12.254   2.816  34.126  0.00  0.00    -0.168 F 
ATOM     23  F   UNL A   1     -12.568   1.099  35.240  0.00  0.00    -0.168 F 
ENDBRANCH  19  20
ENDBRANCH   2  19
TORSDOF 7
ENDMDL
ENDMDL
