REMARK  Name = No_191-gen_results/8p0m/2024-11-26-14-13-15/
REMARK  3 active torsions:
REMARK  status: ('A' for Active; 'I' for Inactive)
REMARK    1  A    between atoms: C_3  and  O_7
REMARK    2  A    between atoms: O_7  and  C_8
REMARK    3  A    between atoms: C_17  and  C_19
REMARK                            x       y       z     vdW  Elec       q    Type
REMARK                         _______ _______ _______ _____ _____    ______ ____
ROOT
ATOM      1  C   UNL A   1     -26.092   0.353  26.787  0.00  0.00    +0.145 A 
ATOM      2  C   UNL A   1     -25.507   1.250  25.907  0.00  0.00    +0.039 A 
ATOM      3  C   UNL A   1     -24.073   1.427  25.998  0.00  0.00    +0.022 A 
ATOM      4  C   UNL A   1     -23.325   0.970  27.087  0.00  0.00    +0.085 A 
ATOM      5  C   UNL A   1     -24.006   0.183  28.030  0.00  0.00    +0.043 A 
ATOM      6  C   UNL A   1     -25.349  -0.115  27.936  0.00  0.00    +0.041 A 
ATOM      7  N   UNL A   1     -22.051   1.349  27.308  0.00  0.00    -0.224 NA
ATOM      8  C   UNL A   1     -21.334   0.801  28.363  0.00  0.00    +0.199 A 
ATOM      9  N   UNL A   1     -21.906   0.032  29.279  0.00  0.00    -0.219 NA
ATOM     10  C   UNL A   1     -23.217  -0.295  29.190  0.00  0.00    +0.139 A 
ENDROOT
BRANCH  10  11
ATOM     11  C   UNL A   1     -23.730  -1.226  30.202  0.00  0.00    +0.283 C 
ATOM     12  O   UNL A   1     -23.839  -2.403  30.010  0.00  0.00    -0.267 OA
ATOM     13  N   UNL A   1     -24.012  -0.671  31.456  0.00  0.00    -0.199 NA
ATOM     14  C   UNL A   1     -24.803  -1.393  32.448  0.00  0.00    +0.139 C 
ENDBRANCH  10  11
BRANCH   1  15
ATOM     15  O   UNL A   1     -27.452   0.247  26.799  0.00  0.00    -0.454 OA
BRANCH  15  18
ATOM     16  C   UNL A   1     -28.016  -0.814  28.878  0.00  0.00    +0.037 A 
ATOM     17  C   UNL A   1     -28.469  -0.785  29.829  0.00  0.00    +0.003 A 
ATOM     18  C   UNL A   1     -28.196   0.348  28.055  0.00  0.00    +0.141 A 
ATOM     19  C   UNL A   1     -29.019   1.350  28.378  0.00  0.00    +0.013 A 
ATOM     20  C   UNL A   1     -29.459   1.344  29.294  0.00  0.00    -0.001 A 
ATOM     21  C   UNL A   1     -29.358   0.303  30.295  0.00  0.00    -0.000 A 
ATOM     22  C   UNL A   1     -29.097   2.435  27.304  0.00  0.00    +0.034 C 
ENDBRANCH  15  18
ENDBRANCH   1  15
TORSDOF 3
