MODEL 1910
MODEL 1
REMARK VINA RESULT:    -6.371      0.000      0.000
REMARK INTER + INTRA:          -7.332
REMARK INTER:                  -7.116
REMARK INTRA:                  -0.216
REMARK UNBOUND:                -0.216
REMARK  Name = No_1910-gen_results/8p0m/2024-11-26-14-13-15/
REMARK  2 active torsions:
REMARK  status: ('A' for Active; 'I' for Inactive)
REMARK    1  A    between atoms: C_3  and  C_14
REMARK    2  A    between atoms: C_5  and  C_11
REMARK                            x       y       z     vdW  Elec       q    Type
REMARK                         _______ _______ _______ _____ _____    ______ ____
ROOT
ATOM      1  C   UNL A   1     -30.766  -9.706  29.294  0.00  0.00    +0.000 A 
ATOM      2  C   UNL A   1     -30.070 -10.229  30.133  0.00  0.00    +0.004 A 
ATOM      3  C   UNL A   1     -29.948  -9.803  31.445  0.00  0.00    +0.055 A 
ATOM      4  C   UNL A   1     -29.065 -10.357  32.444  0.00  0.00    +0.009 A 
ATOM      5  C   UNL A   1     -28.235 -11.445  32.085  0.00  0.00    +0.057 A 
ATOM      6  C   UNL A   1     -28.315 -11.933  30.754  0.00  0.00    +0.005 A 
ATOM      7  C   UNL A   1     -29.157 -11.324  29.876  0.00  0.00    +0.000 A 
ATOM      8  C   UNL A   1     -30.911 -10.340  27.944  0.00  0.00    +0.000 A 
ATOM      9  C   UNL A   1     -29.955 -11.321  27.552  0.00  0.00    +0.000 A 
ATOM     10  C   UNL A   1     -29.161 -11.880  28.500  0.00  0.00    +0.000 A 
ENDROOT
BRANCH   3  11
ATOM     11  C   UNL A   1     -30.697  -8.625  31.936  0.00  0.00    +0.265 C 
ATOM     12  N   UNL A   1     -31.797  -8.669  32.486  0.00  0.00    -0.200 NA
ATOM     13  O   UNL A   1     -30.089  -7.503  31.897  0.00  0.00    -0.268 OA
ATOM     14  C   UNL A   1     -32.567  -7.629  33.075  0.00  0.00    +0.139 C 
ENDBRANCH   3  11
BRANCH   5  15
ATOM     15  C   UNL A   1     -27.338 -12.075  33.080  0.00  0.00    +0.284 C 
ATOM     16  N   UNL A   1     -27.186 -11.604  34.214  0.00  0.00    -0.084 NA
ATOM     17  O   UNL A   1     -26.461 -13.019  32.714  0.00  0.00    -0.267 OA
ENDBRANCH   5  15
TORSDOF 2
ENDMDL
ENDMDL
