REMARK  Name = No_1911-gen_results/8p0m/2024-11-26-14-13-15/
REMARK  4 active torsions:
REMARK  status: ('A' for Active; 'I' for Inactive)
REMARK    1  A    between atoms: C_2  and  C_3
REMARK    2  A    between atoms: C_4  and  C_5
REMARK    3  A    between atoms: C_5  and  C_6
REMARK    4  A    between atoms: C_7  and  C_8
REMARK                            x       y       z     vdW  Elec       q    Type
REMARK                         _______ _______ _______ _____ _____    ______ ____
ROOT
ATOM      1  C   UNL A   1     -26.703   3.053  29.479  0.00  0.00    +0.123 C 
ATOM      2 CL   UNL A   1     -26.952   2.762  29.154  0.00  0.00    -0.105 Cl
ENDROOT
BRANCH   1   4
ATOM      3  C   UNL A   1     -27.514   1.238  28.049  0.00  0.00    -0.012 C 
ATOM      4  C   UNL A   1     -26.881   2.519  28.175  0.00  0.00    -0.009 C 
BRANCH   3   6
ATOM      5 CL   UNL A   1     -28.149  -0.820  28.908  0.00  0.00    -0.109 Cl
ATOM      6  C   UNL A   1     -27.834   0.496  29.060  0.00  0.00    +0.121 C 
ENDBRANCH   3   6
ENDBRANCH   1   4
BRANCH   1   7
ATOM      7  C   UNL A   1     -26.089   4.312  29.753  0.00  0.00    -0.006 C 
ATOM      8  C   UNL A   1     -25.606   5.003  28.642  0.00  0.00    -0.003 C 
BRANCH   8   9
ATOM      9  C   UNL A   1     -25.715   4.521  27.324  0.00  0.00    -0.000 C 
ATOM     10  C   UNL A   1     -26.347   3.286  27.123  0.00  0.00    -0.000 C 
ENDBRANCH   8   9
ENDBRANCH   1   7
TORSDOF 4
