MODEL 1911
MODEL 1
REMARK VINA RESULT:    -4.770      0.000      0.000
REMARK INTER + INTRA:          -5.749
REMARK INTER:                  -5.607
REMARK INTRA:                  -0.142
REMARK UNBOUND:                -0.142
REMARK  Name = No_1911-gen_results/8p0m/2024-11-26-14-13-15/
REMARK  4 active torsions:
REMARK  status: ('A' for Active; 'I' for Inactive)
REMARK    1  A    between atoms: C_2  and  C_3
REMARK    2  A    between atoms: C_4  and  C_5
REMARK    3  A    between atoms: C_5  and  C_6
REMARK    4  A    between atoms: C_7  and  C_8
REMARK                            x       y       z     vdW  Elec       q    Type
REMARK                         _______ _______ _______ _____ _____    ______ ____
ROOT
ATOM      1  C   UNL A   1     -23.077  -1.465  29.035  0.00  0.00    +0.123 C 
ATOM      2 CL   UNL A   1     -22.735  -1.130  28.884  0.00  0.00    -0.105 Cl
ENDROOT
BRANCH   1   4
ATOM      3  C   UNL A   1     -22.074   0.722  28.582  0.00  0.00    -0.012 C 
ATOM      4  C   UNL A   1     -22.067  -0.508  29.320  0.00  0.00    -0.009 C 
BRANCH   3   6
ATOM      5 CL   UNL A   1     -22.650   1.972  26.716  0.00  0.00    -0.109 Cl
ATOM      6  C   UNL A   1     -22.882   0.962  27.600  0.00  0.00    +0.121 C 
ENDBRANCH   3   6
ENDBRANCH   1   4
BRANCH   1   7
ATOM      7  C   UNL A   1     -24.151  -1.785  29.919  0.00  0.00    -0.006 C 
ATOM      8  C   UNL A   1     -24.733  -3.039  29.734  0.00  0.00    -0.003 C 
BRANCH   8   9
ATOM      9  C   UNL A   1     -24.300  -3.956  28.757  0.00  0.00    -0.000 C 
ATOM     10  C   UNL A   1     -24.681  -5.298  28.897  0.00  0.00    -0.000 C 
ENDBRANCH   8   9
ENDBRANCH   1   7
TORSDOF 4
ENDMDL
ENDMDL
