MODEL 1912
MODEL 1
REMARK VINA RESULT:    -6.723      0.000      0.000
REMARK INTER + INTRA:          -7.952
REMARK INTER:                  -7.509
REMARK INTRA:                  -0.443
REMARK UNBOUND:                -0.443
REMARK  Name = No_1912-gen_results/8p0m/2024-11-26-14-13-15/
REMARK  2 active torsions:
REMARK  status: ('A' for Active; 'I' for Inactive)
REMARK    1  A    between atoms: C_2  and  C_10
REMARK    2  A    between atoms: C_5  and  C_7
REMARK                            x       y       z     vdW  Elec       q    Type
REMARK                         _______ _______ _______ _____ _____    ______ ____
ROOT
ATOM      1  C   UNL A   1     -29.712 -10.114  31.500  0.00  0.00    +0.000 A 
ATOM      2  C   UNL A   1     -29.552 -10.786  30.507  0.00  0.00    +0.000 A 
ATOM      3  C   UNL A   1     -28.601 -11.782  30.403  0.00  0.00    +0.000 A 
ATOM      4  C   UNL A   1     -27.792 -12.054  31.542  0.00  0.00    +0.007 A 
ATOM      5  C   UNL A   1     -28.123 -11.395  32.677  0.00  0.00    +0.080 A 
ATOM      6  C   UNL A   1     -29.078 -10.486  32.695  0.00  0.00    +0.007 A 
ENDROOT
BRANCH   2   7
ATOM      7  C   UNL A   1     -30.305 -10.472  29.150  0.00  0.00    +0.001 A 
ATOM      8  C   UNL A   1     -30.942  -9.681  28.957  0.00  0.00    +0.000 A 
ATOM      9  C   UNL A   1     -31.673  -9.390  27.661  0.00  0.00    +0.001 A 
ATOM     10  C   UNL A   1     -31.390 -10.244  26.596  0.00  0.00    +0.011 A 
ATOM     11  C   UNL A   1     -30.491 -11.293  26.825  0.00  0.00    +0.058 A 
ATOM     12  C   UNL A   1     -29.873 -11.482  28.105  0.00  0.00    +0.011 A 
ATOM     13 CL   UNL A   1     -30.056 -12.115  25.384  0.00  0.00    -0.082 Cl
ENDBRANCH   2   7
BRANCH   5  14
ATOM     14  C   UNL A   1     -27.292 -11.713  33.857  0.00  0.00    +0.388 C 
ATOM     15  O   UNL A   1     -26.820 -12.786  34.099  0.00  0.00    -0.241 OA
ATOM     16  O   UNL A   1     -26.865 -10.693  34.586  0.00  0.00    -0.241 OA
ENDBRANCH   5  14
TORSDOF 2
ENDMDL
ENDMDL
