REMARK  Name = No_1912-gen_results/8p0m/2024-11-26-14-13-15/
REMARK  2 active torsions:
REMARK  status: ('A' for Active; 'I' for Inactive)
REMARK    1  A    between atoms: C_2  and  C_10
REMARK    2  A    between atoms: C_5  and  C_7
REMARK                            x       y       z     vdW  Elec       q    Type
REMARK                         _______ _______ _______ _____ _____    ______ ____
ROOT
ATOM      1  C   UNL A   1     -28.016  -0.814  28.878  0.00  0.00    +0.000 A 
ATOM      2  C   UNL A   1     -27.064  -0.119  28.608  0.00  0.00    +0.000 A 
ATOM      3  C   UNL A   1     -27.001   0.691  27.491  0.00  0.00    +0.000 A 
ATOM      4  C   UNL A   1     -28.137   0.736  26.635  0.00  0.00    +0.007 A 
ATOM      5  C   UNL A   1     -29.236   0.076  27.069  0.00  0.00    +0.080 A 
ATOM      6  C   UNL A   1     -29.218  -0.643  28.175  0.00  0.00    +0.007 A 
ENDROOT
BRANCH   2   7
ATOM      7  C   UNL A   1     -25.707  -0.201  29.419  0.00  0.00    +0.001 A 
ATOM      8  C   UNL A   1     -25.488  -0.831  30.209  0.00  0.00    +0.000 A 
ATOM      9  C   UNL A   1     -24.192  -0.898  30.994  0.00  0.00    +0.001 A 
ATOM     10  C   UNL A   1     -23.164  -0.071  30.546  0.00  0.00    +0.011 A 
ATOM     11  C   UNL A   1     -23.426   0.755  29.445  0.00  0.00    +0.058 A 
ATOM     12  C   UNL A   1     -24.703   0.747  28.792  0.00  0.00    +0.011 A 
ATOM     13 CL   UNL A   1     -22.018   1.538  28.857  0.00  0.00    -0.082 Cl
ENDBRANCH   2   7
BRANCH   5  14
ATOM     14  C   UNL A   1     -30.415   0.159  26.182  0.00  0.00    +0.388 C 
ATOM     15  O   UNL A   1     -30.389   0.053  24.990  0.00  0.00    -0.241 OA
ATOM     16  O   UNL A   1     -31.606   0.138  26.759  0.00  0.00    -0.241 OA
ENDBRANCH   5  14
TORSDOF 2
