REMARK  Name = No_1913-gen_results/8p0m/2024-11-26-14-13-15/
REMARK  4 active torsions:
REMARK  status: ('A' for Active; 'I' for Inactive)
REMARK    1  A    between atoms: C_3  and  C_7
REMARK    2  A    between atoms: C_6  and  O_17
REMARK    3  A    between atoms: O_17  and  C_18
REMARK    4  A    between atoms: C_18  and  C_19
REMARK                            x       y       z     vdW  Elec       q    Type
REMARK                         _______ _______ _______ _____ _____    ______ ____
ROOT
ATOM      1  C   UNL A   1     -28.016  -0.814  28.878  0.00  0.00    +0.037 A 
ATOM      2  C   UNL A   1     -27.064  -0.119  28.608  0.00  0.00    -0.001 A 
ATOM      3  C   UNL A   1     -25.765  -0.390  29.036  0.00  0.00    -0.017 A 
ATOM      4  C   UNL A   1     -25.530  -1.530  29.901  0.00  0.00    -0.001 A 
ATOM      5  C   UNL A   1     -26.658  -2.292  30.203  0.00  0.00    +0.037 A 
ATOM      6  C   UNL A   1     -27.855  -1.956  29.763  0.00  0.00    +0.139 A 
ENDROOT
BRANCH   3   7
ATOM      7  C   UNL A   1     -24.535   0.413  28.743  0.00  0.00    +0.063 C 
ATOM      8  C   UNL A   1     -24.483   1.243  27.740  0.00  0.00    -0.002 A 
ATOM      9  C   UNL A   1     -25.098   1.689  26.992  0.00  0.00    -0.001 A 
ATOM     10  C   UNL A   1     -24.734   2.597  25.923  0.00  0.00    +0.020 A 
ATOM     11  C   UNL A   1     -23.381   2.892  25.816  0.00  0.00    +0.099 A 
ATOM     12  C   UNL A   1     -22.935   1.716  27.616  0.00  0.00    +0.073 A 
ATOM     13  N   UNL A   1     -22.572   2.501  26.671  0.00  0.00    -0.247 NA
ATOM     14  C   UNL A   1     -23.448   0.283  29.766  0.00  0.00    +0.098 C 
ATOM     15  C   UNL A   1     -21.978   1.275  28.642  0.00  0.00    +0.134 C 
ATOM     16  N   UNL A   1     -22.218   0.599  29.576  0.00  0.00    -0.211 NA
ENDBRANCH   3   7
BRANCH   6  17
ATOM     17  O   UNL A   1     -28.808  -2.849  30.170  0.00  0.00    -0.471 OA
BRANCH  17  18
ATOM     18  C   UNL A   1     -30.010  -2.424  30.480  0.00  0.00    +0.232 C 
BRANCH  18  19
ATOM     19  C   UNL A   1     -30.937  -3.422  30.252  0.00  0.00    +0.021 A 
ATOM     20  C   UNL A   1     -32.283  -3.043  30.054  0.00  0.00    -0.001 A 
ATOM     21  C   UNL A   1     -33.156  -3.867  29.537  0.00  0.00    -0.000 A 
ATOM     22  C   UNL A   1     -30.780  -4.799  30.075  0.00  0.00    -0.001 A 
ATOM     23  C   UNL A   1     -31.643  -5.706  29.649  0.00  0.00    -0.000 A 
ATOM     24  C   UNL A   1     -32.908  -5.255  29.379  0.00  0.00    -0.000 A 
ENDBRANCH  18  19
ENDBRANCH  17  18
ENDBRANCH   6  17
TORSDOF 4
