MODEL 1913
MODEL 1
REMARK VINA RESULT:    -7.125      0.000      0.000
REMARK INTER + INTRA:          -9.633
REMARK INTER:                  -8.791
REMARK INTRA:                  -0.842
REMARK UNBOUND:                -0.842
REMARK  Name = No_1913-gen_results/8p0m/2024-11-26-14-13-15/
REMARK  4 active torsions:
REMARK  status: ('A' for Active; 'I' for Inactive)
REMARK    1  A    between atoms: C_3  and  C_7
REMARK    2  A    between atoms: C_6  and  O_17
REMARK    3  A    between atoms: O_17  and  C_18
REMARK    4  A    between atoms: C_18  and  C_19
REMARK                            x       y       z     vdW  Elec       q    Type
REMARK                         _______ _______ _______ _____ _____    ______ ____
ROOT
ATOM      1  C   UNL A   1     -26.966   2.181  25.776  0.00  0.00    +0.037 A 
ATOM      2  C   UNL A   1     -26.254   1.720  26.638  0.00  0.00    -0.001 A 
ATOM      3  C   UNL A   1     -25.612   0.487  26.530  0.00  0.00    -0.017 A 
ATOM      4  C   UNL A   1     -25.843  -0.329  25.354  0.00  0.00    -0.001 A 
ATOM      5  C   UNL A   1     -26.686   0.232  24.395  0.00  0.00    +0.037 A 
ATOM      6  C   UNL A   1     -27.262   1.403  24.584  0.00  0.00    +0.139 A 
ENDROOT
BRANCH   3   7
ATOM      7  C   UNL A   1     -24.713  -0.151  27.544  0.00  0.00    +0.063 C 
ATOM      8  C   UNL A   1     -23.485   0.249  27.717  0.00  0.00    -0.002 A 
ATOM      9  C   UNL A   1     -22.808   1.019  27.425  0.00  0.00    -0.001 A 
ATOM     10  C   UNL A   1     -21.410   1.192  27.764  0.00  0.00    +0.020 A 
ATOM     11  C   UNL A   1     -20.846   0.185  28.536  0.00  0.00    +0.099 A 
ATOM     12  C   UNL A   1     -22.784  -0.835  28.702  0.00  0.00    +0.073 A 
ATOM     13  N   UNL A   1     -21.545  -0.726  29.007  0.00  0.00    -0.247 NA
ATOM     14  C   UNL A   1     -25.382  -1.169  28.416  0.00  0.00    +0.098 C 
ATOM     15  C   UNL A   1     -23.615  -1.901  29.283  0.00  0.00    +0.134 C 
ATOM     16  N   UNL A   1     -24.769  -2.059  29.110  0.00  0.00    -0.211 NA
ENDBRANCH   3   7
BRANCH   6  17
ATOM     17  O   UNL A   1     -28.034   1.761  23.513  0.00  0.00    -0.471 OA
BRANCH  17  18
ATOM     18  C   UNL A   1     -29.041   2.585  23.681  0.00  0.00    +0.232 C 
BRANCH  18  19
ATOM     19  C   UNL A   1     -30.219   1.975  23.299  0.00  0.00    +0.021 A 
ATOM     20  C   UNL A   1     -31.057   2.662  22.392  0.00  0.00    -0.001 A 
ATOM     21  C   UNL A   1     -32.015   2.049  21.748  0.00  0.00    -0.000 A 
ATOM     22  C   UNL A   1     -30.727   0.703  23.574  0.00  0.00    -0.001 A 
ATOM     23  C   UNL A   1     -31.747   0.059  23.033  0.00  0.00    -0.000 A 
ATOM     24  C   UNL A   1     -32.460   0.745  22.086  0.00  0.00    -0.000 A 
ENDBRANCH  18  19
ENDBRANCH  17  18
ENDBRANCH   6  17
TORSDOF 4
ENDMDL
ENDMDL
