REMARK  Name = No_1914-gen_results/8p0m/2024-11-26-14-13-15/
REMARK  4 active torsions:
REMARK  status: ('A' for Active; 'I' for Inactive)
REMARK    1  A    between atoms: C_5  and  C_10
REMARK    2  A    between atoms: N_8  and  C_9
REMARK    3  A    between atoms: C_15  and  C_17
REMARK    4  A    between atoms: C_18  and  C_20
REMARK                            x       y       z     vdW  Elec       q    Type
REMARK                         _______ _______ _______ _____ _____    ______ ____
ROOT
ATOM      1  C   UNL A   1     -28.016  -0.814  28.878  0.00  0.00    +0.254 C 
ATOM      2  C   UNL A   1     -27.064  -0.119  28.608  0.00  0.00    +0.050 A 
ATOM      3  C   UNL A   1     -25.792  -0.430  29.076  0.00  0.00    +0.004 A 
ATOM      4  C   UNL A   1     -24.546   0.349  28.823  0.00  0.00    +0.005 A 
ATOM      5  C   UNL A   1     -24.659   1.420  27.888  0.00  0.00    +0.056 A 
ATOM      6  C   UNL A   1     -25.947   1.681  27.379  0.00  0.00    +0.001 A 
ATOM      7  C   UNL A   1     -27.044   0.974  27.687  0.00  0.00    -0.012 A 
ATOM      8  N   UNL A   1     -29.180  -0.120  29.129  0.00  0.00    -0.230 N 
ATOM      9  O   UNL A   1     -27.967  -1.933  29.170  0.00  0.00    -0.270 OA
ATOM     10  C   UNL A   1     -29.422   1.243  28.804  0.00  0.00    +0.038 C 
ATOM     11  C   UNL A   1     -30.180   1.978  29.189  0.00  0.00    +0.011 C 
ATOM     12  C   UNL A   1     -28.243   1.791  27.945  0.00  0.00    +0.068 C 
ENDROOT
BRANCH   5  13
ATOM     13  C   UNL A   1     -23.446   2.155  27.609  0.00  0.00    +0.284 C 
ATOM     14  N   UNL A   1     -23.471   3.132  26.809  0.00  0.00    -0.084 NA
ATOM     15  O   UNL A   1     -22.237   1.629  27.768  0.00  0.00    -0.267 OA
ENDBRANCH   5  13
BRANCH   8  16
ATOM     16  C   UNL A   1     -30.209  -0.765  29.743  0.00  0.00    +0.284 C 
ATOM     17  O   UNL A   1     -31.391  -0.439  29.440  0.00  0.00    -0.196 OA
ENDBRANCH   8  16
BRANCH  11  18
ATOM     18  C   UNL A   1     -30.117   3.382  29.126  0.00  0.00    +0.001 C 
ATOM     19  C   UNL A   1     -30.992   4.263  29.710  0.00  0.00    +0.000 C 
BRANCH  19  20
ATOM     20  C   UNL A   1     -32.124   3.657  30.305  0.00  0.00    +0.000 C 
ATOM     21  C   UNL A   1     -32.293   2.334  30.410  0.00  0.00    +0.000 C 
ENDBRANCH  19  20
ENDBRANCH  11  18
TORSDOF 4
