MODEL 1914
MODEL 1
REMARK VINA RESULT:    -7.159      0.000      0.000
REMARK INTER + INTRA:          -9.258
REMARK INTER:                  -8.833
REMARK INTRA:                  -0.426
REMARK UNBOUND:                -0.426
REMARK  Name = No_1914-gen_results/8p0m/2024-11-26-14-13-15/
REMARK  4 active torsions:
REMARK  status: ('A' for Active; 'I' for Inactive)
REMARK    1  A    between atoms: C_5  and  C_10
REMARK    2  A    between atoms: N_8  and  C_9
REMARK    3  A    between atoms: C_15  and  C_17
REMARK    4  A    between atoms: C_18  and  C_20
REMARK                            x       y       z     vdW  Elec       q    Type
REMARK                         _______ _______ _______ _____ _____    ______ ____
ROOT
ATOM      1  C   UNL A   1     -22.787   1.131  27.425  0.00  0.00    +0.254 C 
ATOM      2  C   UNL A   1     -23.846   1.426  26.920  0.00  0.00    +0.050 A 
ATOM      3  C   UNL A   1     -24.180   2.754  26.677  0.00  0.00    +0.004 A 
ATOM      4  C   UNL A   1     -25.451   3.245  26.073  0.00  0.00    +0.005 A 
ATOM      5  C   UNL A   1     -26.327   2.243  25.561  0.00  0.00    +0.056 A 
ATOM      6  C   UNL A   1     -25.940   0.903  25.764  0.00  0.00    +0.001 A 
ATOM      7  C   UNL A   1     -24.804   0.522  26.365  0.00  0.00    -0.012 A 
ATOM      8  N   UNL A   1     -22.853   0.090  28.326  0.00  0.00    -0.230 N 
ATOM      9  O   UNL A   1     -21.829   1.780  27.400  0.00  0.00    -0.270 OA
ATOM     10  C   UNL A   1     -23.934  -0.823  28.465  0.00  0.00    +0.038 C 
ATOM     11  C   UNL A   1     -24.230  -1.506  29.307  0.00  0.00    +0.011 C 
ATOM     12  C   UNL A   1     -24.961  -0.593  27.315  0.00  0.00    +0.068 C 
ENDROOT
BRANCH   5  13
ATOM     13  C   UNL A   1     -27.544   2.714  24.939  0.00  0.00    +0.284 C 
ATOM     14  N   UNL A   1     -28.458   3.221  25.647  0.00  0.00    -0.084 NA
ATOM     15  O   UNL A   1     -27.969   2.264  23.764  0.00  0.00    -0.267 OA
ENDBRANCH   5  13
BRANCH   8  16
ATOM     16  C   UNL A   1     -21.808  -0.111  29.174  0.00  0.00    +0.284 C 
ATOM     17  O   UNL A   1     -20.972  -1.016  28.897  0.00  0.00    -0.196 OA
ENDBRANCH   8  16
BRANCH  11  18
ATOM     18  C   UNL A   1     -25.495  -2.073  29.543  0.00  0.00    +0.001 C 
ATOM     19  C   UNL A   1     -25.787  -3.411  29.616  0.00  0.00    +0.000 C 
BRANCH  19  20
ATOM     20  C   UNL A   1     -24.710  -4.265  29.279  0.00  0.00    +0.000 C 
ATOM     21  C   UNL A   1     -24.858  -5.542  28.908  0.00  0.00    +0.000 C 
ENDBRANCH  19  20
ENDBRANCH  11  18
TORSDOF 4
ENDMDL
ENDMDL
