REMARK  Name = No_1915-gen_results/8p0m/2024-11-26-14-13-15/
REMARK  3 active torsions:
REMARK  status: ('A' for Active; 'I' for Inactive)
REMARK    1  A    between atoms: C_2  and  C_19
REMARK    2  A    between atoms: C_4  and  C_7
REMARK    3  A    between atoms: C_7  and  C_8
REMARK                            x       y       z     vdW  Elec       q    Type
REMARK                         _______ _______ _______ _____ _____    ______ ____
ROOT
ATOM      1  C   UNL A   1     -23.817   0.476  29.912  0.00  0.00    -0.018 A 
ATOM      2  C   UNL A   1     -23.248   0.822  28.723  0.00  0.00    -0.004 A 
ATOM      3  C   UNL A   1     -23.568   2.047  28.066  0.00  0.00    -0.004 A 
ATOM      4  C   UNL A   1     -24.455   2.893  28.721  0.00  0.00    -0.016 A 
ATOM      5  C   UNL A   1     -24.959   2.659  29.981  0.00  0.00    +0.049 A 
ATOM      6  C   UNL A   1     -24.669   1.479  30.663  0.00  0.00    +0.000 A 
ATOM      7  C   UNL A   1     -25.840   3.641  30.616  0.00  0.00    +0.249 C 
ATOM      8  N   UNL A   1     -26.067   4.609  30.373  0.00  0.00    -0.277 N 
ATOM      9  O   UNL A   1     -26.511   3.078  31.629  0.00  0.00    -0.270 OA
ATOM     10  C   UNL A   1     -27.029   5.620  31.033  0.00  0.00    +0.094 C 
ATOM     11  C   UNL A   1     -27.698   6.293  30.263  0.00  0.00    +0.022 C 
ATOM     12  C   UNL A   1     -27.221   6.637  29.127  0.00  0.00    +0.004 C 
ATOM     13  C   UNL A   1     -26.140   5.936  28.454  0.00  0.00    +0.020 C 
ATOM     14  C   UNL A   1     -25.695   4.997  29.054  0.00  0.00    +0.080 C 
ATOM     15  C   UNL A   1     -24.823   4.008  28.369  0.00  0.00    +0.046 C 
ENDROOT
BRANCH   1  16
ATOM     16  C   UNL A   1     -24.389  -0.805  30.164  0.00  0.00    +0.052 C 
BRANCH  16  20
ATOM     17  C   UNL A   1     -28.016  -0.814  28.878  0.00  0.00    +0.002 A 
ATOM     18  C   UNL A   1     -28.469  -0.785  29.829  0.00  0.00    +0.079 A 
ATOM     19  C   UNL A   1     -26.504  -0.778  28.877  0.00  0.00    -0.025 A 
ATOM     20  C   UNL A   1     -25.810  -0.853  30.103  0.00  0.00    -0.022 A 
ATOM     21  C   UNL A   1     -27.991  -0.892  31.226  0.00  0.00    +0.006 A 
ATOM     22  C   UNL A   1     -26.604  -0.868  31.265  0.00  0.00    -0.004 A 
ATOM     23  C   UNL A   1     -25.857  -0.617  27.607  0.00  0.00    +0.031 C 
BRANCH  18  24
ATOM     24  C   UNL A   1     -30.100  -0.823  29.837  0.00  0.00    +0.388 C 
ATOM     25  O   UNL A   1     -30.561  -0.395  28.881  0.00  0.00    -0.241 OA
ATOM     26  O   UNL A   1     -30.753  -1.287  30.822  0.00  0.00    -0.241 OA
ENDBRANCH  18  24
ENDBRANCH  16  20
ENDBRANCH   1  16
TORSDOF 3
