MODEL 1915
MODEL 1
REMARK VINA RESULT:    -7.828      0.000      0.000
REMARK INTER + INTRA:          -9.971
REMARK INTER:                  -9.201
REMARK INTRA:                  -0.770
REMARK UNBOUND:                -0.770
REMARK  Name = No_1915-gen_results/8p0m/2024-11-26-14-13-15/
REMARK  3 active torsions:
REMARK  status: ('A' for Active; 'I' for Inactive)
REMARK    1  A    between atoms: C_2  and  C_19
REMARK    2  A    between atoms: C_4  and  C_7
REMARK    3  A    between atoms: C_7  and  C_8
REMARK                            x       y       z     vdW  Elec       q    Type
REMARK                         _______ _______ _______ _____ _____    ______ ____
ROOT
ATOM      1  C   UNL A   1     -27.025   1.199  25.356  0.00  0.00    -0.018 A 
ATOM      2  C   UNL A   1     -27.067   2.547  25.157  0.00  0.00    -0.004 A 
ATOM      3  C   UNL A   1     -28.106   3.161  24.397  0.00  0.00    -0.004 A 
ATOM      4  C   UNL A   1     -29.100   2.323  23.907  0.00  0.00    -0.016 A 
ATOM      5  C   UNL A   1     -29.182   0.976  24.185  0.00  0.00    +0.049 A 
ATOM      6  C   UNL A   1     -28.193   0.335  24.928  0.00  0.00    +0.000 A 
ATOM      7  C   UNL A   1     -30.303   0.186  23.673  0.00  0.00    +0.249 C 
ATOM      8  N   UNL A   1     -31.189   0.461  23.242  0.00  0.00    -0.277 N 
ATOM      9  O   UNL A   1     -30.010  -1.120  23.717  0.00  0.00    -0.270 OA
ATOM     10  C   UNL A   1     -32.346  -0.388  22.672  0.00  0.00    +0.094 C 
ATOM     11  C   UNL A   1     -32.829   0.012  21.623  0.00  0.00    +0.022 C 
ATOM     12  C   UNL A   1     -32.883   1.266  21.376  0.00  0.00    +0.004 C 
ATOM     13  C   UNL A   1     -32.023   2.256  22.003  0.00  0.00    +0.020 C 
ATOM     14  C   UNL A   1     -31.245   1.815  22.804  0.00  0.00    +0.080 C 
ATOM     15  C   UNL A   1     -30.106   2.640  23.282  0.00  0.00    +0.046 C 
ENDROOT
BRANCH   1  16
ATOM     16  C   UNL A   1     -25.851   0.415  25.159  0.00  0.00    +0.052 C 
BRANCH  16  20
ATOM     17  C   UNL A   1     -23.025   0.841  27.736  0.00  0.00    +0.002 A 
ATOM     18  C   UNL A   1     -23.297   0.016  28.332  0.00  0.00    +0.079 A 
ATOM     19  C   UNL A   1     -23.875   1.059  26.503  0.00  0.00    -0.025 A 
ATOM     20  C   UNL A   1     -25.026   0.266  26.308  0.00  0.00    -0.022 A 
ATOM     21  C   UNL A   1     -24.440  -0.923  28.372  0.00  0.00    +0.006 A 
ATOM     22  C   UNL A   1     -25.248  -0.749  27.257  0.00  0.00    -0.004 A 
ATOM     23  C   UNL A   1     -23.421   2.045  25.565  0.00  0.00    +0.031 C 
BRANCH  18  24
ATOM     24  C   UNL A   1     -22.384  -0.225  29.663  0.00  0.00    +0.388 C 
ATOM     25  O   UNL A   1     -21.282  -0.415  29.420  0.00  0.00    -0.241 OA
ATOM     26  O   UNL A   1     -22.883  -0.197  30.830  0.00  0.00    -0.241 OA
ENDBRANCH  18  24
ENDBRANCH  16  20
ENDBRANCH   1  16
TORSDOF 3
ENDMDL
ENDMDL
