MODEL 1916
MODEL 1
REMARK VINA RESULT:    -5.560      0.000      0.000
REMARK INTER + INTRA:          -7.330
REMARK INTER:                  -6.535
REMARK INTRA:                  -0.795
REMARK UNBOUND:                -0.795
REMARK  Name = No_1916-gen_results/8p0m/2024-11-26-14-13-15/
REMARK  3 active torsions:
REMARK  status: ('A' for Active; 'I' for Inactive)
REMARK    1  A    between atoms: C_3  and  C_4
REMARK    2  A    between atoms: C_4  and  C_9
REMARK    3  A    between atoms: C_10  and  C_11
REMARK                            x       y       z     vdW  Elec       q    Type
REMARK                         _______ _______ _______ _____ _____    ______ ____
ROOT
ATOM      1  C   UNL A   1     -25.909  -2.989  29.635  0.00  0.00    -0.004 A 
ATOM      2  C   UNL A   1     -26.234  -3.989  29.696  0.00  0.00    -0.000 A 
ATOM      3  C   UNL A   1     -24.700  -2.759  28.897  0.00  0.00    -0.018 A 
ATOM      4  C   UNL A   1     -25.512  -5.222  29.411  0.00  0.00    -0.000 A 
ATOM      5  C   UNL A   1     -24.344  -5.039  28.763  0.00  0.00    -0.000 A 
ATOM      6  C   UNL A   1     -23.896  -3.761  28.445  0.00  0.00    -0.004 A 
ENDROOT
BRANCH   3   7
ATOM      7  C   UNL A   1     -24.260  -1.388  28.567  0.00  0.00    +0.044 C 
ATOM      8  C   UNL A   1     -25.026  -0.524  27.872  0.00  0.00    +0.009 C 
BRANCH   7   9
ATOM      9  C   UNL A   1     -23.054  -0.829  29.133  0.00  0.00    -0.022 C 
ATOM     10  C   UNL A   1     -22.962  -0.811  30.589  0.00  0.00    -0.004 C 
BRANCH  10  11
ATOM     11  C   UNL A   1     -23.644   0.099  31.299  0.00  0.00    -0.000 C 
ATOM     12  C   UNL A   1     -23.738   1.493  30.862  0.00  0.00    -0.000 C 
ENDBRANCH  10  11
ENDBRANCH   7   9
ENDBRANCH   3   7
TORSDOF 3
ENDMDL
ENDMDL
