REMARK  Name = No_1916-gen_results/8p0m/2024-11-26-14-13-15/
REMARK  3 active torsions:
REMARK  status: ('A' for Active; 'I' for Inactive)
REMARK    1  A    between atoms: C_3  and  C_4
REMARK    2  A    between atoms: C_4  and  C_9
REMARK    3  A    between atoms: C_10  and  C_11
REMARK                            x       y       z     vdW  Elec       q    Type
REMARK                         _______ _______ _______ _____ _____    ______ ____
ROOT
ATOM      1  C   UNL A   1     -28.016  -0.814  28.878  0.00  0.00    -0.004 A 
ATOM      2  C   UNL A   1     -28.469  -0.785  29.829  0.00  0.00    -0.000 A 
ATOM      3  C   UNL A   1     -28.196   0.348  28.055  0.00  0.00    -0.018 A 
ATOM      4  C   UNL A   1     -29.496   0.109  30.345  0.00  0.00    -0.000 A 
ATOM      5  C   UNL A   1     -29.728   1.187  29.569  0.00  0.00    -0.000 A 
ATOM      6  C   UNL A   1     -29.042   1.367  28.372  0.00  0.00    -0.004 A 
ENDROOT
BRANCH   3   7
ATOM      7  C   UNL A   1     -27.442   0.510  26.795  0.00  0.00    +0.044 C 
ATOM      8  C   UNL A   1     -27.843   1.333  25.806  0.00  0.00    +0.009 C 
BRANCH   7   9
ATOM      9  C   UNL A   1     -26.128  -0.067  26.626  0.00  0.00    -0.022 C 
ATOM     10  C   UNL A   1     -25.006   0.693  27.166  0.00  0.00    -0.004 C 
BRANCH  10  11
ATOM     11  C   UNL A   1     -24.548   1.774  26.519  0.00  0.00    -0.000 C 
ATOM     12  C   UNL A   1     -23.320   2.451  26.938  0.00  0.00    -0.000 C 
ENDBRANCH  10  11
ENDBRANCH   7   9
ENDBRANCH   3   7
TORSDOF 3
