MODEL 1917
MODEL 1
REMARK VINA RESULT:    -6.510      0.000      0.000
REMARK INTER + INTRA:          -8.101
REMARK INTER:                  -7.652
REMARK INTRA:                  -0.449
REMARK UNBOUND:                -0.449
REMARK  Name = No_1917-gen_results/8p0m/2024-11-26-14-13-15/
REMARK  3 active torsions:
REMARK  status: ('A' for Active; 'I' for Inactive)
REMARK    1  A    between atoms: C_2  and  C_7
REMARK    2  A    between atoms: C_7  and  C_8
REMARK    3  A    between atoms: C_12  and  C_13
REMARK                            x       y       z     vdW  Elec       q    Type
REMARK                         _______ _______ _______ _____ _____    ______ ____
ROOT
ATOM      1  C   UNL A   1     -23.631  -1.176  29.818  0.00  0.00    +0.049 C 
ENDROOT
BRANCH   1   3
ATOM      2  C   UNL A   1     -24.471  -0.321  27.742  0.00  0.00    -0.004 A 
ATOM      3  C   UNL A   1     -23.616  -0.272  28.597  0.00  0.00    -0.018 A 
ATOM      4  C   UNL A   1     -22.566   0.587  28.570  0.00  0.00    -0.004 A 
ATOM      5  C   UNL A   1     -22.459   1.478  27.486  0.00  0.00    -0.000 A 
ATOM      6  C   UNL A   1     -24.476   0.624  26.655  0.00  0.00    -0.000 A 
ATOM      7  C   UNL A   1     -23.427   1.489  26.567  0.00  0.00    -0.000 A 
ENDBRANCH   1   3
BRANCH   1   8
ATOM      8  C   UNL A   1     -24.387  -2.455  29.612  0.00  0.00    -0.033 C 
ATOM      9  C   UNL A   1     -25.570  -2.611  30.079  0.00  0.00    -0.008 C 
ATOM     10  C   UNL A   1     -26.265  -3.798  29.822  0.00  0.00    -0.005 C 
ATOM     11  C   UNL A   1     -25.545  -4.787  29.180  0.00  0.00    -0.020 C 
ATOM     12  C   UNL A   1     -23.922  -3.663  28.977  0.00  0.00    +0.076 C 
BRANCH  12  13
ATOM     13  C   UNL A   1     -24.272  -4.869  28.582  0.00  0.00    +0.202 C 
ATOM     14  F   UNL A   1     -24.777  -5.793  29.040  0.00  0.00    -0.234 F 
ENDBRANCH  12  13
ENDBRANCH   1   8
TORSDOF 3
ENDMDL
ENDMDL
