REMARK  Name = No_1918-gen_results/8p0m/2024-11-26-14-13-15/
REMARK  3 active torsions:
REMARK  status: ('A' for Active; 'I' for Inactive)
REMARK    1  A    between atoms: C_2  and  C_8
REMARK    2  A    between atoms: C_4  and  C_11
REMARK    3  A    between atoms: C_8  and  C_9
REMARK                            x       y       z     vdW  Elec       q    Type
REMARK                         _______ _______ _______ _____ _____    ______ ____
ROOT
ATOM      1  C   UNL A   1     -28.016  -0.814  28.878  0.00  0.00    -0.048 C 
ATOM      2  C   UNL A   1     -28.469  -0.785  29.829  0.00  0.00    -0.032 C 
ATOM      3  C   UNL A   1     -28.196   0.348  28.055  0.00  0.00    +0.022 C 
ATOM      4  C   UNL A   1     -27.442   0.510  26.795  0.00  0.00    +0.004 C 
ATOM      5  C   UNL A   1     -26.169  -0.079  26.679  0.00  0.00    +0.001 C 
ATOM      6  C   UNL A   1     -25.731  -0.961  27.688  0.00  0.00    +0.004 C 
ATOM      7  C   UNL A   1     -26.504  -1.222  28.758  0.00  0.00    +0.022 C 
ENDROOT
BRANCH   4   8
ATOM      8  C   UNL A   1     -27.825   1.422  25.726  0.00  0.00    +0.000 C 
ATOM      9  C   UNL A   1     -27.573   2.684  25.975  0.00  0.00    +0.000 C 
ATOM     10  C   UNL A   1     -29.297   1.317  25.404  0.00  0.00    +0.000 C 
ENDBRANCH   4   8
BRANCH   2  11
ATOM     11  C   UNL A   1     -28.421  -2.045  30.734  0.00  0.00    +0.061 C 
BRANCH  11  12
ATOM     12  C   UNL A   1     -28.642  -3.048  30.334  0.00  0.00    +0.187 C 
ATOM     13  O   UNL A   1     -29.660  -3.671  30.709  0.00  0.00    -0.220 OA
ENDBRANCH  11  12
ENDBRANCH   2  11
TORSDOF 3
