MODEL 1918
MODEL 1
REMARK VINA RESULT:    -5.757      0.000      0.000
REMARK INTER + INTRA:          -7.122
REMARK INTER:                  -6.767
REMARK INTRA:                  -0.356
REMARK UNBOUND:                -0.356
REMARK  Name = No_1918-gen_results/8p0m/2024-11-26-14-13-15/
REMARK  3 active torsions:
REMARK  status: ('A' for Active; 'I' for Inactive)
REMARK    1  A    between atoms: C_2  and  C_8
REMARK    2  A    between atoms: C_4  and  C_11
REMARK    3  A    between atoms: C_8  and  C_9
REMARK                            x       y       z     vdW  Elec       q    Type
REMARK                         _______ _______ _______ _____ _____    ______ ____
ROOT
ATOM      1  C   UNL A   1     -23.775  -1.154  28.455  0.00  0.00    -0.048 C 
ATOM      2  C   UNL A   1     -24.498  -1.728  28.963  0.00  0.00    -0.032 C 
ATOM      3  C   UNL A   1     -24.202   0.135  27.990  0.00  0.00    +0.022 C 
ATOM      4  C   UNL A   1     -23.229   1.109  27.453  0.00  0.00    +0.004 C 
ATOM      5  C   UNL A   1     -21.904   1.084  27.926  0.00  0.00    +0.001 C 
ATOM      6  C   UNL A   1     -21.494   0.017  28.752  0.00  0.00    +0.004 C 
ATOM      7  C   UNL A   1     -22.358  -0.953  29.103  0.00  0.00    +0.022 C 
ENDROOT
BRANCH   4   8
ATOM      8  C   UNL A   1     -23.589   2.246  26.618  0.00  0.00    +0.000 C 
ATOM      9  C   UNL A   1     -24.844   2.265  26.240  0.00  0.00    +0.000 C 
ATOM     10  C   UNL A   1     -22.746   2.308  25.366  0.00  0.00    +0.000 C 
ENDBRANCH   4   8
BRANCH   2  11
ATOM     11  C   UNL A   1     -24.153  -3.178  29.395  0.00  0.00    +0.061 C 
BRANCH  11  12
ATOM     12  C   UNL A   1     -24.564  -4.050  28.860  0.00  0.00    +0.187 C 
ATOM     13  O   UNL A   1     -23.803  -4.856  28.279  0.00  0.00    -0.220 OA
ENDBRANCH  11  12
ENDBRANCH   2  11
TORSDOF 3
ENDMDL
ENDMDL
