MODEL 1919
MODEL 1
REMARK VINA RESULT:    -5.272      0.000      0.000
REMARK INTER + INTRA:          -6.250
REMARK INTER:                  -5.888
REMARK INTRA:                  -0.362
REMARK UNBOUND:                -0.362
REMARK  Name = No_1919-gen_results/8p0m/2024-11-26-14-13-15/
REMARK  2 active torsions:
REMARK  status: ('A' for Active; 'I' for Inactive)
REMARK    1  A    between atoms: C_3  and  C_4
REMARK    2  A    between atoms: C_4  and  C_8
REMARK                            x       y       z     vdW  Elec       q    Type
REMARK                         _______ _______ _______ _____ _____    ______ ____
ROOT
ATOM      1  C   UNL A   1     -26.368  -4.259  29.707  0.00  0.00    -0.000 A 
ATOM      2  C   UNL A   1     -26.044  -3.094  29.730  0.00  0.00    -0.004 A 
ATOM      3  C   UNL A   1     -24.849  -2.669  29.160  0.00  0.00    -0.018 A 
ATOM      4  C   UNL A   1     -25.403  -5.280  29.292  0.00  0.00    -0.000 A 
ATOM      5  C   UNL A   1     -24.246  -4.951  28.631  0.00  0.00    -0.000 A 
ATOM      6  C   UNL A   1     -23.917  -3.596  28.558  0.00  0.00    -0.004 A 
ENDROOT
BRANCH   3   7
ATOM      7  C   UNL A   1     -24.458  -1.307  29.096  0.00  0.00    +0.052 C 
BRANCH   7   8
ATOM      8  C   UNL A   1     -23.174  -0.894  28.971  0.00  0.00    -0.026 C 
ATOM      9  C   UNL A   1     -22.394  -0.546  30.104  0.00  0.00    -0.030 C 
ATOM     10  C   UNL A   1     -22.862  -0.652  31.399  0.00  0.00    +0.030 C 
ENDBRANCH   7   8
ENDBRANCH   3   7
TORSDOF 2
ENDMDL
ENDMDL
