REMARK  Name = No_192-gen_results/8p0m/2024-11-26-14-13-15/
REMARK  2 active torsions:
REMARK  status: ('A' for Active; 'I' for Inactive)
REMARK    1  A    between atoms: C_4  and  C_9
REMARK    2  A    between atoms: C_9  and  C_10
REMARK                            x       y       z     vdW  Elec       q    Type
REMARK                         _______ _______ _______ _____ _____    ______ ____
ROOT
ATOM      1  C   UNL A   1     -28.016  -0.814  28.878  0.00  0.00    -0.000 A 
ATOM      2  C   UNL A   1     -28.469  -0.785  29.829  0.00  0.00    -0.000 A 
ATOM      3  C   UNL A   1     -28.196   0.348  28.055  0.00  0.00    -0.004 A 
ATOM      4  C   UNL A   1     -27.442   0.510  26.795  0.00  0.00    -0.018 A 
ATOM      5  C   UNL A   1     -27.843   1.333  25.806  0.00  0.00    -0.004 A 
ATOM      6  C   UNL A   1     -29.496   0.109  30.345  0.00  0.00    -0.000 A 
ATOM      7  C   UNL A   1     -29.728   1.187  29.569  0.00  0.00    -0.000 A 
ATOM      8  C   UNL A   1     -29.042   1.367  28.372  0.00  0.00    -0.000 A 
ATOM      9  C   UNL A   1     -29.282   2.416  27.508  0.00  0.00    -0.000 A 
ATOM     10  C   UNL A   1     -28.650   2.473  26.231  0.00  0.00    -0.000 A 
ENDROOT
BRANCH   4  11
ATOM     11  C   UNL A   1     -26.128  -0.067  26.626  0.00  0.00    +0.053 C 
BRANCH  11  12
ATOM     12  C   UNL A   1     -25.006   0.693  27.166  0.00  0.00    -0.018 A 
ATOM     13  C   UNL A   1     -24.723   1.052  28.328  0.00  0.00    -0.004 A 
ATOM     14  C   UNL A   1     -23.845   1.152  28.886  0.00  0.00    -0.000 A 
ATOM     15  C   UNL A   1     -22.540   1.420  28.134  0.00  0.00    -0.000 A 
ATOM     16  C   UNL A   1     -22.667   1.464  26.768  0.00  0.00    -0.000 A 
ATOM     17  C   UNL A   1     -23.897   0.908  26.217  0.00  0.00    -0.004 A 
ENDBRANCH  11  12
ENDBRANCH   4  11
TORSDOF 2
