MODEL 1920
MODEL 1
REMARK VINA RESULT:    -6.736      0.000      0.000
REMARK INTER + INTRA:         -12.016
REMARK INTER:                 -10.279
REMARK INTRA:                  -1.737
REMARK UNBOUND:                -1.737
REMARK  Name = No_1920-gen_results/8p0m/2024-11-26-14-13-15/
REMARK  9 active torsions:
REMARK  status: ('A' for Active; 'I' for Inactive)
REMARK    1  A    between atoms: C_3  and  C_4
REMARK    2  A    between atoms: C_6  and  C_13
REMARK    3  A    between atoms: C_13  and  O_15
REMARK    4  A    between atoms: O_15  and  C_21
REMARK    5  A    between atoms: C_21  and  C_22
REMARK    6  A    between atoms: C_22  and  O_24
REMARK    7  A    between atoms: O_24  and  C_25
REMARK    8  A    between atoms: C_25  and  C_26
REMARK    9  A    between atoms: C_25  and  N_30
REMARK                            x       y       z     vdW  Elec       q    Type
REMARK                         _______ _______ _______ _____ _____    ______ ____
ROOT
ATOM      1  C   UNL A   1     -24.278   1.405  26.357  0.00  0.00    +0.344 C 
ATOM      2  O   UNL A   1     -24.013   2.518  26.255  0.00  0.00    -0.245 OA
ENDROOT
BRANCH   1   6
ATOM      3  C   UNL A   1     -26.763   0.742  26.716  0.00  0.00    +0.146 A 
ATOM      4  C   UNL A   1     -27.843   0.469  26.245  0.00  0.00    +0.030 A 
ATOM      5  C   UNL A   1     -27.987   0.201  24.888  0.00  0.00    +0.004 A 
ATOM      6  C   UNL A   1     -25.611   0.981  25.833  0.00  0.00    +0.103 A 
ATOM      7  C   UNL A   1     -25.652   0.669  24.496  0.00  0.00    +0.009 A 
ATOM      8  C   UNL A   1     -26.879   0.298  23.921  0.00  0.00    +0.000 A 
ATOM      9  F   UNL A   1     -26.564   1.052  27.965  0.00  0.00    -0.204 F 
BRANCH   5  10
ATOM     10  C   UNL A   1     -29.259  -0.136  24.187  0.00  0.00    +0.021 A 
ATOM     11  C   UNL A   1     -30.006  -1.354  24.355  0.00  0.00    +0.002 A 
ATOM     12  C   UNL A   1     -31.207  -1.494  23.696  0.00  0.00    +0.003 A 
ATOM     13  C   UNL A   1     -31.905  -0.544  23.025  0.00  0.00    +0.039 A 
ATOM     14  C   UNL A   1     -29.988   0.893  23.461  0.00  0.00    +0.125 A 
ATOM     15  C   UNL A   1     -31.255   0.655  22.901  0.00  0.00    +0.165 A 
ATOM     16  O   UNL A   1     -31.831   1.685  22.235  0.00  0.00    -0.439 OA
ATOM     17  C   UNL A   1     -31.690   2.897  22.952  0.00  0.00    +0.241 C 
ATOM     18  C   UNL A   1     -30.518   3.054  23.726  0.00  0.00    +0.039 C 
ATOM     19  N   UNL A   1     -30.016   2.180  24.090  0.00  0.00    -0.197 NA
ENDBRANCH   5  10
ENDBRANCH   1   6
BRANCH   1  20
ATOM     20  O   UNL A   1     -23.575   0.627  26.942  0.00  0.00    -0.433 OA
BRANCH  20  21
ATOM     21  C   UNL A   1     -22.832   1.052  28.065  0.00  0.00    +0.317 C 
BRANCH  21  22
ATOM     22  C   UNL A   1     -22.053   0.028  28.670  0.00  0.00    +0.364 C 
ATOM     23  O   UNL A   1     -20.925   0.001  28.579  0.00  0.00    -0.246 OA
BRANCH  22  24
ATOM     24  O   UNL A   1     -22.657  -0.917  29.300  0.00  0.00    -0.421 OA
BRANCH  24  25
ATOM     25  C   UNL A   1     -23.962  -0.963  29.694  0.00  0.00    +0.344 C 
BRANCH  25  26
ATOM     26  N   UNL A   1     -24.032  -0.943  31.078  0.00  0.00    -0.265 N 
ATOM     27  C   UNL A   1     -23.617  -1.447  31.920  0.00  0.00    +0.062 C 
ATOM     28  C   UNL A   1     -23.906  -1.109  33.311  0.00  0.00    +0.024 C 
ATOM     29  C   UNL A   1     -24.984   0.187  31.609  0.00  0.00    +0.132 C 
ATOM     30  C   UNL A   1     -24.873  -0.039  33.019  0.00  0.00    +0.195 C 
ATOM     31  O   UNL A   1     -26.170  -0.513  33.462  0.00  0.00    -0.216 OA
ENDBRANCH  25  26
BRANCH  25  32
ATOM     32  C   UNL A   1     -24.605  -2.206  29.168  0.00  0.00    +0.454 C 
ATOM     33  F   UNL A   1     -23.886  -3.154  29.228  0.00  0.00    -0.165 F 
ATOM     34  F   UNL A   1     -24.966  -2.079  27.837  0.00  0.00    -0.165 F 
ATOM     35  F   UNL A   1     -25.735  -2.451  29.837  0.00  0.00    -0.165 F 
ENDBRANCH  25  32
ENDBRANCH  24  25
ENDBRANCH  22  24
ENDBRANCH  21  22
ENDBRANCH  20  21
ENDBRANCH   1  20
TORSDOF 9
ENDMDL
ENDMDL
