REMARK  Name = No_1920-gen_results/8p0m/2024-11-26-14-13-15/
REMARK  9 active torsions:
REMARK  status: ('A' for Active; 'I' for Inactive)
REMARK    1  A    between atoms: C_3  and  C_4
REMARK    2  A    between atoms: C_6  and  C_13
REMARK    3  A    between atoms: C_13  and  O_15
REMARK    4  A    between atoms: O_15  and  C_21
REMARK    5  A    between atoms: C_21  and  C_22
REMARK    6  A    between atoms: C_22  and  O_24
REMARK    7  A    between atoms: O_24  and  C_25
REMARK    8  A    between atoms: C_25  and  C_26
REMARK    9  A    between atoms: C_25  and  N_30
REMARK                            x       y       z     vdW  Elec       q    Type
REMARK                         _______ _______ _______ _____ _____    ______ ____
ROOT
ATOM      1  C   UNL A   1     -29.044  -2.731  30.297  0.00  0.00    +0.344 C 
ATOM      2  O   UNL A   1     -29.372  -2.629  31.393  0.00  0.00    -0.245 OA
ENDROOT
BRANCH   1   6
ATOM      3  C   UNL A   1     -28.016  -0.814  28.878  0.00  0.00    +0.146 A 
ATOM      4  C   UNL A   1     -27.064  -0.119  28.608  0.00  0.00    +0.030 A 
ATOM      5  C   UNL A   1     -25.792  -0.430  29.076  0.00  0.00    +0.004 A 
ATOM      6  C   UNL A   1     -27.882  -1.899  29.863  0.00  0.00    +0.103 A 
ATOM      7  C   UNL A   1     -26.653  -2.314  30.314  0.00  0.00    +0.009 A 
ATOM      8  C   UNL A   1     -25.515  -1.561  29.979  0.00  0.00    +0.000 A 
ATOM      9  F   UNL A   1     -29.240  -0.556  28.517  0.00  0.00    -0.204 F 
BRANCH   5  10
ATOM     10  C   UNL A   1     -24.546   0.349  28.823  0.00  0.00    +0.021 A 
ATOM     11  C   UNL A   1     -23.241   0.022  29.332  0.00  0.00    +0.002 A 
ATOM     12  C   UNL A   1     -22.165   0.794  28.952  0.00  0.00    +0.003 A 
ATOM     13  C   UNL A   1     -22.124   1.748  27.989  0.00  0.00    +0.039 A 
ATOM     14  C   UNL A   1     -24.523   1.378  27.795  0.00  0.00    +0.125 A 
ATOM     15  C   UNL A   1     -23.339   2.042  27.430  0.00  0.00    +0.165 A 
ATOM     16  O   UNL A   1     -23.444   2.993  26.470  0.00  0.00    -0.439 OA
ATOM     17  C   UNL A   1     -24.258   2.548  25.401  0.00  0.00    +0.241 C 
ATOM     18  C   UNL A   1     -25.320   1.673  25.721  0.00  0.00    +0.039 C 
ATOM     19  N   UNL A   1     -25.240   1.059  26.596  0.00  0.00    -0.197 NA
ENDBRANCH   5  10
ENDBRANCH   1   6
BRANCH   1  20
ATOM     20  O   UNL A   1     -29.655  -3.391  29.501  0.00  0.00    -0.433 OA
BRANCH  20  21
ATOM     21  C   UNL A   1     -30.286  -4.586  29.910  0.00  0.00    +0.317 C 
BRANCH  21  22
ATOM     22  C   UNL A   1     -31.691  -4.607  29.693  0.00  0.00    +0.364 C 
ATOM     23  O   UNL A   1     -32.291  -5.566  29.750  0.00  0.00    -0.246 OA
BRANCH  22  24
ATOM     24  O   UNL A   1     -32.284  -3.510  29.379  0.00  0.00    -0.421 OA
BRANCH  24  25
ATOM     25  C   UNL A   1     -33.377  -3.345  28.581  0.00  0.00    +0.344 C 
BRANCH  25  26
ATOM     26  N   UNL A   1     -33.343  -4.266  27.546  0.00  0.00    -0.265 N 
ATOM     27  C   UNL A   1     -33.991  -4.942  27.039  0.00  0.00    +0.062 C 
ATOM     28  C   UNL A   1     -33.598  -5.768  25.900  0.00  0.00    +0.024 C 
ATOM     29  C   UNL A   1     -31.934  -4.335  26.858  0.00  0.00    +0.132 C 
ATOM     30  C   UNL A   1     -32.189  -5.344  25.874  0.00  0.00    +0.195 C 
ATOM     31  O   UNL A   1     -31.397  -6.498  26.255  0.00  0.00    -0.216 OA
ENDBRANCH  25  26
BRANCH  25  32
ATOM     32  C   UNL A   1     -33.394  -1.956  28.028  0.00  0.00    +0.454 C 
ATOM     33  F   UNL A   1     -33.660  -1.929  26.867  0.00  0.00    -0.165 F 
ATOM     34  F   UNL A   1     -32.165  -1.332  28.157  0.00  0.00    -0.165 F 
ATOM     35  F   UNL A   1     -34.264  -1.206  28.709  0.00  0.00    -0.165 F 
ENDBRANCH  25  32
ENDBRANCH  24  25
ENDBRANCH  22  24
ENDBRANCH  21  22
ENDBRANCH  20  21
ENDBRANCH   1  20
TORSDOF 9
