MODEL 1921
MODEL 1
REMARK VINA RESULT:    -6.776      0.000      0.000
REMARK INTER + INTRA:          -9.127
REMARK INTER:                  -8.361
REMARK INTRA:                  -0.766
REMARK UNBOUND:                -0.766
REMARK  Name = No_1921-gen_results/8p0m/2024-11-26-14-13-15/
REMARK  4 active torsions:
REMARK  status: ('A' for Active; 'I' for Inactive)
REMARK    1  A    between atoms: C_2  and  C_14
REMARK    2  A    between atoms: C_3  and  C_4
REMARK    3  A    between atoms: C_4  and  C_8
REMARK    4  A    between atoms: C_14  and  N_15
REMARK                            x       y       z     vdW  Elec       q    Type
REMARK                         _______ _______ _______ _____ _____    ______ ____
ROOT
ATOM      1  C   UNL A   1     -25.300  -0.448  26.919  0.00  0.00    -0.006 A 
ATOM      2  C   UNL A   1     -25.015   0.136  26.089  0.00  0.00    +0.002 A 
ATOM      3  C   UNL A   1     -24.434  -0.293  28.149  0.00  0.00    -0.018 A 
ATOM      4  C   UNL A   1     -24.064   1.246  25.951  0.00  0.00    -0.002 A 
ATOM      5  C   UNL A   1     -23.255   1.468  27.044  0.00  0.00    -0.001 A 
ATOM      6  C   UNL A   1     -23.425   0.736  28.191  0.00  0.00    -0.004 A 
ENDROOT
BRANCH   3   7
ATOM      7  C   UNL A   1     -24.517  -1.077  29.356  0.00  0.00    +0.053 C 
BRANCH   7   8
ATOM      8  C   UNL A   1     -24.832  -2.482  29.170  0.00  0.00    -0.018 A 
ATOM      9  C   UNL A   1     -26.004  -3.000  29.726  0.00  0.00    -0.004 A 
ATOM     10  C   UNL A   1     -26.194  -4.454  29.684  0.00  0.00    -0.000 A 
ATOM     11  C   UNL A   1     -25.221  -5.261  29.183  0.00  0.00    -0.000 A 
ATOM     12  C   UNL A   1     -23.861  -3.340  28.618  0.00  0.00    -0.004 A 
ATOM     13  C   UNL A   1     -24.114  -4.779  28.682  0.00  0.00    -0.000 A 
ENDBRANCH   7   8
ENDBRANCH   3   7
BRANCH   2  14
ATOM     14  C   UNL A   1     -25.910  -0.008  24.782  0.00  0.00    +0.151 C 
BRANCH  14  15
ATOM     15  N   UNL A   1     -26.710   0.984  24.630  0.00  0.00    -0.269 NA
ATOM     16  C   UNL A   1     -27.686   1.101  24.074  0.00  0.00    +0.068 C 
ATOM     17  C   UNL A   1     -28.432   2.403  23.963  0.00  0.00    +0.053 C 
ENDBRANCH  14  15
ENDBRANCH   2  14
TORSDOF 4
ENDMDL
ENDMDL
