REMARK  Name = No_1921-gen_results/8p0m/2024-11-26-14-13-15/
REMARK  4 active torsions:
REMARK  status: ('A' for Active; 'I' for Inactive)
REMARK    1  A    between atoms: C_2  and  C_14
REMARK    2  A    between atoms: C_3  and  C_4
REMARK    3  A    between atoms: C_4  and  C_8
REMARK    4  A    between atoms: C_14  and  N_15
REMARK                            x       y       z     vdW  Elec       q    Type
REMARK                         _______ _______ _______ _____ _____    ______ ____
ROOT
ATOM      1  C   UNL A   1     -28.016  -0.814  28.878  0.00  0.00    -0.006 A 
ATOM      2  C   UNL A   1     -28.469  -0.785  29.829  0.00  0.00    +0.002 A 
ATOM      3  C   UNL A   1     -26.504  -0.778  28.877  0.00  0.00    -0.018 A 
ATOM      4  C   UNL A   1     -27.918  -0.937  31.182  0.00  0.00    -0.002 A 
ATOM      5  C   UNL A   1     -26.542  -0.940  31.261  0.00  0.00    -0.001 A 
ATOM      6  C   UNL A   1     -25.783  -0.893  30.120  0.00  0.00    -0.004 A 
ENDROOT
BRANCH   3   7
ATOM      7  C   UNL A   1     -25.654  -0.660  27.719  0.00  0.00    +0.053 C 
BRANCH   7   8
ATOM      8  C   UNL A   1     -25.220   0.687  27.394  0.00  0.00    -0.018 A 
ATOM      9  C   UNL A   1     -24.577   0.924  26.177  0.00  0.00    -0.004 A 
ATOM     10  C   UNL A   1     -23.985   2.249  25.965  0.00  0.00    -0.000 A 
ATOM     11  C   UNL A   1     -24.007   3.179  26.956  0.00  0.00    -0.000 A 
ATOM     12  C   UNL A   1     -25.265   1.685  28.386  0.00  0.00    -0.004 A 
ATOM     13  C   UNL A   1     -24.589   2.951  28.104  0.00  0.00    -0.000 A 
ENDBRANCH   7   8
ENDBRANCH   3   7
BRANCH   2  14
ATOM     14  C   UNL A   1     -30.058  -0.822  29.858  0.00  0.00    +0.151 C 
BRANCH  14  15
ATOM     15  N   UNL A   1     -30.578  -0.064  28.962  0.00  0.00    -0.269 NA
ATOM     16  C   UNL A   1     -31.510   0.574  28.946  0.00  0.00    +0.068 C 
ATOM     17  C   UNL A   1     -31.978   1.337  27.737  0.00  0.00    +0.053 C 
ENDBRANCH  14  15
ENDBRANCH   2  14
TORSDOF 4
