REMARK  Name = No_1922-gen_results/8p0m/2024-11-26-14-13-15/
REMARK  7 active torsions:
REMARK  status: ('A' for Active; 'I' for Inactive)
REMARK    1  A    between atoms: C_1  and  C_2
REMARK    2  A    between atoms: C_5  and  C_9
REMARK    3  A    between atoms: C_6  and  C_23
REMARK    4  A    between atoms: N_8  and  C_13
REMARK    5  A    between atoms: C_15  and  C_19
REMARK    6  A    between atoms: N_21  and  C_22
REMARK    7  A    between atoms: C_23  and  C_24
REMARK                            x       y       z     vdW  Elec       q    Type
REMARK                         _______ _______ _______ _____ _____    ______ ____
ROOT
ATOM      1  C   UNL A   1     -28.016  -0.814  28.878  0.00  0.00    +0.269 C 
ATOM      2  N   UNL A   1     -27.961  -1.607  30.088  0.00  0.00    -0.175 NA
ATOM      3  O   UNL A   1     -29.193  -0.608  28.509  0.00  0.00    -0.268 OA
ENDROOT
BRANCH   1   4
ATOM      4  C   UNL A   1     -27.064  -0.119  28.608  0.00  0.00    +0.055 A 
ATOM      5  C   UNL A   1     -27.001   0.691  27.491  0.00  0.00    +0.005 A 
ATOM      6  C   UNL A   1     -25.855   1.482  27.083  0.00  0.00    +0.004 A 
ATOM      7  C   UNL A   1     -24.690   1.453  27.881  0.00  0.00    +0.053 A 
ATOM      8  C   UNL A   1     -24.738   0.601  29.042  0.00  0.00    -0.009 A 
ATOM      9  C   UNL A   1     -25.823  -0.169  29.389  0.00  0.00    +0.001 A 
BRANCH   7  10
ATOM     10  C   UNL A   1     -23.706   2.385  27.544  0.00  0.00    +0.284 C 
ATOM     11  N   UNL A   1     -22.715   2.227  27.217  0.00  0.00    -0.084 NA
ATOM     12  O   UNL A   1     -24.137   3.677  27.448  0.00  0.00    -0.267 OA
ENDBRANCH   7  10
BRANCH   8  13
ATOM     13  C   UNL A   1     -23.500   0.597  29.877  0.00  0.00    +0.130 C 
BRANCH  13  14
ATOM     14  C   UNL A   1     -22.816  -0.487  30.159  0.00  0.00    +0.402 C 
ATOM     15  F   UNL A   1     -21.581  -0.360  30.059  0.00  0.00    -0.170 F 
ATOM     16  F   UNL A   1     -23.270  -1.591  29.475  0.00  0.00    -0.170 F 
ATOM     17  F   UNL A   1     -23.036  -0.807  31.520  0.00  0.00    -0.170 F 
ENDBRANCH  13  14
ENDBRANCH   8  13
ENDBRANCH   1   4
BRANCH   2  18
ATOM     18  C   UNL A   1     -29.064  -2.464  30.579  0.00  0.00    +0.074 A 
ATOM     19  C   UNL A   1     -29.890  -2.952  29.644  0.00  0.00    +0.021 A 
ATOM     20  C   UNL A   1     -30.340  -4.333  30.101  0.00  0.00    +0.057 A 
ATOM     21  C   UNL A   1     -29.981  -4.860  31.320  0.00  0.00    +0.005 A 
ATOM     22  C   UNL A   1     -29.061  -4.273  32.127  0.00  0.00    +0.002 A 
ATOM     23  C   UNL A   1     -28.539  -3.131  31.735  0.00  0.00    +0.017 A 
BRANCH  20  24
ATOM     24  C   UNL A   1     -31.412  -4.982  29.298  0.00  0.00    +0.269 C 
ATOM     25  O   UNL A   1     -31.435  -4.926  28.203  0.00  0.00    -0.268 OA
ATOM     26  N   UNL A   1     -32.462  -5.414  29.957  0.00  0.00    -0.175 NA
BRANCH  26  27
ATOM     27  C   UNL A   1     -33.560  -6.074  29.284  0.00  0.00    +0.074 A 
ATOM     28  C   UNL A   1     -34.571  -6.408  29.995  0.00  0.00    +0.017 A 
ATOM     29  C   UNL A   1     -35.667  -6.925  29.445  0.00  0.00    +0.001 A 
ATOM     30  C   UNL A   1     -35.705  -7.144  28.019  0.00  0.00    +0.000 A 
ATOM     31  C   UNL A   1     -34.593  -6.766  27.265  0.00  0.00    +0.001 A 
ATOM     32  C   UNL A   1     -33.503  -6.167  27.863  0.00  0.00    +0.017 A 
ENDBRANCH  26  27
ENDBRANCH  20  24
ENDBRANCH   2  18
TORSDOF 7
