MODEL 1922
MODEL 1
REMARK VINA RESULT:    -7.268      0.000      0.000
REMARK INTER + INTRA:         -11.086
REMARK INTER:                 -10.242
REMARK INTRA:                  -0.844
REMARK UNBOUND:                -0.844
REMARK  Name = No_1922-gen_results/8p0m/2024-11-26-14-13-15/
REMARK  7 active torsions:
REMARK  status: ('A' for Active; 'I' for Inactive)
REMARK    1  A    between atoms: C_1  and  C_2
REMARK    2  A    between atoms: C_5  and  C_9
REMARK    3  A    between atoms: C_6  and  C_23
REMARK    4  A    between atoms: N_8  and  C_13
REMARK    5  A    between atoms: C_15  and  C_19
REMARK    6  A    between atoms: N_21  and  C_22
REMARK    7  A    between atoms: C_23  and  C_24
REMARK                            x       y       z     vdW  Elec       q    Type
REMARK                         _______ _______ _______ _____ _____    ______ ____
ROOT
ATOM      1  C   UNL A   1     -25.176   2.480  26.041  0.00  0.00    +0.269 C 
ATOM      2  N   UNL A   1     -26.600   2.219  26.061  0.00  0.00    -0.175 NA
ATOM      3  O   UNL A   1     -24.917   3.618  25.590  0.00  0.00    -0.268 OA
ENDROOT
BRANCH   1   4
ATOM      4  C   UNL A   1     -24.469   1.843  26.788  0.00  0.00    +0.055 A 
ATOM      5  C   UNL A   1     -23.110   2.052  26.917  0.00  0.00    +0.005 A 
ATOM      6  C   UNL A   1     -22.208   1.266  27.738  0.00  0.00    +0.004 A 
ATOM      7  C   UNL A   1     -22.734   0.195  28.492  0.00  0.00    +0.053 A 
ATOM      8  C   UNL A   1     -24.149  -0.042  28.356  0.00  0.00    -0.009 A 
ATOM      9  C   UNL A   1     -24.978   0.693  27.542  0.00  0.00    +0.001 A 
BRANCH   7  10
ATOM     10  C   UNL A   1     -21.854  -0.387  29.408  0.00  0.00    +0.284 C 
ATOM     11  N   UNL A   1     -21.944  -0.489  30.454  0.00  0.00    -0.084 NA
ATOM     12  O   UNL A   1     -20.816  -1.081  28.856  0.00  0.00    -0.267 OA
ENDBRANCH   7  10
BRANCH   8  13
ATOM     13  C   UNL A   1     -24.684  -1.171  29.173  0.00  0.00    +0.130 C 
BRANCH  13  14
ATOM     14  C   UNL A   1     -24.761  -2.409  28.742  0.00  0.00    +0.402 C 
ATOM     15  F   UNL A   1     -24.949  -2.519  27.516  0.00  0.00    -0.170 F 
ATOM     16  F   UNL A   1     -25.658  -3.164  29.462  0.00  0.00    -0.170 F 
ATOM     17  F   UNL A   1     -23.514  -3.036  28.973  0.00  0.00    -0.170 F 
ENDBRANCH  13  14
ENDBRANCH   8  13
ENDBRANCH   1   4
BRANCH   2  18
ATOM     18  C   UNL A   1     -27.597   2.951  25.248  0.00  0.00    +0.074 A 
ATOM     19  C   UNL A   1     -28.324   2.209  24.401  0.00  0.00    +0.021 A 
ATOM     20  C   UNL A   1     -29.713   2.828  24.320  0.00  0.00    +0.057 A 
ATOM     21  C   UNL A   1     -30.038   3.998  24.966  0.00  0.00    +0.005 A 
ATOM     22  C   UNL A   1     -29.210   4.591  25.863  0.00  0.00    +0.002 A 
ATOM     23  C   UNL A   1     -28.034   4.039  26.073  0.00  0.00    +0.017 A 
BRANCH  20  24
ATOM     24  C   UNL A   1     -30.630   2.268  23.290  0.00  0.00    +0.269 C 
ATOM     25  O   UNL A   1     -30.441   1.304  22.802  0.00  0.00    -0.268 OA
ATOM     26  N   UNL A   1     -31.540   3.082  22.807  0.00  0.00    -0.175 NA
BRANCH  26  27
ATOM     27  C   UNL A   1     -32.495   2.646  21.812  0.00  0.00    +0.074 A 
ATOM     28  C   UNL A   1     -33.571   2.094  22.231  0.00  0.00    +0.017 A 
ATOM     29  C   UNL A   1     -34.550   1.755  21.395  0.00  0.00    +0.001 A 
ATOM     30  C   UNL A   1     -34.381   1.986  19.980  0.00  0.00    +0.000 A 
ATOM     31  C   UNL A   1     -33.202   2.595  19.549  0.00  0.00    +0.001 A 
ATOM     32  C   UNL A   1     -32.241   2.997  20.454  0.00  0.00    +0.017 A 
ENDBRANCH  26  27
ENDBRANCH  20  24
ENDBRANCH   2  18
TORSDOF 7
ENDMDL
ENDMDL
