MODEL 1923
MODEL 1
REMARK VINA RESULT:    -8.118      0.000      0.000
REMARK INTER + INTRA:         -13.931
REMARK INTER:                 -11.441
REMARK INTRA:                  -2.490
REMARK UNBOUND:                -2.490
REMARK  Name = No_1923-gen_results/8p0m/2024-11-26-14-13-15/
REMARK  7 active torsions:
REMARK  status: ('A' for Active; 'I' for Inactive)
REMARK    1  A    between atoms: C_3  and  C_4
REMARK    2  A    between atoms: C_4  and  C_15
REMARK    3  A    between atoms: C_5  and  C_6
REMARK    4  A    between atoms: C_8  and  C_21
REMARK    5  A    between atoms: C_17  and  C_27
REMARK    6  A    between atoms: N_22  and  C_24
REMARK    7  A    between atoms: C_24  and  C_25
REMARK                            x       y       z     vdW  Elec       q    Type
REMARK                         _______ _______ _______ _____ _____    ______ ____
ROOT
ATOM      1  C   UNL A   1     -24.447  -1.013  29.802  0.00  0.00    +0.024 C 
ATOM      2  C   UNL A   1     -24.123  -0.293  29.076  0.00  0.00    +0.140 C 
ATOM      3  F   UNL A   1     -22.800   0.313  29.430  0.00  0.00    -0.204 F 
ENDROOT
BRANCH   1   6
ATOM      4  C   UNL A   1     -26.107  -2.933  30.139  0.00  0.00    +0.000 A 
ATOM      5  C   UNL A   1     -26.314  -3.923  29.842  0.00  0.00    +0.000 A 
ATOM      6  C   UNL A   1     -24.814  -2.434  29.655  0.00  0.00    +0.002 A 
ATOM      7  C   UNL A   1     -25.505  -4.994  29.319  0.00  0.00    +0.000 A 
ATOM      8  C   UNL A   1     -24.281  -4.585  28.942  0.00  0.00    +0.000 A 
ATOM      9  C   UNL A   1     -23.904  -3.304  29.092  0.00  0.00    +0.000 A 
ENDBRANCH   1   6
BRANCH   2  10
ATOM     10  C   UNL A   1     -24.338   0.377  27.998  0.00  0.00    +0.028 A 
ATOM     11  C   UNL A   1     -25.197   0.024  26.936  0.00  0.00    +0.007 A 
ATOM     12  C   UNL A   1     -25.155   0.521  25.646  0.00  0.00    +0.055 A 
ATOM     13  C   UNL A   1     -24.163   1.448  25.304  0.00  0.00    +0.005 A 
ATOM     14  C   UNL A   1     -23.215   1.847  26.259  0.00  0.00    +0.000 A 
ATOM     15  C   UNL A   1     -23.234   1.276  27.511  0.00  0.00    +0.002 A 
BRANCH  12  16
ATOM     16  C   UNL A   1     -26.114   0.090  24.637  0.00  0.00    +0.265 C 
ATOM     17  N   UNL A   1     -27.079   0.817  24.237  0.00  0.00    -0.197 NA
ATOM     18  O   UNL A   1     -25.954  -1.112  24.166  0.00  0.00    -0.268 OA
BRANCH  17  19
ATOM     19  C   UNL A   1     -27.917   1.466  24.716  0.00  0.00    +0.139 C 
ATOM     20  C   UNL A   1     -28.068   2.942  24.415  0.00  0.00    +0.030 C 
BRANCH  19  21
ATOM     21  C   UNL A   1     -28.814   1.046  25.776  0.00  0.00    +0.117 C 
ATOM     22  N   UNL A   1     -29.515  -0.077  25.725  0.00  0.00    -0.150 NA
ENDBRANCH  19  21
ENDBRANCH  17  19
ENDBRANCH  12  16
ENDBRANCH   2  10
BRANCH   1  23
ATOM     23  C   UNL A   1     -24.636  -0.854  31.207  0.00  0.00    -0.016 C 
ATOM     24  C   UNL A   1     -25.160  -0.613  32.038  0.00  0.00    -0.000 C 
ATOM     25  C   UNL A   1     -25.066  -0.799  33.422  0.00  0.00    +0.067 C 
ATOM     26  C   UNL A   1     -23.790  -1.165  33.733  0.00  0.00    -0.018 C 
ATOM     27  C   UNL A   1     -23.311  -1.450  32.012  0.00  0.00    +0.052 C 
BRANCH  25  28
ATOM     28  C   UNL A   1     -25.891  -0.309  34.529  0.00  0.00    +0.418 C 
ATOM     29  F   UNL A   1     -27.005  -0.835  34.679  0.00  0.00    -0.166 F 
ATOM     30  F   UNL A   1     -25.969   1.079  34.467  0.00  0.00    -0.166 F 
ATOM     31  F   UNL A   1     -25.207  -0.528  35.720  0.00  0.00    -0.166 F 
ENDBRANCH  25  28
ENDBRANCH   1  23
TORSDOF 7
ENDMDL
ENDMDL
