REMARK  Name = No_1923-gen_results/8p0m/2024-11-26-14-13-15/
REMARK  7 active torsions:
REMARK  status: ('A' for Active; 'I' for Inactive)
REMARK    1  A    between atoms: C_3  and  C_4
REMARK    2  A    between atoms: C_4  and  C_15
REMARK    3  A    between atoms: C_5  and  C_6
REMARK    4  A    between atoms: C_8  and  C_21
REMARK    5  A    between atoms: C_17  and  C_27
REMARK    6  A    between atoms: N_22  and  C_24
REMARK    7  A    between atoms: C_24  and  C_25
REMARK                            x       y       z     vdW  Elec       q    Type
REMARK                         _______ _______ _______ _____ _____    ______ ____
ROOT
ATOM      1  C   UNL A   1     -27.450   0.643  26.850  0.00  0.00    +0.024 C 
ATOM      2  C   UNL A   1     -26.453   0.994  26.668  0.00  0.00    +0.140 C 
ATOM      3  F   UNL A   1     -26.429   2.199  25.779  0.00  0.00    -0.204 F 
ENDROOT
BRANCH   1   6
ATOM      4  C   UNL A   1     -28.016  -0.814  28.878  0.00  0.00    +0.000 A 
ATOM      5  C   UNL A   1     -28.469  -0.785  29.829  0.00  0.00    +0.000 A 
ATOM      6  C   UNL A   1     -28.182   0.428  28.113  0.00  0.00    +0.002 A 
ATOM      7  C   UNL A   1     -29.452   0.074  30.437  0.00  0.00    +0.000 A 
ATOM      8  C   UNL A   1     -29.689   1.185  29.717  0.00  0.00    +0.000 A 
ATOM      9  C   UNL A   1     -29.063   1.396  28.547  0.00  0.00    +0.000 A 
ENDBRANCH   1   6
BRANCH   2  10
ATOM     10  C   UNL A   1     -25.181   0.862  26.816  0.00  0.00    +0.028 A 
ATOM     11  C   UNL A   1     -24.515   0.116  27.812  0.00  0.00    +0.007 A 
ATOM     12  C   UNL A   1     -23.198   0.265  28.206  0.00  0.00    +0.055 A 
ATOM     13  C   UNL A   1     -22.415   1.259  27.607  0.00  0.00    +0.005 A 
ATOM     14  C   UNL A   1     -22.973   2.103  26.635  0.00  0.00    +0.000 A 
ATOM     15  C   UNL A   1     -24.308   1.982  26.320  0.00  0.00    +0.002 A 
BRANCH  12  16
ATOM     16  C   UNL A   1     -22.616  -0.584  29.238  0.00  0.00    +0.265 C 
ATOM     17  N   UNL A   1     -23.306  -1.147  30.148  0.00  0.00    -0.197 NA
ATOM     18  O   UNL A   1     -21.324  -0.726  29.206  0.00  0.00    -0.268 OA
BRANCH  17  19
ATOM     19  C   UNL A   1     -24.135  -0.844  30.904  0.00  0.00    +0.139 C 
ATOM     20  C   UNL A   1     -23.855   0.040  32.101  0.00  0.00    +0.030 C 
BRANCH  19  21
ATOM     21  C   UNL A   1     -25.484  -1.377  30.942  0.00  0.00    +0.117 C 
ATOM     22  N   UNL A   1     -26.345  -1.092  31.907  0.00  0.00    -0.150 NA
ENDBRANCH  19  21
ENDBRANCH  17  19
ENDBRANCH  12  16
ENDBRANCH   2  10
BRANCH   1  23
ATOM     23  C   UNL A   1     -28.455   0.258  25.914  0.00  0.00    -0.016 C 
ATOM     24  C   UNL A   1     -29.389  -0.009  25.633  0.00  0.00    -0.000 C 
ATOM     25  C   UNL A   1     -30.130  -0.131  24.451  0.00  0.00    +0.067 C 
ATOM     26  C   UNL A   1     -29.271  -0.153  23.392  0.00  0.00    -0.018 C 
ATOM     27  C   UNL A   1     -27.836   0.344  24.374  0.00  0.00    +0.052 C 
BRANCH  25  28
ATOM     28  C   UNL A   1     -31.488  -0.617  24.199  0.00  0.00    +0.418 C 
ATOM     29  F   UNL A   1     -31.719  -1.809  24.458  0.00  0.00    -0.166 F 
ATOM     30  F   UNL A   1     -31.867  -0.278  22.904  0.00  0.00    -0.166 F 
ATOM     31  F   UNL A   1     -32.372   0.117  24.983  0.00  0.00    -0.166 F 
ENDBRANCH  25  28
ENDBRANCH   1  23
TORSDOF 7
