MODEL 1924
MODEL 1
REMARK VINA RESULT:    -6.877      0.000      0.000
REMARK INTER + INTRA:          -8.222
REMARK INTER:                  -7.681
REMARK INTRA:                  -0.541
REMARK UNBOUND:                -0.541
REMARK  Name = No_1924-gen_results/8p0m/2024-11-26-14-13-15/
REMARK  2 active torsions:
REMARK  status: ('A' for Active; 'I' for Inactive)
REMARK    1  A    between atoms: C_5  and  C_16
REMARK    2  A    between atoms: C_7  and  C_11
REMARK                            x       y       z     vdW  Elec       q    Type
REMARK                         _______ _______ _______ _____ _____    ______ ____
ROOT
ATOM      1  C   UNL A   1     -23.164  -0.323  28.829  0.00  0.00    -0.015 A 
ATOM      2  C   UNL A   1     -22.710  -0.088  29.751  0.00  0.00    +0.027 C 
ATOM      3  C   UNL A   1     -24.516  -0.800  28.891  0.00  0.00    +0.031 A 
ATOM      4  C   UNL A   1     -25.322  -0.962  27.664  0.00  0.00    +0.006 A 
ATOM      5  C   UNL A   1     -25.062  -0.128  26.560  0.00  0.00    +0.071 A 
ATOM      6  C   UNL A   1     -23.924   0.704  26.587  0.00  0.00    +0.007 A 
ATOM      7  C   UNL A   1     -23.108   0.721  27.656  0.00  0.00    +0.068 A 
ATOM      8  C   UNL A   1     -22.808  -0.731  30.907  0.00  0.00    +0.013 C 
ATOM      9  C   UNL A   1     -24.010  -1.505  30.982  0.00  0.00    +0.070 C 
ATOM     10  C   UNL A   1     -24.887  -1.620  29.922  0.00  0.00    +0.173 C 
ATOM     11  O   UNL A   1     -25.929  -2.338  29.990  0.00  0.00    -0.291 OA
ENDROOT
BRANCH   7  12
ATOM     12  C   UNL A   1     -21.875   1.594  27.487  0.00  0.00    +0.418 C 
ATOM     13  F   UNL A   1     -22.020   2.598  28.126  0.00  0.00    -0.166 F 
ATOM     14  F   UNL A   1     -21.774   1.925  26.181  0.00  0.00    -0.166 F 
ATOM     15  F   UNL A   1     -20.753   0.907  27.688  0.00  0.00    -0.166 F 
ENDBRANCH   7  12
BRANCH   5  16
ATOM     16  C   UNL A   1     -25.916  -0.108  25.394  0.00  0.00    +0.419 C 
ATOM     17  F   UNL A   1     -25.555   0.702  24.623  0.00  0.00    -0.166 F 
ATOM     18  F   UNL A   1     -25.753  -1.299  24.723  0.00  0.00    -0.166 F 
ATOM     19  F   UNL A   1     -27.180   0.026  25.763  0.00  0.00    -0.166 F 
ENDBRANCH   5  16
TORSDOF 2
ENDMDL
ENDMDL
