REMARK  Name = No_1925-gen_results/8p0m/2024-11-26-14-13-15/
REMARK  1 active torsions:
REMARK  status: ('A' for Active; 'I' for Inactive)
REMARK    1  A    between atoms: C_3  and  C_17
REMARK                            x       y       z     vdW  Elec       q    Type
REMARK                         _______ _______ _______ _____ _____    ______ ____
ROOT
ATOM      1  C   UNL A   1     -28.016  -0.814  28.878  0.00  0.00    +0.000 A 
ATOM      2  C   UNL A   1     -27.064  -0.119  28.608  0.00  0.00    +0.006 A 
ATOM      3  C   UNL A   1     -27.001   0.691  27.491  0.00  0.00    +0.080 A 
ATOM      4  C   UNL A   1     -25.855   1.482  27.083  0.00  0.00    +0.008 A 
ATOM      5  C   UNL A   1     -24.690   1.453  27.881  0.00  0.00    +0.022 A 
ATOM      6  C   UNL A   1     -23.488   2.145  27.601  0.00  0.00    +0.157 C 
ATOM      7  C   UNL A   1     -25.812  -0.166  29.430  0.00  0.00    -0.002 A 
ATOM      8  C   UNL A   1     -24.646   0.589  29.081  0.00  0.00    +0.001 A 
ATOM      9  C   UNL A   1     -27.982  -1.462  30.235  0.00  0.00    +0.000 A 
ATOM     10  C   UNL A   1     -26.835  -1.612  30.989  0.00  0.00    -0.000 A 
ATOM     11  C   UNL A   1     -25.733  -0.909  30.615  0.00  0.00    -0.000 A 
ATOM     12  N   UNL A   1     -23.507   3.046  26.635  0.00  0.00    -0.143 NA
ATOM     13  C   UNL A   1     -22.229   1.872  28.177  0.00  0.00    +0.285 C 
ATOM     14  O   UNL A   1     -21.138   2.251  27.485  0.00  0.00    -0.267 OA
ATOM     15  N   UNL A   1     -22.135   1.312  29.373  0.00  0.00    -0.196 NA
ATOM     16  C   UNL A   1     -23.361   0.536  29.806  0.00  0.00    +0.142 C 
ENDROOT
BRANCH   3  17
ATOM     17  C   UNL A   1     -28.168   0.785  26.577  0.00  0.00    +0.388 C 
ATOM     18  O   UNL A   1     -29.197   1.194  26.898  0.00  0.00    -0.241 OA
ATOM     19  O   UNL A   1     -27.972   0.344  25.346  0.00  0.00    -0.241 OA
ENDBRANCH   3  17
TORSDOF 1
