MODEL 1925
MODEL 1
REMARK VINA RESULT:    -7.049      0.000      0.000
REMARK INTER + INTRA:          -7.506
REMARK INTER:                  -7.461
REMARK INTRA:                  -0.046
REMARK UNBOUND:                -0.046
REMARK  Name = No_1925-gen_results/8p0m/2024-11-26-14-13-15/
REMARK  1 active torsions:
REMARK  status: ('A' for Active; 'I' for Inactive)
REMARK    1  A    between atoms: C_3  and  C_17
REMARK                            x       y       z     vdW  Elec       q    Type
REMARK                         _______ _______ _______ _____ _____    ______ ____
ROOT
ATOM      1  C   UNL A   1     -30.981 -10.135  28.284  0.00  0.00    +0.000 A 
ATOM      2  C   UNL A   1     -30.229 -10.496  29.160  0.00  0.00    +0.006 A 
ATOM      3  C   UNL A   1     -29.380 -11.579  29.040  0.00  0.00    +0.080 A 
ATOM      4  C   UNL A   1     -28.518 -12.098  30.086  0.00  0.00    +0.008 A 
ATOM      5  C   UNL A   1     -28.515 -11.457  31.344  0.00  0.00    +0.022 A 
ATOM      6  C   UNL A   1     -27.753 -11.860  32.467  0.00  0.00    +0.157 C 
ATOM      7  C   UNL A   1     -30.240  -9.843  30.508  0.00  0.00    -0.002 A 
ATOM      8  C   UNL A   1     -29.415 -10.308  31.583  0.00  0.00    +0.001 A 
ATOM      9  C   UNL A   1     -31.672  -8.820  28.523  0.00  0.00    +0.000 A 
ATOM     10  C   UNL A   1     -31.788  -8.226  29.764  0.00  0.00    -0.000 A 
ATOM     11  C   UNL A   1     -31.018  -8.709  30.774  0.00  0.00    -0.000 A 
ATOM     12  N   UNL A   1     -26.822 -12.779  32.281  0.00  0.00    -0.143 NA
ATOM     13  C   UNL A   1     -27.981 -11.461  33.801  0.00  0.00    +0.285 C 
ATOM     14  O   UNL A   1     -27.524 -12.271  34.775  0.00  0.00    -0.267 OA
ATOM     15  N   UNL A   1     -28.576 -10.310  34.075  0.00  0.00    -0.196 NA
ATOM     16  C   UNL A   1     -29.427  -9.756  32.952  0.00  0.00    +0.142 C 
ENDROOT
BRANCH   3  17
ATOM     17  C   UNL A   1     -29.315 -12.332  27.761  0.00  0.00    +0.388 C 
ATOM     18  O   UNL A   1     -28.698 -11.987  26.850  0.00  0.00    -0.241 OA
ATOM     19  O   UNL A   1     -30.036 -13.438  27.708  0.00  0.00    -0.241 OA
ENDBRANCH   3  17
TORSDOF 1
ENDMDL
ENDMDL
