MODEL 1926
MODEL 1
REMARK VINA RESULT:    -6.531      0.000      0.000
REMARK INTER + INTRA:          -6.983
REMARK INTER:                  -6.912
REMARK INTRA:                  -0.071
REMARK UNBOUND:                -0.071
REMARK  Name = No_1926-gen_results/8p0m/2024-11-26-14-13-15/
REMARK  1 active torsions:
REMARK  status: ('A' for Active; 'I' for Inactive)
REMARK    1  A    between atoms: C_5  and  C_11
REMARK                            x       y       z     vdW  Elec       q    Type
REMARK                         _______ _______ _______ _____ _____    ______ ____
ROOT
ATOM      1  C   UNL A   1     -30.637  -9.909  29.605  0.00  0.00    +0.001 A 
ATOM      2  C   UNL A   1     -29.945 -10.317  30.509  0.00  0.00    +0.011 A 
ATOM      3  C   UNL A   1     -29.908  -9.787  31.787  0.00  0.00    +0.058 A 
ATOM      4  C   UNL A   1     -29.035 -10.201  32.859  0.00  0.00    +0.018 A 
ATOM      5  C   UNL A   1     -28.119 -11.253  32.618  0.00  0.00    +0.081 A 
ATOM      6  C   UNL A   1     -28.108 -11.843  31.327  0.00  0.00    +0.007 A 
ATOM      7  C   UNL A   1     -28.950 -11.363  30.373  0.00  0.00    +0.001 A 
ATOM      8  C   UNL A   1     -30.680 -10.651  28.304  0.00  0.00    +0.000 A 
ATOM      9  C   UNL A   1     -29.644 -11.590  28.026  0.00  0.00    +0.000 A 
ATOM     10  C   UNL A   1     -28.857 -12.019  29.045  0.00  0.00    +0.000 A 
ATOM     11 CL   UNL A   1     -30.897  -8.455  32.191  0.00  0.00    -0.082 Cl
ENDROOT
BRANCH   5  12
ATOM     12  C   UNL A   1     -27.227 -11.741  33.693  0.00  0.00    +0.388 C 
ATOM     13  O   UNL A   1     -26.796 -12.859  33.685  0.00  0.00    -0.241 OA
ATOM     14  O   UNL A   1     -26.904 -10.944  34.698  0.00  0.00    -0.241 OA
ENDBRANCH   5  12
TORSDOF 1
ENDMDL
ENDMDL
