REMARK  Name = No_1926-gen_results/8p0m/2024-11-26-14-13-15/
REMARK  1 active torsions:
REMARK  status: ('A' for Active; 'I' for Inactive)
REMARK    1  A    between atoms: C_5  and  C_11
REMARK                            x       y       z     vdW  Elec       q    Type
REMARK                         _______ _______ _______ _____ _____    ______ ____
ROOT
ATOM      1  C   UNL A   1     -28.016  -0.814  28.878  0.00  0.00    +0.001 A 
ATOM      2  C   UNL A   1     -27.064  -0.119  28.608  0.00  0.00    +0.011 A 
ATOM      3  C   UNL A   1     -26.972   0.714  27.506  0.00  0.00    +0.058 A 
ATOM      4  C   UNL A   1     -25.820   1.491  27.116  0.00  0.00    +0.018 A 
ATOM      5  C   UNL A   1     -24.656   1.424  27.918  0.00  0.00    +0.081 A 
ATOM      6  C   UNL A   1     -24.685   0.590  29.066  0.00  0.00    +0.007 A 
ATOM      7  C   UNL A   1     -25.810  -0.127  29.334  0.00  0.00    +0.001 A 
ATOM      8  C   UNL A   1     -28.044  -1.573  30.169  0.00  0.00    +0.000 A 
ATOM      9  C   UNL A   1     -26.817  -1.760  30.870  0.00  0.00    +0.000 A 
ATOM     10  C   UNL A   1     -25.748  -0.992  30.538  0.00  0.00    +0.000 A 
ATOM     11 CL   UNL A   1     -28.271   0.823  26.403  0.00  0.00    -0.082 Cl
ENDROOT
BRANCH   5  12
ATOM     12  C   UNL A   1     -23.459   2.228  27.584  0.00  0.00    +0.388 C 
ATOM     13  O   UNL A   1     -23.527   3.169  26.845  0.00  0.00    -0.241 OA
ATOM     14  O   UNL A   1     -22.281   1.902  28.089  0.00  0.00    -0.241 OA
ENDBRANCH   5  12
TORSDOF 1
