MODEL 1927
MODEL 1
REMARK VINA RESULT:    -6.550      0.000      0.000
REMARK INTER + INTRA:          -9.075
REMARK INTER:                  -8.082
REMARK INTRA:                  -0.993
REMARK UNBOUND:                -0.993
REMARK  Name = No_1927-gen_results/8p0m/2024-11-26-14-13-15/
REMARK  4 active torsions:
REMARK  status: ('A' for Active; 'I' for Inactive)
REMARK    1  A    between atoms: C_2  and  O_13
REMARK    2  A    between atoms: C_4  and  C_7
REMARK    3  A    between atoms: O_13  and  C_14
REMARK    4  A    between atoms: C_15  and  C_16
REMARK                            x       y       z     vdW  Elec       q    Type
REMARK                         _______ _______ _______ _____ _____    ______ ____
ROOT
ATOM      1  C   UNL A   1     -24.932   1.752  28.107  0.00  0.00    +0.049 A 
ATOM      2  C   UNL A   1     -24.040   1.692  27.548  0.00  0.00    +0.146 A 
ATOM      3  C   UNL A   1     -26.210   1.617  27.310  0.00  0.00    +0.061 A 
ATOM      4  C   UNL A   1     -26.138   1.286  25.940  0.00  0.00    +0.011 A 
ATOM      5  C   UNL A   1     -23.694   1.328  26.155  0.00  0.00    +0.037 A 
ATOM      6  C   UNL A   1     -24.845   1.190  25.392  0.00  0.00    +0.004 A 
ATOM      7 CL   UNL A   1     -27.735   1.829  28.054  0.00  0.00    -0.082 Cl
ENDROOT
BRANCH   4   8
ATOM      8  C   UNL A   1     -27.306   1.164  25.137  0.00  0.00    +0.001 A 
ATOM      9  C   UNL A   1     -27.805   0.220  24.843  0.00  0.00    +0.000 A 
ATOM     10  C   UNL A   1     -28.546  -0.153  23.959  0.00  0.00    +0.000 A 
ATOM     11  C   UNL A   1     -29.265   0.898  23.310  0.00  0.00    +0.000 A 
ATOM     12  C   UNL A   1     -28.817   2.203  23.545  0.00  0.00    +0.000 A 
ATOM     13  C   UNL A   1     -27.754   2.386  24.544  0.00  0.00    +0.000 A 
ENDBRANCH   4   8
BRANCH   2  14
ATOM     14  O   UNL A   1     -22.793   1.875  28.319  0.00  0.00    -0.450 OA
BRANCH  14  15
ATOM     15  C   UNL A   1     -21.730   1.082  28.019  0.00  0.00    +0.179 C 
ATOM     16  C   UNL A   1     -21.524   0.090  28.558  0.00  0.00    +0.041 C 
BRANCH  16  17
ATOM     17  C   UNL A   1     -22.433  -0.461  29.506  0.00  0.00    +0.003 A 
ATOM     18  C   UNL A   1     -22.425  -0.132  30.649  0.00  0.00    +0.000 A 
ATOM     19  C   UNL A   1     -23.436  -0.790  31.559  0.00  0.00    +0.000 A 
ATOM     20  C   UNL A   1     -24.153  -1.843  31.107  0.00  0.00    +0.000 A 
ATOM     21  C   UNL A   1     -24.081  -2.235  29.795  0.00  0.00    +0.000 A 
ATOM     22  C   UNL A   1     -23.271  -1.564  28.955  0.00  0.00    +0.000 A 
ENDBRANCH  16  17
ENDBRANCH  14  15
ENDBRANCH   2  14
TORSDOF 4
ENDMDL
ENDMDL
