MODEL 1928
MODEL 1
REMARK VINA RESULT:    -4.477      0.000      0.000
REMARK INTER + INTRA:          -4.477
REMARK INTER:                  -4.477
REMARK INTRA:                   0.000
REMARK UNBOUND:                 0.000
REMARK  Name = No_1928-gen_results/8p0m/2024-11-26-14-13-15/
REMARK  0 active torsions:
REMARK  status: ('A' for Active; 'I' for Inactive)
REMARK                            x       y       z     vdW  Elec       q    Type
REMARK                         _______ _______ _______ _____ _____    ______ ____
ROOT
ATOM      1  C   UNL A   1      -9.189  -9.198  20.186  0.00  0.00    +0.011 A 
ATOM      2  C   UNL A   1      -8.189  -9.857  20.016  0.00  0.00    +0.058 A 
ATOM      3  C   UNL A   1      -8.018 -10.619  18.866  0.00  0.00    +0.011 A 
ATOM      4  C   UNL A   1      -9.047 -10.684  17.861  0.00  0.00    +0.001 A 
ATOM      5  C   UNL A   1     -10.179  -9.911  18.148  0.00  0.00    +0.000 A 
ATOM      6  C   UNL A   1     -10.299  -9.220  19.259  0.00  0.00    +0.001 A 
ATOM      7 CL   UNL A   1      -6.889  -9.936  21.128  0.00  0.00    -0.082 Cl
ENDROOT
TORSDOF 0
ENDMDL
ENDMDL
