REMARK  Name = No_1929-gen_results/8p0m/2024-11-26-14-13-15/
REMARK  2 active torsions:
REMARK  status: ('A' for Active; 'I' for Inactive)
REMARK    1  A    between atoms: C_5  and  C_10
REMARK    2  A    between atoms: C_8  and  C_9
REMARK                            x       y       z     vdW  Elec       q    Type
REMARK                         _______ _______ _______ _____ _____    ______ ____
ROOT
ATOM      1  C   UNL A   1     -28.016  -0.814  28.878  0.00  0.00    +0.001 C 
ATOM      2  C   UNL A   1     -27.064  -0.119  28.608  0.00  0.00    -0.026 C 
ATOM      3  C   UNL A   1     -25.765  -0.390  29.036  0.00  0.00    +0.022 C 
ATOM      4  C   UNL A   1     -24.552   0.406  28.765  0.00  0.00    +0.017 C 
ATOM      5  C   UNL A   1     -24.696   1.448  27.799  0.00  0.00    +0.117 C 
ATOM      6  C   UNL A   1     -25.976   1.725  27.308  0.00  0.00    -0.020 C 
ATOM      7  C   UNL A   1     -27.072   1.013  27.654  0.00  0.00    -0.001 C 
ATOM      8  C   UNL A   1     -29.226  -0.068  29.315  0.00  0.00    +0.146 C 
ATOM      9  O   UNL A   1     -29.350   1.148  28.640  0.00  0.00    -0.344 OA
ATOM     10  C   UNL A   1     -28.174   1.908  28.348  0.00  0.00    +0.169 C 
ATOM     11  C   UNL A   1     -29.002   0.413  30.794  0.00  0.00    +0.040 C 
ATOM     12  C   UNL A   1     -25.413  -1.521  29.981  0.00  0.00    +0.005 C 
ENDROOT
BRANCH   8  13
ATOM     13  C   UNL A   1     -30.490  -0.730  29.181  0.00  0.00    +0.087 A 
ATOM     14  C   UNL A   1     -31.312  -0.317  28.184  0.00  0.00    +0.017 A 
ATOM     15  C   UNL A   1     -32.607  -0.806  28.061  0.00  0.00    +0.003 A 
ATOM     16  N   UNL A   1     -30.846  -1.774  29.944  0.00  0.00    -0.245 NA
ATOM     17  C   UNL A   1     -32.017  -2.368  29.841  0.00  0.00    +0.099 A 
ATOM     18  C   UNL A   1     -32.893  -1.942  28.863  0.00  0.00    +0.021 A 
ENDBRANCH   8  13
BRANCH   5  19
ATOM     19  C   UNL A   1     -23.484   2.188  27.488  0.00  0.00    +0.401 C 
ATOM     20  F   UNL A   1     -23.676   3.176  26.748  0.00  0.00    -0.170 F 
ATOM     21  F   UNL A   1     -22.801   2.682  28.540  0.00  0.00    -0.170 F 
ATOM     22  F   UNL A   1     -22.540   1.419  26.855  0.00  0.00    -0.170 F 
ENDBRANCH   5  19
TORSDOF 2
