MODEL 1929
MODEL 1
REMARK VINA RESULT:    -6.981      0.000      0.000
REMARK INTER + INTRA:          -8.368
REMARK INTER:                  -7.797
REMARK INTRA:                  -0.571
REMARK UNBOUND:                -0.571
REMARK  Name = No_1929-gen_results/8p0m/2024-11-26-14-13-15/
REMARK  2 active torsions:
REMARK  status: ('A' for Active; 'I' for Inactive)
REMARK    1  A    between atoms: C_5  and  C_10
REMARK    2  A    between atoms: C_8  and  C_9
REMARK                            x       y       z     vdW  Elec       q    Type
REMARK                         _______ _______ _______ _____ _____    ______ ____
ROOT
ATOM      1  C   UNL A   1     -24.967  -0.502  27.591  0.00  0.00    +0.001 C 
ATOM      2  C   UNL A   1     -25.038   0.702  27.670  0.00  0.00    -0.026 C 
ATOM      3  C   UNL A   1     -24.594   1.569  26.672  0.00  0.00    +0.022 C 
ATOM      4  C   UNL A   1     -24.630   3.044  26.690  0.00  0.00    +0.017 C 
ATOM      5  C   UNL A   1     -25.380   3.634  27.753  0.00  0.00    +0.117 C 
ATOM      6  C   UNL A   1     -25.883   2.797  28.754  0.00  0.00    -0.020 C 
ATOM      7  C   UNL A   1     -25.750   1.451  28.730  0.00  0.00    -0.001 C 
ATOM      8  C   UNL A   1     -24.467  -1.177  28.818  0.00  0.00    +0.146 C 
ATOM      9  O   UNL A   1     -24.896  -0.524  29.974  0.00  0.00    -0.344 OA
ATOM     10  C   UNL A   1     -24.962   0.905  29.986  0.00  0.00    +0.169 C 
ATOM     11  C   UNL A   1     -22.911  -0.968  28.896  0.00  0.00    +0.040 C 
ATOM     12  C   UNL A   1     -23.869   1.107  25.424  0.00  0.00    +0.005 C 
ENDROOT
BRANCH   8  13
ATOM     13  C   UNL A   1     -24.804  -2.560  28.991  0.00  0.00    +0.087 A 
ATOM     14  C   UNL A   1     -23.882  -3.482  28.618  0.00  0.00    +0.017 A 
ATOM     15  C   UNL A   1     -24.171  -4.841  28.623  0.00  0.00    +0.003 A 
ATOM     16  N   UNL A   1     -25.945  -2.960  29.570  0.00  0.00    -0.245 NA
ATOM     17  C   UNL A   1     -26.270  -4.229  29.707  0.00  0.00    +0.099 A 
ATOM     18  C   UNL A   1     -25.370  -5.192  29.297  0.00  0.00    +0.021 A 
ENDBRANCH   8  13
BRANCH   5  19
ATOM     19  C   UNL A   1     -25.466   5.085  27.730  0.00  0.00    +0.401 C 
ATOM     20  F   UNL A   1     -25.558   5.599  28.865  0.00  0.00    -0.170 F 
ATOM     21  F   UNL A   1     -24.438   5.734  27.148  0.00  0.00    -0.170 F 
ATOM     22  F   UNL A   1     -26.547   5.542  27.019  0.00  0.00    -0.170 F 
ENDBRANCH   5  19
TORSDOF 2
ENDMDL
ENDMDL
