MODEL 192
MODEL 1
REMARK VINA RESULT:    -8.168      0.000      0.000
REMARK INTER + INTRA:          -9.778
REMARK INTER:                  -9.123
REMARK INTRA:                  -0.655
REMARK UNBOUND:                -0.655
REMARK  Name = No_192-gen_results/8p0m/2024-11-26-14-13-15/
REMARK  2 active torsions:
REMARK  status: ('A' for Active; 'I' for Inactive)
REMARK    1  A    between atoms: C_4  and  C_9
REMARK    2  A    between atoms: C_9  and  C_10
REMARK                            x       y       z     vdW  Elec       q    Type
REMARK                         _______ _______ _______ _____ _____    ______ ____
ROOT
ATOM      1  C   UNL A   1     -25.024   0.038  27.160  0.00  0.00    -0.000 A 
ATOM      2  C   UNL A   1     -25.422   0.807  26.560  0.00  0.00    -0.000 A 
ATOM      3  C   UNL A   1     -23.697   0.252  27.665  0.00  0.00    -0.004 A 
ATOM      4  C   UNL A   1     -23.116  -0.651  28.679  0.00  0.00    -0.018 A 
ATOM      5  C   UNL A   1     -21.788  -0.758  28.885  0.00  0.00    -0.004 A 
ATOM      6  C   UNL A   1     -24.751   1.922  25.906  0.00  0.00    -0.000 A 
ATOM      7  C   UNL A   1     -23.483   2.120  26.320  0.00  0.00    -0.000 A 
ATOM      8  C   UNL A   1     -22.902   1.283  27.267  0.00  0.00    -0.000 A 
ATOM      9  C   UNL A   1     -21.590   1.399  27.681  0.00  0.00    -0.000 A 
ATOM     10  C   UNL A   1     -21.007   0.428  28.548  0.00  0.00    -0.000 A 
ENDROOT
BRANCH   4  11
ATOM     11  C   UNL A   1     -23.949  -1.339  29.639  0.00  0.00    +0.053 C 
BRANCH  11  12
ATOM     12  C   UNL A   1     -24.485  -2.633  29.231  0.00  0.00    -0.018 A 
ATOM     13  C   UNL A   1     -23.996  -3.566  28.561  0.00  0.00    -0.004 A 
ATOM     14  C   UNL A   1     -24.040  -4.609  28.590  0.00  0.00    -0.000 A 
ATOM     15  C   UNL A   1     -25.283  -5.261  29.199  0.00  0.00    -0.000 A 
ATOM     16  C   UNL A   1     -26.211  -4.375  29.686  0.00  0.00    -0.000 A 
ATOM     17  C   UNL A   1     -25.752  -3.007  29.889  0.00  0.00    -0.004 A 
ENDBRANCH  11  12
ENDBRANCH   4  11
TORSDOF 2
ENDMDL
ENDMDL
