REMARK  Name = No_193-gen_results/8p0m/2024-11-26-14-13-15/
REMARK  7 active torsions:
REMARK  status: ('A' for Active; 'I' for Inactive)
REMARK    1  A    between atoms: C_3  and  C_7
REMARK    2  A    between atoms: C_4  and  C_21
REMARK    3  A    between atoms: C_7  and  C_8
REMARK    4  A    between atoms: C_7  and  C_14
REMARK    5  A    between atoms: N_23  and  C_25
REMARK    6  A    between atoms: C_25  and  C_26
REMARK    7  A    between atoms: C_26  and  C_27
REMARK                            x       y       z     vdW  Elec       q    Type
REMARK                         _______ _______ _______ _____ _____    ______ ____
ROOT
ATOM      1  C   UNL A   1     -28.016  -0.814  28.878  0.00  0.00    -0.003 A 
ATOM      2  C   UNL A   1     -28.469  -0.785  29.829  0.00  0.00    -0.000 A 
ATOM      3  C   UNL A   1     -28.196   0.348  28.055  0.00  0.00    -0.008 A 
ATOM      4  C   UNL A   1     -29.019   1.350  28.378  0.00  0.00    +0.050 A 
ATOM      5  C   UNL A   1     -29.411   0.180  30.378  0.00  0.00    +0.000 A 
ATOM      6  C   UNL A   1     -29.606   1.250  29.619  0.00  0.00    +0.004 A 
ENDROOT
BRANCH   4   7
ATOM      7  C   UNL A   1     -29.297   2.532  27.549  0.00  0.00    +0.249 C 
ATOM      8  O   UNL A   1     -30.226   2.571  26.720  0.00  0.00    -0.270 OA
ATOM      9  N   UNL A   1     -28.439   3.625  27.704  0.00  0.00    -0.274 N 
ATOM     10  C   UNL A   1     -28.549   4.815  26.909  0.00  0.00    +0.115 C 
BRANCH   9  11
ATOM     11  C   UNL A   1     -27.386   3.671  28.703  0.00  0.00    +0.098 C 
BRANCH  11  12
ATOM     12  C   UNL A   1     -27.605   4.541  29.810  0.00  0.00    +0.048 C 
BRANCH  12  13
ATOM     13  C   UNL A   1     -26.853   4.229  30.872  0.00  0.00    -0.021 A 
ATOM     14  C   UNL A   1     -26.998   4.962  32.164  0.00  0.00    -0.004 A 
ATOM     15  C   UNL A   1     -26.269   4.610  33.341  0.00  0.00    -0.000 A 
ATOM     16  C   UNL A   1     -25.447   3.463  33.241  0.00  0.00    -0.000 A 
ATOM     17  C   UNL A   1     -25.263   2.792  32.063  0.00  0.00    -0.000 A 
ATOM     18  C   UNL A   1     -25.975   3.143  30.959  0.00  0.00    -0.004 A 
ENDBRANCH  12  13
ENDBRANCH  11  12
ENDBRANCH   9  11
ENDBRANCH   4   7
BRANCH   3  19
ATOM     19  C   UNL A   1     -27.460   0.380  26.709  0.00  0.00    +0.085 C 
BRANCH  19  20
ATOM     20  C   UNL A   1     -26.009   0.332  26.724  0.00  0.00    -0.013 A 
ATOM     21  C   UNL A   1     -25.282   0.915  25.761  0.00  0.00    -0.003 A 
ATOM     22  C   UNL A   1     -23.891   0.937  25.846  0.00  0.00    +0.011 A 
ATOM     23  C   UNL A   1     -23.386   1.402  27.043  0.00  0.00    +0.058 A 
ATOM     24  C   UNL A   1     -24.097   0.853  28.226  0.00  0.00    +0.011 A 
ATOM     25  C   UNL A   1     -25.397   0.466  28.103  0.00  0.00    -0.003 A 
ATOM     26 CL   UNL A   1     -21.738   1.712  27.277  0.00  0.00    -0.082 Cl
ENDBRANCH  19  20
BRANCH  19  27
ATOM     27  C   UNL A   1     -28.153   0.260  25.538  0.00  0.00    +0.067 A 
ATOM     28  N   UNL A   1     -28.497   1.113  24.747  0.00  0.00    -0.247 NA
ATOM     29  C   UNL A   1     -29.355   1.006  23.732  0.00  0.00    +0.099 A 
ATOM     30  C   UNL A   1     -30.451   0.260  24.061  0.00  0.00    +0.021 A 
ATOM     31  C   UNL A   1     -30.207  -0.916  24.801  0.00  0.00    +0.003 A 
ATOM     32  C   UNL A   1     -29.198  -0.800  25.797  0.00  0.00    +0.015 A 
ENDBRANCH  19  27
ENDBRANCH   3  19
TORSDOF 7
