REMARK  Name = No_1930-gen_results/8p0m/2024-11-26-14-13-15/
REMARK  7 active torsions:
REMARK  status: ('A' for Active; 'I' for Inactive)
REMARK    1  A    between atoms: C_3  and  N_7
REMARK    2  A    between atoms: C_6  and  C_14
REMARK    3  A    between atoms: C_9  and  C_12
REMARK    4  A    between atoms: C_11  and  C_18
REMARK    5  A    between atoms: C_18  and  C_19
REMARK    6  A    between atoms: C_21  and  C_32
REMARK    7  A    between atoms: C_23  and  C_25
REMARK                            x       y       z     vdW  Elec       q    Type
REMARK                         _______ _______ _______ _____ _____    ______ ____
ROOT
ATOM      1  N   UNL A   1     -24.772   0.523  28.692  0.00  0.00    -0.306 N 
ATOM      2  C   UNL A   1     -23.540   0.257  29.090  0.00  0.00    +0.102 C 
ATOM      3  C   UNL A   1     -22.558   1.167  28.495  0.00  0.00    +0.123 C 
ATOM      4  C   UNL A   1     -25.019   1.789  28.373  0.00  0.00    +0.098 C 
ATOM      5  C   UNL A   1     -24.258   2.396  27.613  0.00  0.00    +0.082 C 
ATOM      6  C   UNL A   1     -22.878   2.288  27.727  0.00  0.00    +0.022 C 
ENDROOT
BRANCH   1   9
ATOM      7  C   UNL A   1     -28.016  -0.814  28.878  0.00  0.00    +0.005 A 
ATOM      8  C   UNL A   1     -27.064  -0.119  28.608  0.00  0.00    +0.015 A 
ATOM      9  C   UNL A   1     -25.765  -0.390  29.036  0.00  0.00    +0.048 A 
ATOM     10  C   UNL A   1     -25.530  -1.530  29.901  0.00  0.00    +0.015 A 
ATOM     11  C   UNL A   1     -26.689  -2.289  30.181  0.00  0.00    +0.005 A 
ATOM     12  C   UNL A   1     -27.873  -1.951  29.737  0.00  0.00    +0.071 A 
BRANCH  12  13
ATOM     13  C   UNL A   1     -28.931  -2.896  30.259  0.00  0.00    +0.419 C 
ATOM     14  F   UNL A   1     -28.661  -4.145  30.305  0.00  0.00    -0.166 F 
ATOM     15  F   UNL A   1     -30.003  -2.723  29.442  0.00  0.00    -0.166 F 
ATOM     16  F   UNL A   1     -29.272  -2.504  31.513  0.00  0.00    -0.166 F 
ENDBRANCH  12  13
ENDBRANCH   1   9
BRANCH   3  17
ATOM     17  C   UNL A   1     -21.092   0.855  28.661  0.00  0.00    +0.366 C 
ATOM     18  O   UNL A   1     -20.786  -0.413  28.862  0.00  0.00    -0.246 OA
ATOM     19  O   UNL A   1     -20.184   1.587  28.004  0.00  0.00    -0.246 OA
ENDBRANCH   3  17
BRANCH   5  20
ATOM     20  C   UNL A   1     -24.580   3.773  26.963  0.00  0.00    +0.174 C 
ATOM     21  O   UNL A   1     -24.533   3.738  25.671  0.00  0.00    -0.291 OA
BRANCH  20  22
ATOM     22  C   UNL A   1     -25.292   4.679  27.667  0.00  0.00    +0.035 A 
ATOM     23  C   UNL A   1     -25.497   5.951  27.115  0.00  0.00    +0.007 A 
ATOM     24  C   UNL A   1     -26.185   6.972  27.809  0.00  0.00    +0.071 A 
ATOM     25  C   UNL A   1     -26.801   6.667  29.025  0.00  0.00    +0.008 A 
ATOM     26  C   UNL A   1     -26.654   5.383  29.526  0.00  0.00    +0.071 A 
ATOM     27  C   UNL A   1     -25.899   4.432  28.911  0.00  0.00    +0.007 A 
BRANCH  26  28
ATOM     28  C   UNL A   1     -27.316   5.052  30.863  0.00  0.00    +0.419 C 
ATOM     29  F   UNL A   1     -28.235   5.245  31.272  0.00  0.00    -0.166 F 
ATOM     30  F   UNL A   1     -26.268   5.492  31.769  0.00  0.00    -0.166 F 
ATOM     31  F   UNL A   1     -26.958   3.615  31.002  0.00  0.00    -0.166 F 
ENDBRANCH  26  28
BRANCH  24  32
ATOM     32  C   UNL A   1     -26.283   8.333  27.256  0.00  0.00    +0.419 C 
ATOM     33  F   UNL A   1     -27.467   8.736  27.470  0.00  0.00    -0.166 F 
ATOM     34  F   UNL A   1     -25.420   9.122  27.860  0.00  0.00    -0.166 F 
ATOM     35  F   UNL A   1     -25.970   8.296  25.970  0.00  0.00    -0.166 F 
ENDBRANCH  24  32
ENDBRANCH  20  22
ENDBRANCH   5  20
TORSDOF 7
