MODEL 1930
MODEL 1
REMARK VINA RESULT:    -8.021      0.000      0.000
REMARK INTER + INTRA:         -13.188
REMARK INTER:                 -11.303
REMARK INTRA:                  -1.884
REMARK UNBOUND:                -1.884
REMARK  Name = No_1930-gen_results/8p0m/2024-11-26-14-13-15/
REMARK  7 active torsions:
REMARK  status: ('A' for Active; 'I' for Inactive)
REMARK    1  A    between atoms: C_3  and  N_7
REMARK    2  A    between atoms: C_6  and  C_14
REMARK    3  A    between atoms: C_9  and  C_12
REMARK    4  A    between atoms: C_11  and  C_18
REMARK    5  A    between atoms: C_18  and  C_19
REMARK    6  A    between atoms: C_21  and  C_32
REMARK    7  A    between atoms: C_23  and  C_25
REMARK                            x       y       z     vdW  Elec       q    Type
REMARK                         _______ _______ _______ _____ _____    ______ ____
ROOT
ATOM      1  N   UNL A   1     -26.015 -15.573   7.016  0.00  0.00    -0.306 N 
ATOM      2  C   UNL A   1     -25.811 -16.872   7.147  0.00  0.00    +0.102 C 
ATOM      3  C   UNL A   1     -26.750 -17.486   8.090  0.00  0.00    +0.123 C 
ATOM      4  C   UNL A   1     -27.262 -15.158   7.211  0.00  0.00    +0.098 C 
ATOM      5  C   UNL A   1     -27.885 -15.518   8.214  0.00  0.00    +0.082 C 
ATOM      6  C   UNL A   1     -27.839 -16.831   8.666  0.00  0.00    +0.022 C 
ENDROOT
BRANCH   1   9
ATOM      7  C   UNL A   1     -22.861 -14.816   5.665  0.00  0.00    +0.005 A 
ATOM      8  C   UNL A   1     -23.778 -15.373   6.223  0.00  0.00    +0.015 A 
ATOM      9  C   UNL A   1     -25.068 -14.848   6.298  0.00  0.00    +0.048 A 
ATOM     10  C   UNL A   1     -25.331 -13.539   5.733  0.00  0.00    +0.015 A 
ATOM     11  C   UNL A   1     -24.211 -12.946   5.107  0.00  0.00    +0.005 A 
ATOM     12  C   UNL A   1     -23.033 -13.515   5.092  0.00  0.00    +0.071 A 
BRANCH  12  13
ATOM     13  C   UNL A   1     -22.013 -12.619   4.427  0.00  0.00    +0.419 C 
ATOM     14  F   UNL A   1     -21.108 -13.161   3.704  0.00  0.00    -0.166 F 
ATOM     15  F   UNL A   1     -21.404 -11.951   5.441  0.00  0.00    -0.166 F 
ATOM     16  F   UNL A   1     -22.674 -11.723   3.651  0.00  0.00    -0.166 F 
ENDBRANCH  12  13
ENDBRANCH   1   9
BRANCH   3  17
ATOM     17  C   UNL A   1     -26.505 -18.908   8.528  0.00  0.00    +0.366 C 
ATOM     18  O   UNL A   1     -27.244 -19.833   7.944  0.00  0.00    -0.246 OA
ATOM     19  O   UNL A   1     -25.275 -19.281   8.901  0.00  0.00    -0.246 OA
ENDBRANCH   3  17
BRANCH   5  20
ATOM     20  C   UNL A   1     -29.233 -14.896   8.682  0.00  0.00    +0.174 C 
ATOM     21  O   UNL A   1     -30.199 -15.755   8.701  0.00  0.00    -0.291 OA
BRANCH  20  22
ATOM     22  C   UNL A   1     -29.210 -13.770   9.428  0.00  0.00    +0.035 A 
ATOM     23  C   UNL A   1     -29.796 -13.794  10.701  0.00  0.00    +0.007 A 
ATOM     24  C   UNL A   1     -29.861 -12.646  11.523  0.00  0.00    +0.071 A 
ATOM     25  C   UNL A   1     -29.201 -11.484  11.116  0.00  0.00    +0.008 A 
ATOM     26  C   UNL A   1     -28.560 -11.496   9.887  0.00  0.00    +0.071 A 
ATOM     27  C   UNL A   1     -28.592 -12.566   9.047  0.00  0.00    +0.007 A 
BRANCH  26  28
ATOM     28  C   UNL A   1     -27.849 -10.221   9.435  0.00  0.00    +0.419 C 
ATOM     29  F   UNL A   1     -27.510  -9.383   9.916  0.00  0.00    -0.166 F 
ATOM     30  F   UNL A   1     -28.709  -9.843   8.326  0.00  0.00    -0.166 F 
ATOM     31  F   UNL A   1     -26.800 -10.789   8.546  0.00  0.00    -0.166 F 
ENDBRANCH  26  28
BRANCH  24  32
ATOM     32  C   UNL A   1     -30.587 -12.669  12.804  0.00  0.00    +0.419 C 
ATOM     33  F   UNL A   1     -31.825 -12.698  12.529  0.00  0.00    -0.166 F 
ATOM     34  F   UNL A   1     -30.249 -13.742  13.487  0.00  0.00    -0.166 F 
ATOM     35  F   UNL A   1     -30.236 -11.608  13.514  0.00  0.00    -0.166 F 
ENDBRANCH  24  32
ENDBRANCH  20  22
ENDBRANCH   5  20
TORSDOF 7
ENDMDL
ENDMDL
