REMARK  Name = No_1931-gen_results/8p0m/2024-11-26-14-13-15/
REMARK  1 active torsions:
REMARK  status: ('A' for Active; 'I' for Inactive)
REMARK    1  A    between atoms: C_4  and  C_11
REMARK                            x       y       z     vdW  Elec       q    Type
REMARK                         _______ _______ _______ _____ _____    ______ ____
ROOT
ATOM      1  C   UNL A   1     -28.016  -0.814  28.878  0.00  0.00    +0.044 C 
ATOM      2  C   UNL A   1     -28.469  -0.785  29.829  0.00  0.00    +0.077 C 
ATOM      3  C   UNL A   1     -27.087   0.290  28.638  0.00  0.00    -0.017 A 
ATOM      4  C   UNL A   1     -26.910   0.849  27.420  0.00  0.00    +0.076 A 
ATOM      5  N   UNL A   1     -27.890  -0.556  31.020  0.00  0.00    -0.267 NA
ATOM      6  C   UNL A   1     -25.826   1.595  27.170  0.00  0.00    +0.006 A 
ATOM      7  C   UNL A   1     -24.846   1.939  28.185  0.00  0.00    -0.000 A 
ATOM      8  C   UNL A   1     -25.022   1.334  29.410  0.00  0.00    -0.003 A 
ATOM      9  C   UNL A   1     -26.068   0.493  29.609  0.00  0.00    -0.010 A 
ATOM     10  C   UNL A   1     -26.706   0.278  30.942  0.00  0.00    +0.099 C 
ATOM     11  C   UNL A   1     -28.372  -0.905  32.362  0.00  0.00    +0.090 C 
ENDROOT
BRANCH   4  12
ATOM     12  C   UNL A   1     -27.715   0.547  26.246  0.00  0.00    +0.387 C 
ATOM     13  O   UNL A   1     -27.409   0.692  25.099  0.00  0.00    -0.241 OA
ATOM     14  O   UNL A   1     -28.987   0.442  26.450  0.00  0.00    -0.241 OA
ENDBRANCH   4  12
TORSDOF 1
