MODEL 1931
MODEL 1
REMARK VINA RESULT:    -5.797      0.000      0.000
REMARK INTER + INTRA:          -6.206
REMARK INTER:                  -6.136
REMARK INTRA:                  -0.070
REMARK UNBOUND:                -0.070
REMARK  Name = No_1931-gen_results/8p0m/2024-11-26-14-13-15/
REMARK  1 active torsions:
REMARK  status: ('A' for Active; 'I' for Inactive)
REMARK    1  A    between atoms: C_4  and  C_11
REMARK                            x       y       z     vdW  Elec       q    Type
REMARK                         _______ _______ _______ _____ _____    ______ ____
ROOT
ATOM      1  C   UNL A   1     -25.369  -1.161  30.604  0.00  0.00    +0.044 C 
ATOM      2  C   UNL A   1     -24.823  -0.421  30.088  0.00  0.00    +0.077 C 
ATOM      3  C   UNL A   1     -25.421  -2.445  29.905  0.00  0.00    -0.017 A 
ATOM      4  C   UNL A   1     -26.491  -3.268  29.962  0.00  0.00    +0.076 A 
ATOM      5  N   UNL A   1     -23.626  -0.537  29.489  0.00  0.00    -0.267 NA
ATOM      6  C   UNL A   1     -26.372  -4.556  29.614  0.00  0.00    +0.006 A 
ATOM      7  C   UNL A   1     -25.152  -5.121  29.064  0.00  0.00    -0.000 A 
ATOM      8  C   UNL A   1     -24.063  -4.279  29.045  0.00  0.00    -0.003 A 
ATOM      9  C   UNL A   1     -24.178  -3.008  29.506  0.00  0.00    -0.010 A 
ATOM     10  C   UNL A   1     -23.341  -1.875  29.009  0.00  0.00    +0.099 C 
ATOM     11  C   UNL A   1     -22.666   0.516  29.136  0.00  0.00    +0.090 C 
ENDROOT
BRANCH   4  12
ATOM     12  C   UNL A   1     -27.766  -2.928  30.576  0.00  0.00    +0.387 C 
ATOM     13  O   UNL A   1     -28.341  -3.528  31.436  0.00  0.00    -0.241 OA
ATOM     14  O   UNL A   1     -28.510  -2.111  29.906  0.00  0.00    -0.241 OA
ENDBRANCH   4  12
TORSDOF 1
ENDMDL
ENDMDL
