MODEL 1932
MODEL 1
REMARK VINA RESULT:    -5.296      0.000      0.000
REMARK INTER + INTRA:          -6.041
REMARK INTER:                  -5.916
REMARK INTRA:                  -0.125
REMARK UNBOUND:                -0.125
REMARK  Name = No_1932-gen_results/8p0m/2024-11-26-14-13-15/
REMARK  2 active torsions:
REMARK  status: ('A' for Active; 'I' for Inactive)
REMARK    1  A    between atoms: C_4  and  C_8
REMARK    2  A    between atoms: C_8  and  C_9
REMARK                            x       y       z     vdW  Elec       q    Type
REMARK                         _______ _______ _______ _____ _____    ______ ____
ROOT
ATOM      1  O   UNL A   1     -24.884  -6.005  28.546  0.00  0.00    -0.296 OA
ATOM      2  C   UNL A   1     -24.752  -4.837  28.930  0.00  0.00    +0.151 C 
ATOM      3  C   UNL A   1     -24.006  -3.981  28.845  0.00  0.00    +0.065 C 
ATOM      4  C   UNL A   1     -24.137  -2.514  29.191  0.00  0.00    +0.012 C 
ATOM      5  C   UNL A   1     -25.317  -2.183  29.799  0.00  0.00    +0.001 C 
ATOM      6  C   UNL A   1     -26.282  -3.139  29.942  0.00  0.00    +0.008 C 
ATOM      7  C   UNL A   1     -26.125  -4.358  29.619  0.00  0.00    +0.065 C 
ENDROOT
BRANCH   4   8
ATOM      8  C   UNL A   1     -23.085  -1.508  29.055  0.00  0.00    +0.028 C 
BRANCH   8   9
ATOM      9  C   UNL A   1     -23.410  -0.244  28.560  0.00  0.00    -0.007 C 
ATOM     10  C   UNL A   1     -22.491   0.799  28.429  0.00  0.00    +0.101 C 
ATOM     11  N   UNL A   1     -22.925   2.002  28.195  0.00  0.00    -0.127 NA
ENDBRANCH   8   9
ENDBRANCH   4   8
TORSDOF 2
ENDMDL
ENDMDL
