REMARK  Name = No_1932-gen_results/8p0m/2024-11-26-14-13-15/
REMARK  2 active torsions:
REMARK  status: ('A' for Active; 'I' for Inactive)
REMARK    1  A    between atoms: C_4  and  C_8
REMARK    2  A    between atoms: C_8  and  C_9
REMARK                            x       y       z     vdW  Elec       q    Type
REMARK                         _______ _______ _______ _____ _____    ______ ____
ROOT
ATOM      1  O   UNL A   1     -28.123  -1.335  28.487  0.00  0.00    -0.296 OA
ATOM      2  C   UNL A   1     -27.064  -0.824  28.869  0.00  0.00    +0.151 C 
ATOM      3  C   UNL A   1     -25.946  -1.040  28.849  0.00  0.00    +0.065 C 
ATOM      4  C   UNL A   1     -24.760  -0.156  29.164  0.00  0.00    +0.012 C 
ATOM      5  C   UNL A   1     -25.092   1.079  29.649  0.00  0.00    +0.001 C 
ATOM      6  C   UNL A   1     -26.409   1.438  29.707  0.00  0.00    +0.008 C 
ATOM      7  C   UNL A   1     -27.369   0.659  29.415  0.00  0.00    +0.065 C 
ENDROOT
BRANCH   4   8
ATOM      8  C   UNL A   1     -23.356  -0.564  29.121  0.00  0.00    +0.028 C 
BRANCH   8   9
ATOM      9  C   UNL A   1     -22.432   0.242  28.455  0.00  0.00    -0.007 C 
ATOM     10  C   UNL A   1     -21.048   0.085  28.556  0.00  0.00    +0.101 C 
ATOM     11  N   UNL A   1     -20.268   1.021  28.104  0.00  0.00    -0.127 NA
ENDBRANCH   8   9
ENDBRANCH   4   8
TORSDOF 2
