REMARK  Name = No_1933-gen_results/8p0m/2024-11-26-14-13-15/
REMARK  7 active torsions:
REMARK  status: ('A' for Active; 'I' for Inactive)
REMARK    1  A    between atoms: N_4  and  C_11
REMARK    2  A    between atoms: C_6  and  C_7
REMARK    3  A    between atoms: C_15  and  C_18
REMARK    4  A    between atoms: C_20  and  C_25
REMARK    5  A    between atoms: C_26  and  C_27
REMARK    6  A    between atoms: C_27  and  C_28
REMARK    7  A    between atoms: C_27  and  C_34
REMARK                            x       y       z     vdW  Elec       q    Type
REMARK                         _______ _______ _______ _____ _____    ______ ____
ROOT
ATOM      1  C   UNL A   1     -32.340  -0.104  30.605  0.00  0.00    +0.001 A 
ATOM      2  C   UNL A   1     -32.913  -0.808  29.871  0.00  0.00    +0.000 A 
ATOM      3  C   UNL A   1     -34.252  -0.542  29.288  0.00  0.00    +0.001 A 
ATOM      4  C   UNL A   1     -34.841   0.643  29.732  0.00  0.00    +0.011 A 
ATOM      5  C   UNL A   1     -34.210   1.466  30.587  0.00  0.00    +0.058 A 
ATOM      6  C   UNL A   1     -32.914   1.182  31.083  0.00  0.00    +0.011 A 
ATOM      7 CL   UNL A   1     -34.975   2.917  31.125  0.00  0.00    -0.082 Cl
ENDROOT
BRANCH   1  12
ATOM      8  C   UNL A   1     -28.557  -0.256  30.905  0.00  0.00    +0.061 A 
ATOM      9  C   UNL A   1     -28.468  -0.712  31.937  0.00  0.00    +0.015 A 
ATOM     10  C   UNL A   1     -29.522  -1.094  32.886  0.00  0.00    +0.001 A 
ATOM     11  C   UNL A   1     -30.808  -0.892  32.407  0.00  0.00    +0.000 A 
ATOM     12  C   UNL A   1     -30.970  -0.393  31.119  0.00  0.00    +0.001 A 
ATOM     13  C   UNL A   1     -29.905  -0.006  30.352  0.00  0.00    +0.015 A 
BRANCH   8  17
ATOM     14  O   UNL A   1     -28.123  -1.335  28.487  0.00  0.00    -0.274 OA
ATOM     15  C   UNL A   1     -27.481  -0.404  28.709  0.00  0.00    +0.235 C 
ATOM     16  C   UNL A   1     -26.380  -0.087  27.939  0.00  0.00    +0.087 C 
ATOM     17  N   UNL A   1     -27.423   0.175  30.055  0.00  0.00    -0.208 N 
ATOM     18  C   UNL A   1     -25.407   0.742  28.286  0.00  0.00    +0.030 C 
ATOM     19  C   UNL A   1     -25.570   1.435  29.575  0.00  0.00    +0.181 C 
ATOM     20  C   UNL A   1     -26.565   1.080  30.485  0.00  0.00    +0.246 C 
ATOM     21  O   UNL A   1     -26.762   1.648  31.603  0.00  0.00    -0.274 OA
BRANCH  19  22
ATOM     22  C   UNL A   1     -24.501   2.396  30.032  0.00  0.00    +0.373 C 
ATOM     23  O   UNL A   1     -23.489   2.619  29.313  0.00  0.00    -0.245 OA
ATOM     24  O   UNL A   1     -24.653   3.003  31.170  0.00  0.00    -0.245 OA
ENDBRANCH  19  22
ENDBRANCH   8  17
ENDBRANCH   1  12
BRANCH   3  25
ATOM     25  C   UNL A   1     -34.870  -1.451  28.400  0.00  0.00    -0.004 C 
ATOM     26  C   UNL A   1     -34.433  -2.083  27.525  0.00  0.00    -0.014 C 
BRANCH  26  27
ATOM     27  C   UNL A   1     -32.950  -1.950  27.271  0.00  0.00    +0.109 C 
BRANCH  27  28
ATOM     28  C   UNL A   1     -32.530  -1.534  26.423  0.00  0.00    -0.011 A 
ATOM     29  C   UNL A   1     -33.075  -1.158  25.259  0.00  0.00    -0.004 A 
ATOM     30  C   UNL A   1     -32.400  -0.615  24.138  0.00  0.00    -0.000 A 
ATOM     31  C   UNL A   1     -31.025  -0.332  24.287  0.00  0.00    -0.000 A 
ATOM     32  C   UNL A   1     -30.340  -0.617  25.438  0.00  0.00    -0.000 A 
ATOM     33  C   UNL A   1     -30.973  -1.116  26.457  0.00  0.00    -0.004 A 
ENDBRANCH  27  28
BRANCH  27  34
ATOM     34  C   UNL A   1     -32.280  -3.328  27.845  0.00  0.00    +0.216 C 
ATOM     35  O   UNL A   1     -31.558  -3.864  27.194  0.00  0.00    -0.288 OA
ENDBRANCH  27  34
ENDBRANCH  26  27
ENDBRANCH   3  25
TORSDOF 7
