MODEL 1933
MODEL 1
REMARK VINA RESULT:    -7.665      0.000      0.000
REMARK INTER + INTRA:         -12.581
REMARK INTER:                 -10.802
REMARK INTRA:                  -1.780
REMARK UNBOUND:                -1.780
REMARK  Name = No_1933-gen_results/8p0m/2024-11-26-14-13-15/
REMARK  7 active torsions:
REMARK  status: ('A' for Active; 'I' for Inactive)
REMARK    1  A    between atoms: N_4  and  C_11
REMARK    2  A    between atoms: C_6  and  C_7
REMARK    3  A    between atoms: C_15  and  C_18
REMARK    4  A    between atoms: C_20  and  C_25
REMARK    5  A    between atoms: C_26  and  C_27
REMARK    6  A    between atoms: C_27  and  C_28
REMARK    7  A    between atoms: C_27  and  C_34
REMARK                            x       y       z     vdW  Elec       q    Type
REMARK                         _______ _______ _______ _____ _____    ______ ____
ROOT
ATOM      1  C   UNL A   1     -26.507   0.436  25.932  0.00  0.00    +0.001 A 
ATOM      2  C   UNL A   1     -26.456   0.296  27.090  0.00  0.00    +0.000 A 
ATOM      3  C   UNL A   1     -25.350   0.756  27.967  0.00  0.00    +0.001 A 
ATOM      4  C   UNL A   1     -24.293   1.356  27.282  0.00  0.00    +0.011 A 
ATOM      5  C   UNL A   1     -24.319   1.519  25.948  0.00  0.00    +0.058 A 
ATOM      6  C   UNL A   1     -25.419   1.095  25.163  0.00  0.00    +0.011 A 
ATOM      7 CL   UNL A   1     -22.987   2.254  25.134  0.00  0.00    -0.082 Cl
ENDROOT
BRANCH   1  12
ATOM      8  C   UNL A   1     -29.961   0.288  24.359  0.00  0.00    +0.061 A 
ATOM      9  C   UNL A   1     -29.793  -0.547  23.615  0.00  0.00    +0.015 A 
ATOM     10  C   UNL A   1     -28.575  -1.316  23.328  0.00  0.00    +0.001 A 
ATOM     11  C   UNL A   1     -27.495  -0.974  24.129  0.00  0.00    +0.000 A 
ATOM     12  C   UNL A   1     -27.669   0.003  25.103  0.00  0.00    +0.001 A 
ATOM     13  C   UNL A   1     -28.839   0.702  25.228  0.00  0.00    +0.015 A 
BRANCH   8  17
ATOM     14  O   UNL A   1     -31.884  -0.475  26.067  0.00  0.00    -0.274 OA
ATOM     15  C   UNL A   1     -32.038   0.578  25.626  0.00  0.00    +0.235 C 
ATOM     16  C   UNL A   1     -33.252   1.230  25.720  0.00  0.00    +0.087 C 
ATOM     17  N   UNL A   1     -31.214   1.063  24.514  0.00  0.00    -0.208 N 
ATOM     18  C   UNL A   1     -33.631   2.266  24.988  0.00  0.00    +0.030 C 
ATOM     19  C   UNL A   1     -32.630   2.805  24.052  0.00  0.00    +0.181 C 
ATOM     20  C   UNL A   1     -31.437   2.136  23.780  0.00  0.00    +0.246 C 
ATOM     21  O   UNL A   1     -30.533   2.557  22.995  0.00  0.00    -0.274 OA
BRANCH  19  22
ATOM     22  C   UNL A   1     -32.994   3.987  23.188  0.00  0.00    +0.373 C 
ATOM     23  O   UNL A   1     -32.831   5.164  23.611  0.00  0.00    -0.245 OA
ATOM     24  O   UNL A   1     -33.459   3.768  21.996  0.00  0.00    -0.245 OA
ENDBRANCH  19  22
ENDBRANCH   8  17
ENDBRANCH   1  12
BRANCH   3  25
ATOM     25  C   UNL A   1     -25.375   0.548  29.364  0.00  0.00    -0.004 C 
ATOM     26  C   UNL A   1     -24.934  -0.310  30.018  0.00  0.00    -0.014 C 
BRANCH  26  27
ATOM     27  C   UNL A   1     -24.186  -1.400  29.288  0.00  0.00    +0.109 C 
BRANCH  27  28
ATOM     28  C   UNL A   1     -24.478  -2.391  29.245  0.00  0.00    -0.011 A 
ATOM     29  C   UNL A   1     -23.820  -3.491  28.858  0.00  0.00    -0.004 A 
ATOM     30  C   UNL A   1     -24.324  -4.814  28.813  0.00  0.00    -0.000 A 
ATOM     31  C   UNL A   1     -25.619  -5.029  29.331  0.00  0.00    -0.000 A 
ATOM     32  C   UNL A   1     -26.395  -4.007  29.808  0.00  0.00    -0.000 A 
ATOM     33  C   UNL A   1     -25.919  -2.799  29.841  0.00  0.00    -0.004 A 
ENDBRANCH  27  28
BRANCH  27  34
ATOM     34  C   UNL A   1     -22.600  -1.092  29.543  0.00  0.00    +0.216 C 
ATOM     35  O   UNL A   1     -22.298  -0.717  30.544  0.00  0.00    -0.288 OA
ENDBRANCH  27  34
ENDBRANCH  26  27
ENDBRANCH   3  25
TORSDOF 7
ENDMDL
ENDMDL
