REMARK  Name = No_1934-gen_results/8p0m/2024-11-26-14-13-15/
REMARK  4 active torsions:
REMARK  status: ('A' for Active; 'I' for Inactive)
REMARK    1  A    between atoms: C_2  and  C_8
REMARK    2  A    between atoms: C_4  and  O_23
REMARK    3  A    between atoms: C_9  and  C_10
REMARK    4  A    between atoms: C_13  and  C_20
REMARK                            x       y       z     vdW  Elec       q    Type
REMARK                         _______ _______ _______ _____ _____    ______ ____
ROOT
ATOM      1  C   UNL A   1     -25.877  -0.299  29.588  0.00  0.00    +0.000 A 
ATOM      2  C   UNL A   1     -25.025   0.716  29.889  0.00  0.00    +0.000 A 
ATOM      3  C   UNL A   1     -23.626   0.165  29.924  0.00  0.00    +0.000 A 
ATOM      4  C   UNL A   1     -25.709  -1.623  30.044  0.00  0.00    +0.000 A 
ATOM      5  C   UNL A   1     -24.440  -2.193  29.628  0.00  0.00    +0.000 A 
ATOM      6  C   UNL A   1     -23.317  -1.244  29.898  0.00  0.00    +0.000 A 
ENDROOT
BRANCH   1   8
ATOM      7  C   UNL A   1     -28.016  -0.814  28.878  0.00  0.00    +0.003 A 
ATOM      8  C   UNL A   1     -27.064  -0.119  28.608  0.00  0.00    +0.003 A 
ATOM      9  C   UNL A   1     -26.972   0.714  27.506  0.00  0.00    +0.039 A 
ATOM     10  C   UNL A   1     -28.105   0.774  26.642  0.00  0.00    +0.166 A 
ATOM     11  C   UNL A   1     -29.201   0.104  27.053  0.00  0.00    +0.174 A 
ATOM     12  C   UNL A   1     -29.210  -0.603  28.185  0.00  0.00    +0.033 A 
ATOM     13  F   UNL A   1     -30.281   0.216  26.291  0.00  0.00    -0.201 F 
BRANCH  10  14
ATOM     14  O   UNL A   1     -28.065   1.588  25.576  0.00  0.00    -0.469 OA
ATOM     15  C   UNL A   1     -27.414   1.030  24.600  0.00  0.00    +0.253 C 
ENDBRANCH  10  14
ENDBRANCH   1   8
BRANCH   2  16
ATOM     16  C   UNL A   1     -25.296   1.580  30.550  0.00  0.00    +0.000 A 
ATOM     17  C   UNL A   1     -26.527   1.790  31.280  0.00  0.00    +0.000 A 
ATOM     18  C   UNL A   1     -26.768   2.981  32.076  0.00  0.00    +0.007 A 
ATOM     19  C   UNL A   1     -25.832   3.990  32.084  0.00  0.00    +0.080 A 
ATOM     20  C   UNL A   1     -24.637   3.902  31.418  0.00  0.00    +0.007 A 
ATOM     21  C   UNL A   1     -24.320   2.763  30.717  0.00  0.00    +0.000 A 
BRANCH  19  22
ATOM     22  C   UNL A   1     -26.063   5.192  32.997  0.00  0.00    +0.388 C 
ATOM     23  O   UNL A   1     -26.165   6.273  32.642  0.00  0.00    -0.241 OA
ATOM     24  O   UNL A   1     -25.753   4.929  34.324  0.00  0.00    -0.241 OA
ENDBRANCH  19  22
ENDBRANCH   2  16
TORSDOF 4
