MODEL 1934
MODEL 1
REMARK VINA RESULT:    -7.609      0.000      0.000
REMARK INTER + INTRA:         -11.016
REMARK INTER:                  -9.388
REMARK INTRA:                  -1.628
REMARK UNBOUND:                -1.628
REMARK  Name = No_1934-gen_results/8p0m/2024-11-26-14-13-15/
REMARK  4 active torsions:
REMARK  status: ('A' for Active; 'I' for Inactive)
REMARK    1  A    between atoms: C_2  and  C_8
REMARK    2  A    between atoms: C_4  and  O_23
REMARK    3  A    between atoms: C_9  and  C_10
REMARK    4  A    between atoms: C_13  and  C_20
REMARK                            x       y       z     vdW  Elec       q    Type
REMARK                         _______ _______ _______ _____ _____    ______ ____
ROOT
ATOM      1  C   UNL A   1     -24.574  -0.633  28.739  0.00  0.00    +0.000 A 
ATOM      2  C   UNL A   1     -24.464  -0.072  27.506  0.00  0.00    +0.000 A 
ATOM      3  C   UNL A   1     -23.357   0.945  27.546  0.00  0.00    +0.000 A 
ATOM      4  C   UNL A   1     -24.386   0.079  29.942  0.00  0.00    +0.000 A 
ATOM      5  C   UNL A   1     -23.067   0.680  30.027  0.00  0.00    +0.000 A 
ATOM      6  C   UNL A   1     -22.729   1.401  28.763  0.00  0.00    +0.000 A 
ENDROOT
BRANCH   1   8
ATOM      7  C   UNL A   1     -23.889  -2.832  28.539  0.00  0.00    +0.003 A 
ATOM      8  C   UNL A   1     -24.806  -2.152  28.939  0.00  0.00    +0.003 A 
ATOM      9  C   UNL A   1     -25.991  -2.640  29.463  0.00  0.00    +0.039 A 
ATOM     10  C   UNL A   1     -26.120  -4.057  29.564  0.00  0.00    +0.166 A 
ATOM     11  C   UNL A   1     -25.024  -4.777  29.250  0.00  0.00    +0.174 A 
ATOM     12  C   UNL A   1     -23.896  -4.197  28.835  0.00  0.00    +0.033 A 
ATOM     13  F   UNL A   1     -25.115  -6.091  29.412  0.00  0.00    -0.201 F 
BRANCH  10  14
ATOM     14  O   UNL A   1     -27.244  -4.569  30.089  0.00  0.00    -0.469 OA
ATOM     15  C   UNL A   1     -27.958  -3.634  30.640  0.00  0.00    +0.253 C 
ENDBRANCH  10  14
ENDBRANCH   1   8
BRANCH   2  16
ATOM     16  C   UNL A   1     -25.331   0.081  26.813  0.00  0.00    +0.000 A 
ATOM     17  C   UNL A   1     -26.708   0.360  27.158  0.00  0.00    +0.000 A 
ATOM     18  C   UNL A   1     -27.750   0.499  26.156  0.00  0.00    +0.007 A 
ATOM     19  C   UNL A   1     -27.447   0.285  24.831  0.00  0.00    +0.080 A 
ATOM     20  C   UNL A   1     -26.179   0.003  24.393  0.00  0.00    +0.007 A 
ATOM     21  C   UNL A   1     -25.138  -0.059  25.289  0.00  0.00    +0.000 A 
BRANCH  19  22
ATOM     22  C   UNL A   1     -28.535   0.525  23.786  0.00  0.00    +0.388 C 
ATOM     23  O   UNL A   1     -29.092   1.511  23.636  0.00  0.00    -0.241 OA
ATOM     24  O   UNL A   1     -29.073  -0.653  23.287  0.00  0.00    -0.241 OA
ENDBRANCH  19  22
ENDBRANCH   2  16
TORSDOF 4
ENDMDL
ENDMDL
