REMARK  Name = No_1935-gen_results/8p0m/2024-11-26-14-13-15/
REMARK  2 active torsions:
REMARK  status: ('A' for Active; 'I' for Inactive)
REMARK    1  A    between atoms: C_5  and  C_16
REMARK    2  A    between atoms: C_8  and  C_10
REMARK                            x       y       z     vdW  Elec       q    Type
REMARK                         _______ _______ _______ _____ _____    ______ ____
ROOT
ATOM      1  N   UNL A   1     -28.054  -1.050  28.725  0.00  0.00    -0.228 NA
ATOM      2  C   UNL A   1     -28.654  -0.567  29.508  0.00  0.00    +0.155 A 
ATOM      3  C   UNL A   1     -28.138   0.160  30.523  0.00  0.00    +0.036 A 
ATOM      4  C   UNL A   1     -26.719   0.420  30.556  0.00  0.00    +0.000 A 
ATOM      5  C   UNL A   1     -25.959  -0.182  29.549  0.00  0.00    -0.004 A 
ATOM      6  C   UNL A   1     -26.654  -0.939  28.636  0.00  0.00    +0.096 A 
ATOM      7  N   UNL A   1     -30.012  -0.801  29.553  0.00  0.00    -0.157 NA
ATOM      8  C   UNL A   1     -30.987  -0.494  29.176  0.00  0.00    +0.270 C 
ATOM      9  O   UNL A   1     -30.974   0.529  28.498  0.00  0.00    -0.268 OA
ENDROOT
BRANCH   8  10
ATOM     10  C   UNL A   1     -32.274  -1.235  29.315  0.00  0.00    +0.055 A 
ATOM     11  C   UNL A   1     -33.163  -1.202  28.806  0.00  0.00    +0.005 A 
ATOM     12  C   UNL A   1     -34.401  -1.997  28.983  0.00  0.00    +0.000 A 
ATOM     13  C   UNL A   1     -34.310  -2.950  30.005  0.00  0.00    +0.000 A 
ATOM     14  C   UNL A   1     -33.147  -3.093  30.699  0.00  0.00    +0.000 A 
ATOM     15  C   UNL A   1     -32.060  -2.290  30.433  0.00  0.00    +0.005 A 
ENDBRANCH   8  10
BRANCH   5  16
ATOM     16  C   UNL A   1     -24.524  -0.020  29.497  0.00  0.00    +0.020 C 
ATOM     17  C   UNL A   1     -23.720  -1.012  30.123  0.00  0.00    +0.004 C 
ATOM     18  C   UNL A   1     -24.037   1.291  30.073  0.00  0.00    +0.004 C 
ATOM     19  C   UNL A   1     -24.051   0.133  27.997  0.00  0.00    +0.004 C 
ATOM     20  C   UNL A   1     -22.909   0.980  27.814  0.00  0.00    +0.000 C 
ATOM     21  C   UNL A   1     -22.678   1.615  29.143  0.00  0.00    +0.000 C 
ENDBRANCH   5  16
TORSDOF 2
