MODEL 1935
MODEL 1
REMARK VINA RESULT:    -7.075      0.000      0.000
REMARK INTER + INTRA:          -8.356
REMARK INTER:                  -7.902
REMARK INTRA:                  -0.454
REMARK UNBOUND:                -0.454
REMARK  Name = No_1935-gen_results/8p0m/2024-11-26-14-13-15/
REMARK  2 active torsions:
REMARK  status: ('A' for Active; 'I' for Inactive)
REMARK    1  A    between atoms: C_5  and  C_16
REMARK    2  A    between atoms: C_8  and  C_10
REMARK                            x       y       z     vdW  Elec       q    Type
REMARK                         _______ _______ _______ _____ _____    ______ ____
ROOT
ATOM      1  N   UNL A   1      -6.880   1.137   8.285  0.00  0.00    -0.228 NA
ATOM      2  C   UNL A   1      -6.476   0.288   8.854  0.00  0.00    +0.155 A 
ATOM      3  C   UNL A   1      -6.921  -0.093  10.072  0.00  0.00    +0.036 A 
ATOM      4  C   UNL A   1      -8.062   0.576  10.648  0.00  0.00    +0.000 A 
ATOM      5  C   UNL A   1      -8.585   1.645   9.915  0.00  0.00    -0.004 A 
ATOM      6  C   UNL A   1      -7.960   1.925   8.723  0.00  0.00    +0.096 A 
ATOM      7  N   UNL A   1      -5.366  -0.374   8.375  0.00  0.00    -0.157 NA
ATOM      8  C   UNL A   1      -5.009  -1.163   7.714  0.00  0.00    +0.270 C 
ATOM      9  O   UNL A   1      -5.894  -1.859   7.225  0.00  0.00    -0.268 OA
ENDROOT
BRANCH   8  10
ATOM     10  C   UNL A   1      -3.601  -1.400   7.282  0.00  0.00    +0.055 A 
ATOM     11  C   UNL A   1      -2.964  -0.898   6.655  0.00  0.00    +0.005 A 
ATOM     12  C   UNL A   1      -1.555  -1.178   6.293  0.00  0.00    +0.000 A 
ATOM     13  C   UNL A   1      -1.028  -2.306   6.934  0.00  0.00    +0.000 A 
ATOM     14  C   UNL A   1      -1.793  -3.003   7.820  0.00  0.00    +0.000 A 
ATOM     15  C   UNL A   1      -3.095  -2.634   8.075  0.00  0.00    +0.005 A 
ENDBRANCH   8  10
BRANCH   5  16
ATOM     16  C   UNL A   1      -9.707   2.411  10.406  0.00  0.00    +0.020 C 
ATOM     17  C   UNL A   1     -10.909   2.392   9.646  0.00  0.00    +0.004 C 
ATOM     18  C   UNL A   1      -9.403   3.879  10.608  0.00  0.00    +0.004 C 
ATOM     19  C   UNL A   1     -10.047   1.983  11.889  0.00  0.00    +0.004 C 
ATOM     20  C   UNL A   1     -10.556   3.038  12.714  0.00  0.00    +0.000 C 
ATOM     21  C   UNL A   1     -10.388   4.280  11.907  0.00  0.00    +0.000 C 
ENDBRANCH   5  16
TORSDOF 2
ENDMDL
ENDMDL
