MODEL 1936
MODEL 1
REMARK VINA RESULT:    -6.849      0.000      0.000
REMARK INTER + INTRA:          -7.466
REMARK INTER:                  -7.249
REMARK INTRA:                  -0.217
REMARK UNBOUND:                -0.217
REMARK  Name = No_1936-gen_results/8p0m/2024-11-26-14-13-15/
REMARK  1 active torsions:
REMARK  status: ('A' for Active; 'I' for Inactive)
REMARK    1  A    between atoms: C_2  and  C_7
REMARK                            x       y       z     vdW  Elec       q    Type
REMARK                         _______ _______ _______ _____ _____    ______ ____
ROOT
ATOM      1  C   UNL A   1     -23.531  -1.456  28.882  0.00  0.00    -0.004 A 
ATOM      2  C   UNL A   1     -22.645  -1.201  29.322  0.00  0.00    -0.000 A 
ATOM      3  C   UNL A   1     -21.787  -0.030  29.114  0.00  0.00    -0.000 A 
ATOM      4  C   UNL A   1     -22.209   0.922  28.165  0.00  0.00    -0.000 A 
ATOM      5  C   UNL A   1     -23.430   0.723  27.530  0.00  0.00    -0.004 A 
ATOM      6  C   UNL A   1     -24.136  -0.388  27.800  0.00  0.00    -0.022 A 
ATOM      7  C   UNL A   1     -25.386  -0.540  27.150  0.00  0.00    +0.031 C 
ENDROOT
BRANCH   1   9
ATOM      8  C   UNL A   1     -25.573  -2.440  29.667  0.00  0.00    -0.000 A 
ATOM      9  C   UNL A   1     -24.489  -2.564  29.144  0.00  0.00    -0.000 A 
ATOM     10  C   UNL A   1     -24.039  -3.806  28.710  0.00  0.00    -0.000 A 
ATOM     11  C   UNL A   1     -24.831  -4.992  28.911  0.00  0.00    -0.000 A 
ATOM     12  C   UNL A   1     -26.058  -4.762  29.545  0.00  0.00    -0.000 A 
ATOM     13  C   UNL A   1     -26.430  -3.570  29.951  0.00  0.00    -0.000 A 
ENDBRANCH   1   9
TORSDOF 1
ENDMDL
ENDMDL
