MODEL 1937
MODEL 1
REMARK VINA RESULT:    -8.213      0.000      0.000
REMARK INTER + INTRA:         -11.694
REMARK INTER:                 -10.614
REMARK INTRA:                  -1.080
REMARK UNBOUND:                -1.080
REMARK  Name = No_1937-gen_results/8p0m/2024-11-26-14-13-15/
REMARK  5 active torsions:
REMARK  status: ('A' for Active; 'I' for Inactive)
REMARK    1  A    between atoms: C_2  and  C_7
REMARK    2  A    between atoms: C_4  and  C_10
REMARK    3  A    between atoms: C_10  and  C_16
REMARK    4  A    between atoms: C_18  and  C_21
REMARK    5  A    between atoms: N_24  and  C_25
REMARK                            x       y       z     vdW  Elec       q    Type
REMARK                         _______ _______ _______ _____ _____    ______ ____
ROOT
ATOM      1  C   UNL A   1     -24.180  -0.532  30.273  0.00  0.00    +0.038 C 
ATOM      2  C   UNL A   1     -25.049  -0.041  31.206  0.00  0.00    +0.008 C 
ATOM      3  C   UNL A   1     -25.078  -0.556  32.544  0.00  0.00    +0.001 C 
ATOM      4  C   UNL A   1     -22.835  -0.819  30.888  0.00  0.00    +0.008 C 
ATOM      5  C   UNL A   1     -22.822  -1.339  32.235  0.00  0.00    +0.001 C 
ATOM      6  C   UNL A   1     -23.916  -1.169  33.056  0.00  0.00    +0.000 C 
ENDROOT
BRANCH   1  10
ATOM      7  C   UNL A   1     -24.298   0.873  26.740  0.00  0.00    +0.006 A 
ATOM      8  C   UNL A   1     -23.448   1.486  26.629  0.00  0.00    +0.080 A 
ATOM      9  C   UNL A   1     -24.180  -0.102  27.824  0.00  0.00    -0.004 A 
ATOM     10  C   UNL A   1     -24.164   0.261  29.000  0.00  0.00    -0.019 A 
ATOM     11  C   UNL A   1     -22.886   2.211  27.909  0.00  0.00    +0.006 A 
ATOM     12  C   UNL A   1     -23.076   1.430  29.096  0.00  0.00    -0.004 A 
BRANCH   8  13
ATOM     13  C   UNL A   1     -23.186   2.449  25.473  0.00  0.00    +0.388 C 
ATOM     14  O   UNL A   1     -22.414   2.342  24.663  0.00  0.00    -0.241 OA
ATOM     15  O   UNL A   1     -23.930   3.557  25.534  0.00  0.00    -0.241 OA
ENDBRANCH   8  13
ENDBRANCH   1  10
BRANCH   1  16
ATOM     16  C   UNL A   1     -24.739  -1.879  29.973  0.00  0.00    -0.019 A 
ATOM     17  C   UNL A   1     -26.065  -2.209  30.243  0.00  0.00    +0.001 A 
ATOM     18  C   UNL A   1     -26.562  -3.526  30.018  0.00  0.00    +0.055 A 
ATOM     19  C   UNL A   1     -24.005  -2.925  29.436  0.00  0.00    -0.004 A 
ATOM     20  C   UNL A   1     -24.510  -4.237  29.215  0.00  0.00    -0.000 A 
ATOM     21  C   UNL A   1     -25.789  -4.487  29.454  0.00  0.00    +0.005 A 
BRANCH  18  22
ATOM     22  C   UNL A   1     -27.974  -3.858  30.371  0.00  0.00    +0.269 C 
ATOM     23  O   UNL A   1     -28.824  -3.062  30.309  0.00  0.00    -0.268 OA
ATOM     24  N   UNL A   1     -28.245  -5.121  30.726  0.00  0.00    -0.175 NA
BRANCH  24  25
ATOM     25  C   UNL A   1     -29.610  -5.490  31.110  0.00  0.00    +0.074 A 
ATOM     26  C   UNL A   1     -29.957  -5.644  32.075  0.00  0.00    +0.017 A 
ATOM     27  C   UNL A   1     -31.320  -6.133  32.460  0.00  0.00    +0.001 A 
ATOM     28  C   UNL A   1     -32.211  -6.263  31.372  0.00  0.00    +0.000 A 
ATOM     29  C   UNL A   1     -31.687  -6.048  30.111  0.00  0.00    +0.001 A 
ATOM     30  C   UNL A   1     -30.378  -5.718  29.905  0.00  0.00    +0.017 A 
ENDBRANCH  24  25
ENDBRANCH  18  22
ENDBRANCH   1  16
TORSDOF 5
ENDMDL
ENDMDL
