REMARK  Name = No_1937-gen_results/8p0m/2024-11-26-14-13-15/
REMARK  5 active torsions:
REMARK  status: ('A' for Active; 'I' for Inactive)
REMARK    1  A    between atoms: C_2  and  C_7
REMARK    2  A    between atoms: C_4  and  C_10
REMARK    3  A    between atoms: C_10  and  C_16
REMARK    4  A    between atoms: C_18  and  C_21
REMARK    5  A    between atoms: N_24  and  C_25
REMARK                            x       y       z     vdW  Elec       q    Type
REMARK                         _______ _______ _______ _____ _____    ______ ____
ROOT
ATOM      1  C   UNL A   1     -24.865   1.305  29.102  0.00  0.00    +0.038 C 
ATOM      2  C   UNL A   1     -24.032   0.977  28.070  0.00  0.00    +0.008 C 
ATOM      3  C   UNL A   1     -22.781   1.651  27.877  0.00  0.00    +0.001 C 
ATOM      4  C   UNL A   1     -24.082   1.593  30.356  0.00  0.00    +0.008 C 
ATOM      5  C   UNL A   1     -22.816   2.271  30.204  0.00  0.00    +0.001 C 
ATOM      6  C   UNL A   1     -22.164   2.259  28.990  0.00  0.00    +0.000 C 
ENDROOT
BRANCH   1  10
ATOM      7  C   UNL A   1     -28.016  -0.814  28.878  0.00  0.00    +0.006 A 
ATOM      8  C   UNL A   1     -28.469  -0.785  29.829  0.00  0.00    +0.080 A 
ATOM      9  C   UNL A   1     -27.087   0.290  28.638  0.00  0.00    -0.004 A 
ATOM     10  C   UNL A   1     -26.024   0.364  29.253  0.00  0.00    -0.019 A 
ATOM     11  C   UNL A   1     -27.537  -0.619  31.088  0.00  0.00    +0.006 A 
ATOM     12  C   UNL A   1     -26.384   0.183  30.801  0.00  0.00    -0.004 A 
BRANCH   8  13
ATOM     13  C   UNL A   1     -29.623  -1.670  30.297  0.00  0.00    +0.388 C 
ATOM     14  O   UNL A   1     -29.572  -2.756  30.583  0.00  0.00    -0.241 OA
ATOM     15  O   UNL A   1     -30.806  -1.051  30.263  0.00  0.00    -0.241 OA
ENDBRANCH   8  13
ENDBRANCH   1  10
BRANCH   1  16
ATOM     16  C   UNL A   1     -25.398   2.634  28.691  0.00  0.00    -0.019 A 
ATOM     17  C   UNL A   1     -25.961   3.522  29.604  0.00  0.00    +0.001 A 
ATOM     18  C   UNL A   1     -26.533   4.757  29.181  0.00  0.00    +0.055 A 
ATOM     19  C   UNL A   1     -25.415   3.096  27.384  0.00  0.00    -0.004 A 
ATOM     20  C   UNL A   1     -25.989   4.331  26.971  0.00  0.00    -0.000 A 
ATOM     21  C   UNL A   1     -26.478   5.155  27.886  0.00  0.00    +0.005 A 
BRANCH  18  22
ATOM     22  C   UNL A   1     -27.177   5.659  30.181  0.00  0.00    +0.269 C 
ATOM     23  O   UNL A   1     -27.312   5.341  31.295  0.00  0.00    -0.268 OA
ATOM     24  N   UNL A   1     -27.563   6.873  29.765  0.00  0.00    -0.175 NA
BRANCH  24  25
ATOM     25  C   UNL A   1     -28.227   7.784  30.701  0.00  0.00    +0.074 A 
ATOM     26  C   UNL A   1     -28.192   8.820  30.680  0.00  0.00    +0.017 A 
ATOM     27  C   UNL A   1     -28.774   9.747  31.703  0.00  0.00    +0.001 A 
ATOM     28  C   UNL A   1     -29.535   9.097  32.700  0.00  0.00    +0.000 A 
ATOM     29  C   UNL A   1     -29.539   7.715  32.675  0.00  0.00    +0.001 A 
ATOM     30  C   UNL A   1     -28.856   6.994  31.738  0.00  0.00    +0.017 A 
ENDBRANCH  24  25
ENDBRANCH  18  22
ENDBRANCH   1  16
TORSDOF 5
