REMARK  Name = No_1938-gen_results/8p0m/2024-11-26-14-13-15/
REMARK  8 active torsions:
REMARK  status: ('A' for Active; 'I' for Inactive)
REMARK    1  A    between atoms: C_2  and  C_15
REMARK    2  A    between atoms: C_4  and  C_5
REMARK    3  A    between atoms: C_5  and  N_8
REMARK    4  A    between atoms: C_6  and  C_11
REMARK    5  A    between atoms: C_11  and  N_12
REMARK    6  A    between atoms: N_12  and  C_13
REMARK    7  A    between atoms: C_18  and  C_19
REMARK    8  A    between atoms: C_20  and  C_21
REMARK                            x       y       z     vdW  Elec       q    Type
REMARK                         _______ _______ _______ _____ _____    ______ ____
ROOT
ATOM      1  C   UNL A   1     -28.016  -0.814  28.878  0.00  0.00    +0.004 A 
ATOM      2  C   UNL A   1     -27.064  -0.119  28.608  0.00  0.00    +0.079 A 
ATOM      3  C   UNL A   1     -25.765  -0.390  29.036  0.00  0.00    +0.004 A 
ATOM      4  C   UNL A   1     -25.530  -1.530  29.901  0.00  0.00    -0.006 A 
ATOM      5  C   UNL A   1     -27.927  -1.923  29.790  0.00  0.00    -0.003 A 
ATOM      6  C   UNL A   1     -26.691  -2.281  30.295  0.00  0.00    -0.005 A 
ENDROOT
BRANCH   2   7
ATOM      7  C   UNL A   1     -27.115   0.990  27.597  0.00  0.00    +0.388 C 
ATOM      8  O   UNL A   1     -27.897   1.816  27.711  0.00  0.00    -0.241 OA
ATOM      9  O   UNL A   1     -26.273   0.952  26.654  0.00  0.00    -0.241 OA
ENDBRANCH   2   7
BRANCH   4  10
ATOM     10  C   UNL A   1     -24.324  -1.908  30.432  0.00  0.00    +0.099 C 
BRANCH  10  11
ATOM     11  N   UNL A   1     -23.677  -1.109  31.249  0.00  0.00    -0.267 NA
ATOM     12  C   UNL A   1     -22.639  -0.227  30.904  0.00  0.00    +0.090 C 
ATOM     13  C   UNL A   1     -24.330  -0.782  32.559  0.00  0.00    +0.090 C 
ENDBRANCH  10  11
ENDBRANCH   4  10
BRANCH   5  14
ATOM     14  C   UNL A   1     -29.127  -2.686  30.251  0.00  0.00    +0.118 C 
BRANCH  14  15
ATOM     15  N   UNL A   1     -29.527  -2.510  31.504  0.00  0.00    -0.301 N 
ATOM     16  C   UNL A   1     -30.090  -3.633  32.267  0.00  0.00    +0.113 C 
BRANCH  15  17
ATOM     17  C   UNL A   1     -29.359  -1.385  32.072  0.00  0.00    +0.062 C 
ATOM     18  C   UNL A   1     -29.783  -1.174  33.495  0.00  0.00    +0.016 C 
BRANCH  18  19
ATOM     19  C   UNL A   1     -29.520  -0.018  34.140  0.00  0.00    +0.001 C 
ATOM     20  C   UNL A   1     -29.741   0.247  35.341  0.00  0.00    +0.000 C 
BRANCH  20  21
ATOM     21  C   UNL A   1     -30.404  -0.799  36.102  0.00  0.00    +0.000 C 
ATOM     22  C   UNL A   1     -30.643  -2.011  35.541  0.00  0.00    +0.000 C 
ENDBRANCH  20  21
ENDBRANCH  18  19
ENDBRANCH  15  17
ENDBRANCH  14  15
ENDBRANCH   5  14
TORSDOF 8
