MODEL 1938
MODEL 1
REMARK VINA RESULT:    -5.931      0.000      0.000
REMARK INTER + INTRA:          -9.555
REMARK INTER:                  -8.704
REMARK INTRA:                  -0.851
REMARK UNBOUND:                -0.851
REMARK  Name = No_1938-gen_results/8p0m/2024-11-26-14-13-15/
REMARK  8 active torsions:
REMARK  status: ('A' for Active; 'I' for Inactive)
REMARK    1  A    between atoms: C_2  and  C_15
REMARK    2  A    between atoms: C_4  and  C_5
REMARK    3  A    between atoms: C_5  and  N_8
REMARK    4  A    between atoms: C_6  and  C_11
REMARK    5  A    between atoms: C_11  and  N_12
REMARK    6  A    between atoms: N_12  and  C_13
REMARK    7  A    between atoms: C_18  and  C_19
REMARK    8  A    between atoms: C_20  and  C_21
REMARK                            x       y       z     vdW  Elec       q    Type
REMARK                         _______ _______ _______ _____ _____    ______ ____
ROOT
ATOM      1  C   UNL A   1     -11.934   1.627  35.035  0.00  0.00    +0.004 A 
ATOM      2  C   UNL A   1     -12.997   1.909  34.532  0.00  0.00    +0.079 A 
ATOM      3  C   UNL A   1     -14.055   2.484  35.236  0.00  0.00    +0.004 A 
ATOM      4  C   UNL A   1     -13.914   2.711  36.661  0.00  0.00    -0.006 A 
ATOM      5  C   UNL A   1     -11.700   1.729  36.450  0.00  0.00    -0.003 A 
ATOM      6  C   UNL A   1     -12.682   2.272  37.258  0.00  0.00    -0.005 A 
ENDROOT
BRANCH   2   7
ATOM      7  C   UNL A   1     -13.238   1.889  33.050  0.00  0.00    +0.388 C 
ATOM      8  O   UNL A   1     -14.067   2.541  32.609  0.00  0.00    -0.241 OA
ATOM      9  O   UNL A   1     -12.496   1.138  32.354  0.00  0.00    -0.241 OA
ENDBRANCH   2   7
BRANCH   4  10
ATOM     10  C   UNL A   1     -14.868   3.233  37.496  0.00  0.00    +0.099 C 
BRANCH  10  11
ATOM     11  N   UNL A   1     -15.172   4.509  37.443  0.00  0.00    -0.267 NA
ATOM     12  C   UNL A   1     -16.462   5.055  37.330  0.00  0.00    +0.090 C 
ATOM     13  C   UNL A   1     -14.151   5.486  37.947  0.00  0.00    +0.090 C 
ENDBRANCH  10  11
ENDBRANCH   4  10
BRANCH   5  14
ATOM     14  C   UNL A   1     -10.447   1.233  37.098  0.00  0.00    +0.118 C 
BRANCH  14  15
ATOM     15  N   UNL A   1     -10.010   0.028  36.755  0.00  0.00    -0.301 N 
ATOM     16  C   UNL A   1      -8.812  -0.115  35.914  0.00  0.00    +0.113 C 
BRANCH  15  17
ATOM     17  C   UNL A   1     -10.585  -1.010  37.211  0.00  0.00    +0.062 C 
ATOM     18  C   UNL A   1     -11.196  -1.007  38.581  0.00  0.00    +0.016 C 
BRANCH  18  19
ATOM     19  C   UNL A   1     -11.896  -2.067  39.038  0.00  0.00    +0.001 C 
ATOM     20  C   UNL A   1     -11.885  -2.542  40.194  0.00  0.00    +0.000 C 
BRANCH  20  21
ATOM     21  C   UNL A   1     -10.971  -1.901  41.126  0.00  0.00    +0.000 C 
ATOM     22  C   UNL A   1     -10.130  -2.646  41.885  0.00  0.00    +0.000 C 
ENDBRANCH  20  21
ENDBRANCH  18  19
ENDBRANCH  15  17
ENDBRANCH  14  15
ENDBRANCH   5  14
TORSDOF 8
ENDMDL
ENDMDL
