MODEL 1939
MODEL 1
REMARK VINA RESULT:    -6.784      0.000      0.000
REMARK INTER + INTRA:         -10.156
REMARK INTER:                  -9.163
REMARK INTRA:                  -0.993
REMARK UNBOUND:                -0.993
REMARK  Name = No_1939-gen_results/8p0m/2024-11-26-14-13-15/
REMARK  6 active torsions:
REMARK  status: ('A' for Active; 'I' for Inactive)
REMARK    1  A    between atoms: C_2  and  O_7
REMARK    2  A    between atoms: C_4  and  C_14
REMARK    3  A    between atoms: O_7  and  C_8
REMARK    4  A    between atoms: C_14  and  C_15
REMARK    5  A    between atoms: C_17  and  C_18
REMARK    6  A    between atoms: C_18  and  C_19
REMARK                            x       y       z     vdW  Elec       q    Type
REMARK                         _______ _______ _______ _____ _____    ______ ____
ROOT
ATOM      1  C   UNL A   1     -27.107  -0.022  28.083  0.00  0.00    +0.037 A 
ATOM      2  C   UNL A   1     -26.112  -0.366  28.059  0.00  0.00    +0.145 A 
ATOM      3  C   UNL A   1     -27.603   0.646  26.870  0.00  0.00    -0.001 A 
ATOM      4  C   UNL A   1     -26.808   0.685  25.687  0.00  0.00    -0.018 A 
ATOM      5  C   UNL A   1     -25.113  -0.499  26.963  0.00  0.00    +0.037 A 
ATOM      6  C   UNL A   1     -25.534   0.118  25.823  0.00  0.00    -0.001 A 
ENDROOT
BRANCH   2   7
ATOM      7  O   UNL A   1     -25.602  -1.034  29.253  0.00  0.00    -0.454 OA
BRANCH   7   8
ATOM      8  C   UNL A   1     -25.573  -2.323  29.223  0.00  0.00    +0.145 A 
ATOM      9  C   UNL A   1     -26.436  -3.140  29.673  0.00  0.00    +0.037 A 
ATOM     10  C   UNL A   1     -26.372  -4.549  29.748  0.00  0.00    +0.003 A 
ATOM     11  C   UNL A   1     -25.198  -5.103  29.193  0.00  0.00    +0.000 A 
ATOM     12  C   UNL A   1     -24.308  -2.926  28.854  0.00  0.00    +0.037 A 
ATOM     13  C   UNL A   1     -24.181  -4.283  28.748  0.00  0.00    +0.003 A 
ENDBRANCH   7   8
ENDBRANCH   2   7
BRANCH   4  14
ATOM     14  C   UNL A   1     -27.266   1.299  24.480  0.00  0.00    +0.053 C 
BRANCH  14  15
ATOM     15  C   UNL A   1     -28.371   0.673  23.888  0.00  0.00    -0.018 A 
ATOM     16  C   UNL A   1     -29.446   1.271  23.461  0.00  0.00    -0.008 A 
ATOM     17  C   UNL A   1     -30.624   1.051  23.578  0.00  0.00    -0.021 A 
ATOM     18  C   UNL A   1     -28.285  -0.789  23.733  0.00  0.00    -0.004 A 
ATOM     19  C   UNL A   1     -29.485  -1.520  23.733  0.00  0.00    -0.001 A 
ATOM     20  C   UNL A   1     -30.799  -0.635  23.672  0.00  0.00    -0.004 A 
BRANCH  17  21
ATOM     21  C   UNL A   1     -31.696   2.055  23.637  0.00  0.00    +0.047 C 
BRANCH  21  22
ATOM     22  C   UNL A   1     -31.831   3.170  22.829  0.00  0.00    +0.114 C 
ATOM     23  N   UNL A   1     -32.062   2.986  21.505  0.00  0.00    -0.131 NA
ENDBRANCH  21  22
ENDBRANCH  17  21
ENDBRANCH  14  15
ENDBRANCH   4  14
TORSDOF 6
ENDMDL
ENDMDL
