REMARK  Name = No_1939-gen_results/8p0m/2024-11-26-14-13-15/
REMARK  6 active torsions:
REMARK  status: ('A' for Active; 'I' for Inactive)
REMARK    1  A    between atoms: C_2  and  O_7
REMARK    2  A    between atoms: C_4  and  C_14
REMARK    3  A    between atoms: O_7  and  C_8
REMARK    4  A    between atoms: C_14  and  C_15
REMARK    5  A    between atoms: C_17  and  C_18
REMARK    6  A    between atoms: C_18  and  C_19
REMARK                            x       y       z     vdW  Elec       q    Type
REMARK                         _______ _______ _______ _____ _____    ______ ____
ROOT
ATOM      1  C   UNL A   1     -28.016  -0.814  28.878  0.00  0.00    +0.037 A 
ATOM      2  C   UNL A   1     -28.469  -0.785  29.829  0.00  0.00    +0.145 A 
ATOM      3  C   UNL A   1     -26.546  -0.876  28.850  0.00  0.00    -0.001 A 
ATOM      4  C   UNL A   1     -25.804  -1.032  30.057  0.00  0.00    -0.018 A 
ATOM      5  C   UNL A   1     -27.944  -0.987  31.207  0.00  0.00    +0.037 A 
ATOM      6  C   UNL A   1     -26.582  -1.039  31.223  0.00  0.00    -0.001 A 
ENDROOT
BRANCH   2   7
ATOM      7  O   UNL A   1     -29.927  -0.726  29.877  0.00  0.00    -0.454 OA
BRANCH   7   8
ATOM      8  C   UNL A   1     -30.505  -0.024  28.962  0.00  0.00    +0.145 A 
ATOM      9  C   UNL A   1     -31.377  -0.399  28.117  0.00  0.00    +0.037 A 
ATOM     10  C   UNL A   1     -31.939   0.323  27.041  0.00  0.00    +0.003 A 
ATOM     11  C   UNL A   1     -31.491   1.658  26.946  0.00  0.00    +0.000 A 
ATOM     12  C   UNL A   1     -29.932   1.280  28.698  0.00  0.00    +0.037 A 
ATOM     13  C   UNL A   1     -30.495   2.122  27.780  0.00  0.00    +0.003 A 
ENDBRANCH   7   8
ENDBRANCH   2   7
BRANCH   4  14
ATOM     14  C   UNL A   1     -24.377  -1.125  30.069  0.00  0.00    +0.053 C 
BRANCH  14  15
ATOM     15  C   UNL A   1     -23.710   0.092  29.878  0.00  0.00    -0.018 A 
ATOM     16  C   UNL A   1     -23.871   1.169  30.592  0.00  0.00    -0.008 A 
ATOM     17  C   UNL A   1     -24.019   2.333  30.323  0.00  0.00    -0.021 A 
ATOM     18  C   UNL A   1     -22.736   0.134  28.773  0.00  0.00    -0.004 A 
ATOM     19  C   UNL A   1     -22.501   1.373  28.154  0.00  0.00    -0.001 A 
ATOM     20  C   UNL A   1     -23.157   2.616  28.888  0.00  0.00    -0.004 A 
BRANCH  17  21
ATOM     21  C   UNL A   1     -24.803   3.311  31.090  0.00  0.00    +0.047 C 
BRANCH  21  22
ATOM     22  C   UNL A   1     -25.074   4.620  30.732  0.00  0.00    +0.114 C 
ATOM     23  N   UNL A   1     -25.438   5.494  31.704  0.00  0.00    -0.131 NA
ENDBRANCH  21  22
ENDBRANCH  17  21
ENDBRANCH  14  15
ENDBRANCH   4  14
TORSDOF 6
