MODEL 193
MODEL 1
REMARK VINA RESULT:    -7.505      0.000      0.000
REMARK INTER + INTRA:         -13.168
REMARK INTER:                 -10.577
REMARK INTRA:                  -2.591
REMARK UNBOUND:                -2.591
REMARK  Name = No_193-gen_results/8p0m/2024-11-26-14-13-15/
REMARK  7 active torsions:
REMARK  status: ('A' for Active; 'I' for Inactive)
REMARK    1  A    between atoms: C_3  and  C_7
REMARK    2  A    between atoms: C_4  and  C_21
REMARK    3  A    between atoms: C_7  and  C_8
REMARK    4  A    between atoms: C_7  and  C_14
REMARK    5  A    between atoms: N_23  and  C_25
REMARK    6  A    between atoms: C_25  and  C_26
REMARK    7  A    between atoms: C_26  and  C_27
REMARK                            x       y       z     vdW  Elec       q    Type
REMARK                         _______ _______ _______ _____ _____    ______ ____
ROOT
ATOM      1  C   UNL A   1     -26.072  -2.581  30.201  0.00  0.00    -0.003 A 
ATOM      2  C   UNL A   1     -25.880  -3.490  29.705  0.00  0.00    -0.000 A 
ATOM      3  C   UNL A   1     -25.120  -1.529  29.985  0.00  0.00    -0.008 A 
ATOM      4  C   UNL A   1     -23.966  -1.711  29.336  0.00  0.00    +0.050 A 
ATOM      5  C   UNL A   1     -24.696  -3.915  28.972  0.00  0.00    +0.000 A 
ATOM      6  C   UNL A   1     -23.796  -2.960  28.782  0.00  0.00    +0.004 A 
ENDROOT
BRANCH   4   7
ATOM      7  C   UNL A   1     -22.923  -0.694  29.140  0.00  0.00    +0.249 C 
ATOM      8  O   UNL A   1     -21.940  -0.582  29.897  0.00  0.00    -0.270 OA
ATOM      9  N   UNL A   1     -23.096   0.187  28.068  0.00  0.00    -0.274 N 
ATOM     10  C   UNL A   1     -22.194   1.272  27.803  0.00  0.00    +0.115 C 
BRANCH   9  11
ATOM     11  C   UNL A   1     -24.178   0.063  27.107  0.00  0.00    +0.098 C 
BRANCH  11  12
ATOM     12  C   UNL A   1     -24.383   1.176  26.242  0.00  0.00    +0.048 C 
BRANCH  12  13
ATOM     13  C   UNL A   1     -25.601   1.185  25.687  0.00  0.00    -0.021 A 
ATOM     14  C   UNL A   1     -26.350   2.461  25.489  0.00  0.00    -0.004 A 
ATOM     15  C   UNL A   1     -27.618   2.521  24.833  0.00  0.00    -0.000 A 
ATOM     16  C   UNL A   1     -28.099   1.301  24.302  0.00  0.00    -0.000 A 
ATOM     17  C   UNL A   1     -27.456   0.110  24.499  0.00  0.00    -0.000 A 
ATOM     18  C   UNL A   1     -26.247   0.081  25.120  0.00  0.00    -0.004 A 
ENDBRANCH  12  13
ENDBRANCH  11  12
ENDBRANCH   9  11
ENDBRANCH   4   7
BRANCH   3  19
ATOM     19  C   UNL A   1     -25.428  -0.160  30.607  0.00  0.00    +0.085 C 
BRANCH  19  20
ATOM     20  C   UNL A   1     -25.162   0.020  32.023  0.00  0.00    -0.013 A 
ATOM     21  C   UNL A   1     -26.156   0.224  32.899  0.00  0.00    -0.003 A 
ATOM     22  C   UNL A   1     -25.886   0.300  34.264  0.00  0.00    +0.011 A 
ATOM     23  C   UNL A   1     -25.137  -0.742  34.770  0.00  0.00    +0.058 A 
ATOM     24  C   UNL A   1     -23.986  -1.105  33.904  0.00  0.00    +0.011 A 
ATOM     25  C   UNL A   1     -24.056  -0.862  32.565  0.00  0.00    -0.003 A 
ATOM     26 CL   UNL A   1     -24.880  -0.956  36.430  0.00  0.00    -0.082 Cl
ENDBRANCH  19  20
BRANCH  19  27
ATOM     27  C   UNL A   1     -25.754   0.903  29.815  0.00  0.00    +0.067 A 
ATOM     28  N   UNL A   1     -25.487   2.080  29.943  0.00  0.00    -0.247 NA
ATOM     29  C   UNL A   1     -25.995   3.123  29.286  0.00  0.00    +0.099 A 
ATOM     30  C   UNL A   1     -27.343   3.007  29.100  0.00  0.00    +0.021 A 
ATOM     31  C   UNL A   1     -27.814   1.734  28.714  0.00  0.00    +0.003 A 
ATOM     32  C   UNL A   1     -27.165   0.637  29.347  0.00  0.00    +0.015 A 
ENDBRANCH  19  27
ENDBRANCH   3  19
TORSDOF 7
ENDMDL
ENDMDL
