REMARK  Name = No_194-gen_results/8p0m/2024-11-26-14-13-15/
REMARK  3 active torsions:
REMARK  status: ('A' for Active; 'I' for Inactive)
REMARK    1  A    between atoms: C_1  and  C_2
REMARK    2  A    between atoms: C_5  and  C_12
REMARK    3  A    between atoms: N_8  and  C_10
REMARK                            x       y       z     vdW  Elec       q    Type
REMARK                         _______ _______ _______ _____ _____    ______ ____
ROOT
ATOM      1  C   UNL A   1     -28.016  -0.814  28.878  0.00  0.00    +0.253 C 
ATOM      2  N   UNL A   1     -27.982  -1.637  30.075  0.00  0.00    -0.253 N 
ATOM      3  O   UNL A   1     -29.195  -0.604  28.462  0.00  0.00    -0.270 OA
ATOM      4  C   UNL A   1     -26.689  -1.886  30.761  0.00  0.00    +0.120 C 
ENDROOT
BRANCH   1   5
ATOM      5  C   UNL A   1     -27.064  -0.119  28.608  0.00  0.00    +0.054 A 
ATOM      6  C   UNL A   1     -26.929   1.171  29.008  0.00  0.00    +0.005 A 
ATOM      7  C   UNL A   1     -25.770   2.034  28.688  0.00  0.00    +0.005 A 
ATOM      8  C   UNL A   1     -24.714   1.443  27.919  0.00  0.00    +0.059 A 
ATOM      9  C   UNL A   1     -24.859   0.078  27.584  0.00  0.00    +0.005 A 
ATOM     10  C   UNL A   1     -25.965  -0.661  27.916  0.00  0.00    +0.005 A 
BRANCH   8  11
ATOM     11  C   UNL A   1     -23.514   2.154  27.545  0.00  0.00    +0.297 C 
ATOM     12  N   UNL A   1     -22.432   1.703  27.148  0.00  0.00    -0.102 NA
ATOM     13  O   UNL A   1     -23.512   3.436  27.857  0.00  0.00    -0.264 OA
ENDBRANCH   8  11
ENDBRANCH   1   5
BRANCH   2  14
ATOM     14  C   UNL A   1     -29.049  -2.504  30.523  0.00  0.00    +0.054 A 
ATOM     15  C   UNL A   1     -28.868  -3.832  30.275  0.00  0.00    +0.015 A 
ATOM     16  C   UNL A   1     -30.061  -4.637  30.053  0.00  0.00    +0.001 A 
ATOM     17  C   UNL A   1     -31.205  -4.005  29.851  0.00  0.00    +0.000 A 
ATOM     18  C   UNL A   1     -31.347  -2.646  30.082  0.00  0.00    +0.001 A 
ATOM     19  C   UNL A   1     -30.110  -1.835  29.828  0.00  0.00    +0.015 A 
ENDBRANCH   2  14
TORSDOF 3
