MODEL 1940
MODEL 1
REMARK VINA RESULT:    -6.630      0.000      0.000
REMARK INTER + INTRA:          -7.997
REMARK INTER:                  -7.405
REMARK INTRA:                  -0.592
REMARK UNBOUND:                -0.592
REMARK  Name = No_1940-gen_results/8p0m/2024-11-26-14-13-15/
REMARK  2 active torsions:
REMARK  status: ('A' for Active; 'I' for Inactive)
REMARK    1  A    between atoms: C_1  and  C_2
REMARK    2  A    between atoms: C_5  and  C_13
REMARK                            x       y       z     vdW  Elec       q    Type
REMARK                         _______ _______ _______ _____ _____    ______ ____
ROOT
ATOM      1  C   UNL A   1     -24.219  -1.687  29.171  0.00  0.00    -0.000 A 
ATOM      2  C   UNL A   1     -22.943  -1.427  29.553  0.00  0.00    -0.000 A 
ATOM      3  C   UNL A   1     -22.125  -0.304  29.044  0.00  0.00    -0.003 A 
ATOM      4  C   UNL A   1     -22.730   0.546  28.061  0.00  0.00    -0.007 A 
ATOM      5  C   UNL A   1     -24.032   0.200  27.636  0.00  0.00    -0.003 A 
ATOM      6  C   UNL A   1     -24.732  -0.859  28.155  0.00  0.00    -0.000 A 
ENDROOT
BRANCH   1   7
ATOM      7  C   UNL A   1     -24.877  -2.609  29.594  0.00  0.00    -0.000 A 
ATOM      8  C   UNL A   1     -26.407  -2.431  29.730  0.00  0.00    -0.000 A 
ATOM      9  C   UNL A   1     -27.235  -3.419  30.316  0.00  0.00    +0.000 A 
ATOM     10  C   UNL A   1     -27.034  -4.675  29.877  0.00  0.00    +0.000 A 
ATOM     11  C   UNL A   1     -25.689  -5.022  29.497  0.00  0.00    +0.000 A 
ATOM     12  C   UNL A   1     -24.895  -3.942  28.911  0.00  0.00    -0.000 A 
ENDBRANCH   1   7
BRANCH   4  13
ATOM     13  C   UNL A   1     -22.052   1.648  27.438  0.00  0.00    +0.102 C 
ATOM     14 CL   UNL A   1     -21.044   1.998  27.246  0.00  0.00    -0.110 Cl
ATOM     15  C   UNL A   1     -23.209   2.264  26.517  0.00  0.00    +0.022 C 
ENDBRANCH   4  13
TORSDOF 2
ENDMDL
ENDMDL
