REMARK  Name = No_1940-gen_results/8p0m/2024-11-26-14-13-15/
REMARK  2 active torsions:
REMARK  status: ('A' for Active; 'I' for Inactive)
REMARK    1  A    between atoms: C_1  and  C_2
REMARK    2  A    between atoms: C_5  and  C_13
REMARK                            x       y       z     vdW  Elec       q    Type
REMARK                         _______ _______ _______ _____ _____    ______ ____
ROOT
ATOM      1  C   UNL A   1     -27.064  -0.119  28.608  0.00  0.00    -0.000 A 
ATOM      2  C   UNL A   1     -26.929   1.171  29.008  0.00  0.00    -0.000 A 
ATOM      3  C   UNL A   1     -25.770   2.034  28.688  0.00  0.00    -0.003 A 
ATOM      4  C   UNL A   1     -24.714   1.443  27.919  0.00  0.00    -0.007 A 
ATOM      5  C   UNL A   1     -24.859   0.078  27.584  0.00  0.00    -0.003 A 
ATOM      6  C   UNL A   1     -25.965  -0.661  27.916  0.00  0.00    -0.000 A 
ENDROOT
BRANCH   1   7
ATOM      7  C   UNL A   1     -28.016  -0.814  28.878  0.00  0.00    -0.000 A 
ATOM      8  C   UNL A   1     -28.042  -1.543  30.242  0.00  0.00    -0.000 A 
ATOM      9  C   UNL A   1     -29.064  -2.458  30.592  0.00  0.00    +0.000 A 
ATOM     10  C   UNL A   1     -30.321  -2.036  30.360  0.00  0.00    +0.000 A 
ATOM     11  C   UNL A   1     -30.515  -1.166  29.229  0.00  0.00    +0.000 A 
ATOM     12  C   UNL A   1     -29.407  -0.260  28.926  0.00  0.00    -0.000 A 
ENDBRANCH   1   7
BRANCH   4  13
ATOM     13  C   UNL A   1     -23.506   2.134  27.567  0.00  0.00    +0.102 C 
ATOM     14 CL   UNL A   1     -22.454   2.148  27.828  0.00  0.00    -0.110 Cl
ATOM     15  C   UNL A   1     -23.899   2.778  26.154  0.00  0.00    +0.022 C 
ENDBRANCH   4  13
TORSDOF 2
