MODEL 1941
MODEL 1
REMARK VINA RESULT:    -5.334      0.000      0.000
REMARK INTER + INTRA:          -5.682
REMARK INTER:                  -5.646
REMARK INTRA:                  -0.036
REMARK UNBOUND:                -0.036
REMARK  Name = No_1941-gen_results/8p0m/2024-11-26-14-13-15/
REMARK  1 active torsions:
REMARK  status: ('A' for Active; 'I' for Inactive)
REMARK    1  A    between atoms: C_1  and  C_7
REMARK                            x       y       z     vdW  Elec       q    Type
REMARK                         _______ _______ _______ _____ _____    ______ ____
ROOT
ATOM      1  C   UNL A   1      -9.641 -10.110  18.357  0.00  0.00    +0.080 A 
ATOM      2  C   UNL A   1     -10.314  -9.431  19.098  0.00  0.00    +0.007 A 
ATOM      3  C   UNL A   1      -9.895  -9.017  20.347  0.00  0.00    +0.000 A 
ATOM      4  C   UNL A   1      -8.584  -9.379  20.765  0.00  0.00    +0.000 A 
ATOM      5  C   UNL A   1      -7.811  -9.990  19.837  0.00  0.00    +0.000 A 
ATOM      6  C   UNL A   1      -8.284 -10.313  18.648  0.00  0.00    +0.007 A 
ENDROOT
BRANCH   1   7
ATOM      7  C   UNL A   1     -10.377 -10.491  17.078  0.00  0.00    +0.388 C 
ATOM      8  O   UNL A   1     -11.509 -10.528  16.958  0.00  0.00    -0.241 OA
ATOM      9  O   UNL A   1      -9.578 -11.088  16.145  0.00  0.00    -0.241 OA
ENDBRANCH   1   7
TORSDOF 1
ENDMDL
ENDMDL
