REMARK  Name = No_1942-gen_results/8p0m/2024-11-26-14-13-15/
REMARK  4 active torsions:
REMARK  status: ('A' for Active; 'I' for Inactive)
REMARK    1  A    between atoms: C_4  and  C_8
REMARK    2  A    between atoms: C_8  and  C_9
REMARK    3  A    between atoms: C_9  and  C_10
REMARK    4  A    between atoms: C_10  and  C_11
REMARK                            x       y       z     vdW  Elec       q    Type
REMARK                         _______ _______ _______ _____ _____    ______ ____
ROOT
ATOM      1  C   UNL A   1     -23.808   0.564  30.148  0.00  0.00    +0.036 C 
ATOM      2  C   UNL A   1     -23.975   1.328  31.361  0.00  0.00    +0.003 C 
ENDROOT
BRANCH   1   3
ATOM      3  C   UNL A   1     -23.271   1.104  28.980  0.00  0.00    +0.146 C 
ATOM      4  C   UNL A   1     -21.731   1.317  29.328  0.00  0.00    +0.037 C 
ATOM      5  O   UNL A   1     -23.125   0.065  27.952  0.00  0.00    -0.221 OA
BRANCH   3   6
ATOM      6  C   UNL A   1     -23.863   2.222  28.315  0.00  0.00    +0.005 A 
ATOM      7  C   UNL A   1     -24.954   2.809  28.822  0.00  0.00    -0.002 A 
ATOM      8  C   UNL A   1     -25.552   3.887  28.129  0.00  0.00    -0.000 A 
ATOM      9  C   UNL A   1     -25.004   4.214  26.900  0.00  0.00    -0.000 A 
ATOM     10  C   UNL A   1     -24.055   3.496  26.221  0.00  0.00    -0.000 A 
ATOM     11  C   UNL A   1     -23.419   2.522  26.979  0.00  0.00    -0.002 A 
ENDBRANCH   3   6
ENDBRANCH   1   3
BRANCH   1  12
ATOM     12  C   UNL A   1     -24.380  -0.802  30.142  0.00  0.00    +0.030 C 
BRANCH  12  16
ATOM     13  C   UNL A   1     -28.016  -0.814  28.878  0.00  0.00    +0.041 A 
ATOM     14  C   UNL A   1     -28.469  -0.785  29.829  0.00  0.00    +0.141 A 
ATOM     15  C   UNL A   1     -26.504  -0.778  28.877  0.00  0.00    +0.056 A 
ATOM     16  C   UNL A   1     -25.810  -0.853  30.103  0.00  0.00    -0.011 A 
ATOM     17  C   UNL A   1     -27.991  -0.892  31.226  0.00  0.00    +0.029 A 
ATOM     18  C   UNL A   1     -26.604  -0.868  31.265  0.00  0.00    -0.001 A 
ATOM     19  F   UNL A   1     -29.920  -0.833  29.824  0.00  0.00    -0.204 F 
ATOM     20 CL   UNL A   1     -25.695  -0.544  27.383  0.00  0.00    -0.083 Cl
ENDBRANCH  12  16
ENDBRANCH   1  12
TORSDOF 4
