MODEL 1942
MODEL 1
REMARK VINA RESULT:    -7.058      0.000      0.000
REMARK INTER + INTRA:         -10.032
REMARK INTER:                  -8.708
REMARK INTRA:                  -1.324
REMARK UNBOUND:                -1.324
REMARK  Name = No_1942-gen_results/8p0m/2024-11-26-14-13-15/
REMARK  4 active torsions:
REMARK  status: ('A' for Active; 'I' for Inactive)
REMARK    1  A    between atoms: C_4  and  C_8
REMARK    2  A    between atoms: C_8  and  C_9
REMARK    3  A    between atoms: C_9  and  C_10
REMARK    4  A    between atoms: C_10  and  C_11
REMARK                            x       y       z     vdW  Elec       q    Type
REMARK                         _______ _______ _______ _____ _____    ______ ____
ROOT
ATOM      1  C   UNL A   1     -22.666   0.044  29.076  0.00  0.00    +0.036 C 
ATOM      2  C   UNL A   1     -21.253  -0.149  28.857  0.00  0.00    +0.003 C 
ENDROOT
BRANCH   1   3
ATOM      3  C   UNL A   1     -23.421   0.982  28.374  0.00  0.00    +0.146 C 
ATOM      4  C   UNL A   1     -24.474   1.510  29.447  0.00  0.00    +0.037 C 
ATOM      5  O   UNL A   1     -22.656   2.222  28.184  0.00  0.00    -0.221 OA
BRANCH   3   6
ATOM      6  C   UNL A   1     -24.004   0.693  27.101  0.00  0.00    +0.005 A 
ATOM      7  C   UNL A   1     -23.625   1.375  26.014  0.00  0.00    -0.002 A 
ATOM      8  C   UNL A   1     -24.242   1.105  24.770  0.00  0.00    -0.000 A 
ATOM      9  C   UNL A   1     -25.282   0.190  24.780  0.00  0.00    -0.000 A 
ATOM     10  C   UNL A   1     -25.875  -0.348  25.892  0.00  0.00    -0.000 A 
ATOM     11  C   UNL A   1     -25.172  -0.149  27.072  0.00  0.00    -0.002 A 
ENDBRANCH   3   6
ENDBRANCH   1   3
BRANCH   1  12
ATOM     12  C   UNL A   1     -23.268  -0.700  30.207  0.00  0.00    +0.030 C 
BRANCH  12  16
ATOM     13  C   UNL A   1     -26.061  -3.338  29.962  0.00  0.00    +0.041 A 
ATOM     14  C   UNL A   1     -25.523  -4.021  29.366  0.00  0.00    +0.141 A 
ATOM     15  C   UNL A   1     -25.304  -2.094  30.369  0.00  0.00    +0.056 A 
ATOM     16  C   UNL A   1     -24.022  -1.856  29.829  0.00  0.00    -0.011 A 
ATOM     17  C   UNL A   1     -24.224  -4.001  28.656  0.00  0.00    +0.029 A 
ATOM     18  C   UNL A   1     -23.502  -2.868  29.000  0.00  0.00    -0.001 A 
ATOM     19  F   UNL A   1     -26.259  -5.207  28.968  0.00  0.00    -0.204 F 
ATOM     20 CL   UNL A   1     -25.998  -1.068  31.556  0.00  0.00    -0.083 Cl
ENDBRANCH  12  16
ENDBRANCH   1  12
TORSDOF 4
ENDMDL
ENDMDL
