MODEL 1943
MODEL 1
REMARK VINA RESULT:    -7.206      0.000      0.000
REMARK INTER + INTRA:          -9.123
REMARK INTER:                  -8.469
REMARK INTRA:                  -0.654
REMARK UNBOUND:                -0.654
REMARK  Name = No_1943-gen_results/8p0m/2024-11-26-14-13-15/
REMARK  3 active torsions:
REMARK  status: ('A' for Active; 'I' for Inactive)
REMARK    1  A    between atoms: C_3  and  C_4
REMARK    2  A    between atoms: C_7  and  C_13
REMARK    3  A    between atoms: N_14  and  C_16
REMARK                            x       y       z     vdW  Elec       q    Type
REMARK                         _______ _______ _______ _____ _____    ______ ____
ROOT
ATOM      1  C   UNL A   1     -10.732   1.374  36.759  0.00  0.00    +0.005 A 
ATOM      2  C   UNL A   1     -11.768   1.830  37.186  0.00  0.00    +0.000 A 
ATOM      3  C   UNL A   1     -12.784   2.330  36.372  0.00  0.00    +0.000 A 
ATOM      4  C   UNL A   1     -10.449   1.499  35.297  0.00  0.00    +0.055 A 
ATOM      5  C   UNL A   1     -11.407   1.896  34.406  0.00  0.00    +0.005 A 
ATOM      6  C   UNL A   1     -12.647   2.389  34.897  0.00  0.00    +0.000 A 
ENDROOT
BRANCH   3   7
ATOM      7  C   UNL A   1     -14.069   2.913  36.806  0.00  0.00    +0.000 A 
ATOM      8  C   UNL A   1     -15.134   3.341  35.936  0.00  0.00    +0.000 A 
ATOM      9  C   UNL A   1     -16.327   3.872  36.464  0.00  0.00    +0.000 A 
ATOM     10  C   UNL A   1     -16.649   3.747  37.851  0.00  0.00    +0.000 A 
ATOM     11  C   UNL A   1     -14.467   2.904  38.213  0.00  0.00    +0.000 A 
ATOM     12  C   UNL A   1     -15.683   3.317  38.672  0.00  0.00    +0.000 A 
ENDBRANCH   3   7
BRANCH   4  13
ATOM     13  C   UNL A   1      -9.170   1.005  34.738  0.00  0.00    +0.269 C 
ATOM     14  N   UNL A   1      -8.537   0.156  35.297  0.00  0.00    -0.175 NA
ATOM     15  O   UNL A   1      -8.698   1.581  33.689  0.00  0.00    -0.268 OA
BRANCH  14  16
ATOM     16  C   UNL A   1      -7.243  -0.408  34.814  0.00  0.00    +0.074 A 
ATOM     17  C   UNL A   1      -7.148  -1.447  34.357  0.00  0.00    +0.017 A 
ATOM     18  C   UNL A   1      -6.092  -2.220  34.496  0.00  0.00    +0.001 A 
ATOM     19  C   UNL A   1      -4.844  -1.588  34.887  0.00  0.00    +0.000 A 
ATOM     20  C   UNL A   1      -4.915  -0.310  35.389  0.00  0.00    +0.001 A 
ATOM     21  C   UNL A   1      -6.123   0.264  35.482  0.00  0.00    +0.017 A 
ENDBRANCH  14  16
ENDBRANCH   4  13
TORSDOF 3
ENDMDL
ENDMDL
