REMARK  Name = No_1943-gen_results/8p0m/2024-11-26-14-13-15/
REMARK  3 active torsions:
REMARK  status: ('A' for Active; 'I' for Inactive)
REMARK    1  A    between atoms: C_3  and  C_4
REMARK    2  A    between atoms: C_7  and  C_13
REMARK    3  A    between atoms: N_14  and  C_16
REMARK                            x       y       z     vdW  Elec       q    Type
REMARK                         _______ _______ _______ _____ _____    ______ ____
ROOT
ATOM      1  C   UNL A   1     -28.016  -0.814  28.878  0.00  0.00    +0.005 A 
ATOM      2  C   UNL A   1     -27.064  -0.119  28.608  0.00  0.00    +0.000 A 
ATOM      3  C   UNL A   1     -25.765  -0.390  29.036  0.00  0.00    +0.000 A 
ATOM      4  C   UNL A   1     -27.829  -1.929  29.855  0.00  0.00    +0.055 A 
ATOM      5  C   UNL A   1     -26.588  -2.327  30.268  0.00  0.00    +0.005 A 
ATOM      6  C   UNL A   1     -25.456  -1.543  29.915  0.00  0.00    +0.000 A 
ENDROOT
BRANCH   3   7
ATOM      7  C   UNL A   1     -24.552   0.406  28.765  0.00  0.00    +0.000 A 
ATOM      8  C   UNL A   1     -23.230   0.118  29.258  0.00  0.00    +0.000 A 
ATOM      9  C   UNL A   1     -22.139   0.943  28.922  0.00  0.00    +0.000 A 
ATOM     10  C   UNL A   1     -22.230   1.909  27.872  0.00  0.00    +0.000 A 
ATOM     11  C   UNL A   1     -24.554   1.470  27.762  0.00  0.00    +0.000 A 
ATOM     12  C   UNL A   1     -23.447   2.167  27.376  0.00  0.00    +0.000 A 
ENDBRANCH   3   7
BRANCH   4  13
ATOM     13  C   UNL A   1     -28.978  -2.771  30.258  0.00  0.00    +0.269 C 
ATOM     14  N   UNL A   1     -30.095  -2.338  30.254  0.00  0.00    -0.175 NA
ATOM     15  O   UNL A   1     -28.742  -3.951  30.712  0.00  0.00    -0.268 OA
BRANCH  14  16
ATOM     16  C   UNL A   1     -31.315  -3.106  30.638  0.00  0.00    +0.074 A 
ATOM     17  C   UNL A   1     -32.324  -2.616  30.834  0.00  0.00    +0.017 A 
ATOM     18  C   UNL A   1     -33.195  -3.048  31.720  0.00  0.00    +0.001 A 
ATOM     19  C   UNL A   1     -33.063  -4.421  32.176  0.00  0.00    +0.000 A 
ATOM     20  C   UNL A   1     -31.878  -5.065  31.906  0.00  0.00    +0.001 A 
ATOM     21  C   UNL A   1     -30.930  -4.386  31.243  0.00  0.00    +0.017 A 
ENDBRANCH  14  16
ENDBRANCH   4  13
TORSDOF 3
