MODEL 1944
MODEL 1
REMARK VINA RESULT:    -5.284      0.000      0.000
REMARK INTER + INTRA:          -5.745
REMARK INTER:                  -5.593
REMARK INTRA:                  -0.152
REMARK UNBOUND:                -0.152
REMARK  Name = No_1944-gen_results/8p0m/2024-11-26-14-13-15/
REMARK  1 active torsions:
REMARK  status: ('A' for Active; 'I' for Inactive)
REMARK    1  A    between atoms: C_4  and  C_6
REMARK                            x       y       z     vdW  Elec       q    Type
REMARK                         _______ _______ _______ _____ _____    ______ ____
ROOT
ATOM      1  C   UNL A   1     -26.654  -3.979  29.890  0.00  0.00    -0.000 A 
ATOM      2  C   UNL A   1     -26.140  -4.874  29.677  0.00  0.00    -0.000 A 
ATOM      3  C   UNL A   1     -25.877  -2.707  29.631  0.00  0.00    -0.000 A 
ATOM      4  C   UNL A   1     -24.615  -2.783  29.006  0.00  0.00    -0.000 A 
ATOM      5  C   UNL A   1     -24.868  -5.223  29.005  0.00  0.00    -0.000 A 
ATOM      6  C   UNL A   1     -24.122  -4.053  28.720  0.00  0.00    -0.000 A 
ENDROOT
BRANCH   4   7
ATOM      7  C   UNL A   1     -23.839  -1.635  28.724  0.00  0.00    -0.005 C 
ATOM      8  C   UNL A   1     -22.761  -1.342  29.339  0.00  0.00    -0.026 C 
ATOM      9  C   UNL A   1     -21.871  -0.239  28.932  0.00  0.00    +0.031 C 
ENDBRANCH   4   7
TORSDOF 1
ENDMDL
ENDMDL
