REMARK  Name = No_1945-gen_results/8p0m/2024-11-26-14-13-15/
REMARK  2 active torsions:
REMARK  status: ('A' for Active; 'I' for Inactive)
REMARK    1  A    between atoms: C_2  and  C_17
REMARK    2  A    between atoms: N_19  and  C_20
REMARK                            x       y       z     vdW  Elec       q    Type
REMARK                         _______ _______ _______ _____ _____    ______ ____
ROOT
ATOM      1  C   UNL A   1     -28.016  -0.814  28.878  0.00  0.00    +0.001 A 
ATOM      2  C   UNL A   1     -28.469  -0.785  29.829  0.00  0.00    +0.055 A 
ATOM      3  C   UNL A   1     -26.504  -0.778  28.877  0.00  0.00    -0.018 A 
ATOM      4  C   UNL A   1     -25.654  -0.660  27.719  0.00  0.00    +0.045 C 
ATOM      5  C   UNL A   1     -27.918  -0.937  31.182  0.00  0.00    +0.005 A 
ATOM      6  C   UNL A   1     -26.542  -0.940  31.261  0.00  0.00    -0.000 A 
ATOM      7  C   UNL A   1     -25.783  -0.893  30.120  0.00  0.00    -0.004 A 
ATOM      8  C   UNL A   1     -25.926   0.282  26.744  0.00  0.00    -0.022 C 
ATOM      9  C   UNL A   1     -24.990   0.678  25.868  0.00  0.00    -0.005 C 
ATOM     10  C   UNL A   1     -23.738   0.873  26.200  0.00  0.00    -0.009 C 
ATOM     11  C   UNL A   1     -23.277   0.434  27.482  0.00  0.00    -0.040 C 
ATOM     12  C   UNL A   1     -24.541  -1.375  27.474  0.00  0.00    +0.017 C 
ATOM     13  C   UNL A   1     -23.711  -0.211  28.371  0.00  0.00    +0.041 C 
ATOM     14  C   UNL A   1     -23.163  -0.545  29.628  0.00  0.00    -0.022 C 
ATOM     15  C   UNL A   1     -24.371  -0.790  30.326  0.00  0.00    -0.005 C 
ATOM     16  C   UNL A   1     -21.762   1.093  27.732  0.00  0.00    +0.027 C 
ENDROOT
BRANCH   2  17
ATOM     17  C   UNL A   1     -30.062  -0.841  29.846  0.00  0.00    +0.269 C 
ATOM     18  O   UNL A   1     -30.738  -1.661  30.297  0.00  0.00    -0.268 OA
ATOM     19  N   UNL A   1     -30.583   0.008  28.843  0.00  0.00    -0.174 NA
BRANCH  19  20
ATOM     20  C   UNL A   1     -31.672   0.252  28.565  0.00  0.00    +0.084 C 
ATOM     21  C   UNL A   1     -31.960   0.831  27.469  0.00  0.00    -0.008 C 
ATOM     22  C   UNL A   1     -33.081   1.103  26.885  0.00  0.00    +0.032 C 
ENDBRANCH  19  20
ENDBRANCH   2  17
TORSDOF 2
