REMARK  Name = No_1946-gen_results/8p0m/2024-11-26-14-13-15/
REMARK  4 active torsions:
REMARK  status: ('A' for Active; 'I' for Inactive)
REMARK    1  A    between atoms: C_1  and  C_2
REMARK    2  A    between atoms: C_5  and  C_9
REMARK    3  A    between atoms: C_10  and  C_11
REMARK    4  A    between atoms: C_11  and  C_12
REMARK                            x       y       z     vdW  Elec       q    Type
REMARK                         _______ _______ _______ _____ _____    ______ ____
ROOT
ATOM      1  C   UNL A   1     -27.064  -0.119  28.608  0.00  0.00    +0.011 A 
ATOM      2  C   UNL A   1     -25.765  -0.390  29.036  0.00  0.00    -0.002 A 
ATOM      3  C   UNL A   1     -24.552   0.406  28.765  0.00  0.00    -0.000 A 
ATOM      4  C   UNL A   1     -24.696   1.448  27.799  0.00  0.00    -0.000 A 
ATOM      5  C   UNL A   1     -25.976   1.725  27.308  0.00  0.00    -0.000 A 
ATOM      6  C   UNL A   1     -27.072   1.013  27.654  0.00  0.00    -0.002 A 
ENDROOT
BRANCH   1   7
ATOM      7  C   UNL A   1     -28.016  -0.814  28.878  0.00  0.00    +0.209 C 
ATOM      8  O   UNL A   1     -28.489  -0.610  30.045  0.00  0.00    -0.215 OA
ENDBRANCH   1   7
BRANCH   4   9
ATOM      9  C   UNL A   1     -23.491   2.174  27.478  0.00  0.00    -0.005 C 
ATOM     10  C   UNL A   1     -22.312   1.592  27.234  0.00  0.00    -0.026 C 
BRANCH  10  11
ATOM     11  C   UNL A   1     -21.905   0.567  28.166  0.00  0.00    +0.026 C 
BRANCH  11  12
ATOM     12  C   UNL A   1     -22.691  -0.000  29.093  0.00  0.00    +0.004 C 
ATOM     13  C   UNL A   1     -22.641  -1.152  29.869  0.00  0.00    +0.000 C 
ATOM     14  C   UNL A   1     -22.663   0.940  30.479  0.00  0.00    +0.000 C 
ENDBRANCH  11  12
ENDBRANCH  10  11
ENDBRANCH   4   9
TORSDOF 4
