MODEL 1946
MODEL 1
REMARK VINA RESULT:    -5.295      0.000      0.000
REMARK INTER + INTRA:          -7.381
REMARK INTER:                  -6.533
REMARK INTRA:                  -0.848
REMARK UNBOUND:                -0.848
REMARK  Name = No_1946-gen_results/8p0m/2024-11-26-14-13-15/
REMARK  4 active torsions:
REMARK  status: ('A' for Active; 'I' for Inactive)
REMARK    1  A    between atoms: C_1  and  C_2
REMARK    2  A    between atoms: C_5  and  C_9
REMARK    3  A    between atoms: C_10  and  C_11
REMARK    4  A    between atoms: C_11  and  C_12
REMARK                            x       y       z     vdW  Elec       q    Type
REMARK                         _______ _______ _______ _____ _____    ______ ____
ROOT
ATOM      1  C   UNL A   1     -23.072  -0.385  30.713  0.00  0.00    +0.011 A 
ATOM      2  C   UNL A   1     -22.169  -0.698  29.698  0.00  0.00    -0.002 A 
ATOM      3  C   UNL A   1     -21.827   0.126  28.522  0.00  0.00    -0.000 A 
ATOM      4  C   UNL A   1     -22.656   1.268  28.302  0.00  0.00    -0.000 A 
ATOM      5  C   UNL A   1     -23.608   1.594  29.273  0.00  0.00    -0.000 A 
ATOM      6  C   UNL A   1     -23.825   0.846  30.378  0.00  0.00    -0.002 A 
ENDROOT
BRANCH   1   7
ATOM      7  C   UNL A   1     -23.296  -1.107  31.656  0.00  0.00    +0.209 C 
ATOM      8  O   UNL A   1     -22.357  -1.135  32.519  0.00  0.00    -0.215 OA
ENDBRANCH   1   7
BRANCH   4   9
ATOM      9  C   UNL A   1     -22.369   2.028  27.109  0.00  0.00    -0.005 C 
ATOM     10  C   UNL A   1     -23.221   2.163  26.088  0.00  0.00    -0.026 C 
BRANCH  10  11
ATOM     11  C   UNL A   1     -23.856   0.951  25.626  0.00  0.00    +0.026 C 
BRANCH  11  12
ATOM     12  C   UNL A   1     -25.179   0.752  25.531  0.00  0.00    +0.004 C 
ATOM     13  C   UNL A   1     -26.018   0.038  24.683  0.00  0.00    +0.000 C 
ATOM     14  C   UNL A   1     -25.683  -0.185  26.824  0.00  0.00    +0.000 C 
ENDBRANCH  11  12
ENDBRANCH  10  11
ENDBRANCH   4   9
TORSDOF 4
ENDMDL
ENDMDL
