MODEL 1947
MODEL 1
REMARK VINA RESULT:    -3.473      0.000      0.000
REMARK INTER + INTRA:          -3.729
REMARK INTER:                  -3.676
REMARK INTRA:                  -0.053
REMARK UNBOUND:                -0.053
REMARK  Name = No_1947-gen_results/8p0m/2024-11-26-14-13-15/
REMARK  1 active torsions:
REMARK  status: ('A' for Active; 'I' for Inactive)
REMARK    1  A    between atoms: C_3  and  C_4
REMARK                            x       y       z     vdW  Elec       q    Type
REMARK                         _______ _______ _______ _____ _____    ______ ____
ROOT
ATOM      1 CL   UNL A   1      -6.962  -7.857  19.509  0.00  0.00    -0.081 Cl
ATOM      2  C   UNL A   1      -6.971  -9.062  20.144  0.00  0.00    +0.068 C 
ATOM      3  C   UNL A   1      -8.141  -9.727  20.347  0.00  0.00    +0.012 C 
ENDROOT
BRANCH   3   4
ATOM      4  C   UNL A   1      -9.414  -9.139  19.909  0.00  0.00    +0.001 C 
ATOM      5  C   UNL A   1      -9.899  -9.698  18.688  0.00  0.00    +0.000 C 
ENDBRANCH   3   4
TORSDOF 1
ENDMDL
ENDMDL
