MODEL 1948
MODEL 1
REMARK VINA RESULT:    -4.803      0.000      0.000
REMARK INTER + INTRA:          -5.317
REMARK INTER:                  -5.084
REMARK INTRA:                  -0.233
REMARK UNBOUND:                -0.233
REMARK  Name = No_1948-gen_results/8p0m/2024-11-26-14-13-15/
REMARK  1 active torsions:
REMARK  status: ('A' for Active; 'I' for Inactive)
REMARK    1  A    between atoms: C_3  and  C_4
REMARK                            x       y       z     vdW  Elec       q    Type
REMARK                         _______ _______ _______ _____ _____    ______ ____
ROOT
ATOM      1  C   UNL A   1     -23.870  -3.696  28.529  0.00  0.00    -0.000 A 
ATOM      2  C   UNL A   1     -24.130  -4.716  28.564  0.00  0.00    -0.000 A 
ATOM      3  C   UNL A   1     -24.875  -2.742  29.026  0.00  0.00    -0.000 A 
ATOM      4  C   UNL A   1     -25.259  -5.422  29.218  0.00  0.00    -0.000 A 
ATOM      5  C   UNL A   1     -26.251  -4.588  29.721  0.00  0.00    -0.000 A 
ATOM      6  C   UNL A   1     -26.102  -3.218  29.675  0.00  0.00    -0.000 A 
ENDROOT
BRANCH   3   7
ATOM      7  C   UNL A   1     -24.823  -1.290  28.951  0.00  0.00    -0.005 C 
ATOM      8  C   UNL A   1     -23.966  -0.547  29.806  0.00  0.00    -0.026 C 
ATOM      9  C   UNL A   1     -23.416  -0.893  30.695  0.00  0.00    +0.031 C 
ENDBRANCH   3   7
TORSDOF 1
ENDMDL
ENDMDL
