MODEL 1949
MODEL 1
REMARK VINA RESULT:    -6.518      0.000      0.000
REMARK INTER + INTRA:          -7.226
REMARK INTER:                  -6.899
REMARK INTRA:                  -0.327
REMARK UNBOUND:                -0.327
REMARK  Name = No_1949-gen_results/8p0m/2024-11-26-14-13-15/
REMARK  1 active torsions:
REMARK  status: ('A' for Active; 'I' for Inactive)
REMARK    1  A    between atoms: C_3  and  C_7
REMARK                            x       y       z     vdW  Elec       q    Type
REMARK                         _______ _______ _______ _____ _____    ______ ____
ROOT
ATOM      1  C   UNL A   1     -26.557  -3.529  29.974  0.00  0.00    +0.000 A 
ATOM      2  C   UNL A   1     -25.877  -2.596  29.613  0.00  0.00    +0.000 A 
ATOM      3  C   UNL A   1     -24.630  -2.699  29.020  0.00  0.00    +0.000 A 
ATOM      4  C   UNL A   1     -24.127  -4.014  28.793  0.00  0.00    +0.000 A 
ATOM      5  C   UNL A   1     -24.965  -5.030  29.056  0.00  0.00    +0.000 A 
ATOM      6  C   UNL A   1     -26.144  -4.835  29.574  0.00  0.00    +0.000 A 
ENDROOT
BRANCH   3   7
ATOM      7  C   UNL A   1     -23.764  -1.505  28.718  0.00  0.00    +0.000 A 
ATOM      8  C   UNL A   1     -24.389  -0.564  27.990  0.00  0.00    +0.000 A 
ATOM      9  C   UNL A   1     -23.631   0.619  27.539  0.00  0.00    +0.000 A 
ATOM     10  C   UNL A   1     -22.453   0.908  28.208  0.00  0.00    +0.000 A 
ATOM     11  C   UNL A   1     -22.542  -1.197  29.255  0.00  0.00    +0.000 A 
ATOM     12  C   UNL A   1     -21.793  -0.060  28.892  0.00  0.00    +0.000 A 
ENDBRANCH   3   7
TORSDOF 1
ENDMDL
ENDMDL
