MODEL 194
MODEL 1
REMARK VINA RESULT:    -5.941      0.000      0.000
REMARK INTER + INTRA:          -7.321
REMARK INTER:                  -6.983
REMARK INTRA:                  -0.338
REMARK UNBOUND:                -0.338
REMARK  Name = No_194-gen_results/8p0m/2024-11-26-14-13-15/
REMARK  3 active torsions:
REMARK  status: ('A' for Active; 'I' for Inactive)
REMARK    1  A    between atoms: C_1  and  C_2
REMARK    2  A    between atoms: C_5  and  C_12
REMARK    3  A    between atoms: N_8  and  C_10
REMARK                            x       y       z     vdW  Elec       q    Type
REMARK                         _______ _______ _______ _____ _____    ______ ____
ROOT
ATOM      1  C   UNL A   1      -9.983   2.093  34.409  0.00  0.00    +0.253 C 
ATOM      2  N   UNL A   1      -9.272   0.963  34.984  0.00  0.00    -0.253 N 
ATOM      3  O   UNL A   1      -9.575   2.385  33.245  0.00  0.00    -0.270 OA
ATOM      4  C   UNL A   1      -9.700   0.415  36.296  0.00  0.00    +0.120 C 
ENDROOT
BRANCH   1   5
ATOM      5  C   UNL A   1     -11.066   2.399  34.849  0.00  0.00    +0.054 A 
ATOM      6  C   UNL A   1     -11.257   3.338  35.811  0.00  0.00    +0.005 A 
ATOM      7  C   UNL A   1     -12.576   3.726  36.358  0.00  0.00    +0.005 A 
ATOM      8  C   UNL A   1     -13.725   3.069  35.807  0.00  0.00    +0.059 A 
ATOM      9  C   UNL A   1     -13.491   2.152  34.759  0.00  0.00    +0.005 A 
ATOM     10  C   UNL A   1     -12.237   1.841  34.302  0.00  0.00    +0.005 A 
BRANCH   8  11
ATOM     11  C   UNL A   1     -15.077   3.355  36.228  0.00  0.00    +0.297 C 
ATOM     12  N   UNL A   1     -16.036   3.751  35.553  0.00  0.00    -0.102 NA
ATOM     13  O   UNL A   1     -15.254   3.385  37.535  0.00  0.00    -0.264 OA
ENDBRANCH   8  11
ENDBRANCH   1   5
BRANCH   2  14
ATOM     14  C   UNL A   1      -7.980   0.481  34.552  0.00  0.00    +0.054 A 
ATOM     15  C   UNL A   1      -7.899  -0.861  34.329  0.00  0.00    +0.015 A 
ATOM     16  C   UNL A   1      -6.611  -1.499  34.563  0.00  0.00    +0.001 A 
ATOM     17  C   UNL A   1      -5.687  -0.809  35.209  0.00  0.00    +0.000 A 
ATOM     18  C   UNL A   1      -5.815   0.550  35.448  0.00  0.00    +0.001 A 
ATOM     19  C   UNL A   1      -7.226   1.022  35.645  0.00  0.00    +0.015 A 
ENDBRANCH   2  14
TORSDOF 3
ENDMDL
ENDMDL
