MODEL 1950
MODEL 1
REMARK VINA RESULT:    -5.852      0.000      0.000
REMARK INTER + INTRA:          -5.852
REMARK INTER:                  -5.852
REMARK INTRA:                   0.000
REMARK UNBOUND:                 0.000
REMARK  Name = No_1950-gen_results/8p0m/2024-11-26-14-13-15/
REMARK  0 active torsions:
REMARK  status: ('A' for Active; 'I' for Inactive)
REMARK                            x       y       z     vdW  Elec       q    Type
REMARK                         _______ _______ _______ _____ _____    ______ ____
ROOT
ATOM      1  C   UNL A   1     -25.511  -1.223  30.320  0.00  0.00    -0.000 A 
ATOM      2  C   UNL A   1     -24.700  -0.575  30.138  0.00  0.00    -0.004 A 
ATOM      3  C   UNL A   1     -25.470  -2.508  29.737  0.00  0.00    -0.000 A 
ATOM      4  C   UNL A   1     -26.474  -3.577  29.981  0.00  0.00    -0.000 A 
ATOM      5  C   UNL A   1     -23.474  -0.752  29.340  0.00  0.00    -0.022 A 
ATOM      6  C   UNL A   1     -22.445   0.201  29.117  0.00  0.00    +0.031 C 
ATOM      7  C   UNL A   1     -26.229  -4.844  29.605  0.00  0.00    -0.000 A 
ATOM      8  C   UNL A   1     -25.045  -5.234  28.970  0.00  0.00    -0.000 A 
ATOM      9  C   UNL A   1     -24.084  -4.307  28.798  0.00  0.00    -0.000 A 
ATOM     10  C   UNL A   1     -24.221  -3.044  29.223  0.00  0.00    -0.000 A 
ATOM     11  C   UNL A   1     -23.290  -2.087  28.979  0.00  0.00    -0.004 A 
ENDROOT
TORSDOF 0
ENDMDL
ENDMDL
