REMARK  Name = No_1950-gen_results/8p0m/2024-11-26-14-13-15/
REMARK  0 active torsions:
REMARK  status: ('A' for Active; 'I' for Inactive)
REMARK                            x       y       z     vdW  Elec       q    Type
REMARK                         _______ _______ _______ _____ _____    ______ ____
ROOT
ATOM      1  C   UNL A   1     -28.016  -0.814  28.878  0.00  0.00    -0.000 A 
ATOM      2  C   UNL A   1     -28.469  -0.785  29.829  0.00  0.00    -0.004 A 
ATOM      3  C   UNL A   1     -27.136   0.236  28.535  0.00  0.00    -0.000 A 
ATOM      4  C   UNL A   1     -26.335   0.290  27.284  0.00  0.00    -0.000 A 
ATOM      5  C   UNL A   1     -28.369   0.196  30.924  0.00  0.00    -0.022 A 
ATOM      6  C   UNL A   1     -29.053   0.173  32.168  0.00  0.00    +0.031 C 
ATOM      7  C   UNL A   1     -25.334   1.177  27.151  0.00  0.00    -0.000 A 
ATOM      8  C   UNL A   1     -24.989   2.091  28.153  0.00  0.00    -0.000 A 
ATOM      9  C   UNL A   1     -25.645   2.022  29.326  0.00  0.00    -0.000 A 
ATOM     10  C   UNL A   1     -26.596   1.109  29.564  0.00  0.00    -0.000 A 
ATOM     11  C   UNL A   1     -27.316   1.088  30.714  0.00  0.00    -0.004 A 
ENDROOT
TORSDOF 0
