MODEL 1951
MODEL 1
REMARK VINA RESULT:    -5.021      0.000      0.000
REMARK INTER + INTRA:          -5.021
REMARK INTER:                  -5.021
REMARK INTRA:                   0.000
REMARK UNBOUND:                 0.000
REMARK  Name = No_1951-gen_results/8p0m/2024-11-26-14-13-15/
REMARK  0 active torsions:
REMARK  status: ('A' for Active; 'I' for Inactive)
REMARK                            x       y       z     vdW  Elec       q    Type
REMARK                         _______ _______ _______ _____ _____    ______ ____
ROOT
ATOM      1  C   UNL A   1     -10.488  -9.306  19.200  0.00  0.00    +0.042 A 
ATOM      2  C   UNL A   1      -9.744  -9.126  20.137  0.00  0.00    +0.003 A 
ATOM      3  C   UNL A   1      -8.447  -9.628  20.130  0.00  0.00    +0.000 A 
ATOM      4  C   UNL A   1      -7.963 -10.417  19.027  0.00  0.00    +0.003 A 
ATOM      5  C   UNL A   1      -8.896 -10.595  17.997  0.00  0.00    +0.042 A 
ATOM      6  C   UNL A   1     -10.117 -10.114  18.059  0.00  0.00    +0.196 A 
ATOM      7  O   UNL A   1     -10.974 -10.366  17.033  0.00  0.00    -0.287 OA
ENDROOT
TORSDOF 0
ENDMDL
ENDMDL
