REMARK  Name = No_1952-gen_results/8p0m/2024-11-26-14-13-15/
REMARK  5 active torsions:
REMARK  status: ('A' for Active; 'I' for Inactive)
REMARK    1  A    between atoms: C_3  and  C_9
REMARK    2  A    between atoms: C_9  and  N_10
REMARK    3  A    between atoms: C_9  and  C_21
REMARK    4  A    between atoms: C_11  and  C_12
REMARK    5  A    between atoms: C_12  and  C_13
REMARK                            x       y       z     vdW  Elec       q    Type
REMARK                         _______ _______ _______ _____ _____    ______ ____
ROOT
ATOM      1  N   UNL A   1     -25.344   2.164  27.403  0.00  0.00    -0.269 N 
ATOM      2  C   UNL A   1     -24.135   2.392  26.944  0.00  0.00    +0.231 C 
ATOM      3  C   UNL A   1     -26.457   2.306  26.494  0.00  0.00    +0.116 C 
ATOM      4  O   UNL A   1     -24.010   3.563  26.291  0.00  0.00    -0.275 OA
ENDROOT
BRANCH   1   5
ATOM      5  C   UNL A   1     -25.626   1.787  28.577  0.00  0.00    +0.164 C 
BRANCH   5   8
ATOM      6  C   UNL A   1     -28.016  -0.814  28.878  0.00  0.00    +0.013 A 
ATOM      7  C   UNL A   1     -27.064  -0.119  28.608  0.00  0.00    +0.056 A 
ATOM      8  C   UNL A   1     -26.929   1.171  29.008  0.00  0.00    +0.016 A 
ATOM      9  C   UNL A   1     -27.956   1.741  29.784  0.00  0.00    +0.028 A 
ATOM     10  C   UNL A   1     -29.057  -0.327  29.747  0.00  0.00    +0.030 A 
ATOM     11  C   UNL A   1     -28.983   0.972  30.152  0.00  0.00    +0.140 A 
ATOM     12 CL   UNL A   1     -25.735  -0.730  27.663  0.00  0.00    -0.083 Cl
ATOM     13  F   UNL A   1     -29.972   1.427  30.934  0.00  0.00    -0.204 F 
ENDBRANCH   5   8
BRANCH   5  14
ATOM     14  C   UNL A   1     -24.943   2.533  29.763  0.00  0.00    +0.232 C 
ATOM     15  O   UNL A   1     -24.643   3.488  29.833  0.00  0.00    -0.286 OA
ENDBRANCH   5  14
ENDBRANCH   1   5
BRANCH   2  16
ATOM     16  C   UNL A   1     -23.101   1.519  27.096  0.00  0.00    +0.114 C 
BRANCH  16  17
ATOM     17  C   UNL A   1     -23.020   0.678  28.164  0.00  0.00    +0.014 A 
ATOM     18  C   UNL A   1     -22.052   0.957  29.100  0.00  0.00    -0.002 A 
ATOM     19  C   UNL A   1     -22.092  -0.014  30.249  0.00  0.00    -0.000 A 
ATOM     20  C   UNL A   1     -23.199  -0.943  30.400  0.00  0.00    +0.002 A 
ATOM     21  C   UNL A   1     -23.984  -1.170  29.430  0.00  0.00    +0.029 A 
ATOM     22  C   UNL A   1     -23.942  -0.312  28.313  0.00  0.00    +0.137 A 
ATOM     23  F   UNL A   1     -23.345  -0.502  27.141  0.00  0.00    -0.204 F 
ENDBRANCH  16  17
ENDBRANCH   2  16
TORSDOF 5
