MODEL 1952
MODEL 1
REMARK VINA RESULT:    -7.167      0.000      0.000
REMARK INTER + INTRA:          -9.940
REMARK INTER:                  -9.262
REMARK INTRA:                  -0.678
REMARK UNBOUND:                -0.678
REMARK  Name = No_1952-gen_results/8p0m/2024-11-26-14-13-15/
REMARK  5 active torsions:
REMARK  status: ('A' for Active; 'I' for Inactive)
REMARK    1  A    between atoms: C_3  and  C_9
REMARK    2  A    between atoms: C_9  and  N_10
REMARK    3  A    between atoms: C_9  and  C_21
REMARK    4  A    between atoms: C_11  and  C_12
REMARK    5  A    between atoms: C_12  and  C_13
REMARK                            x       y       z     vdW  Elec       q    Type
REMARK                         _______ _______ _______ _____ _____    ______ ____
ROOT
ATOM      1  N   UNL A   1     -24.799   0.453  30.368  0.00  0.00    -0.269 N 
ATOM      2  C   UNL A   1     -23.987   1.394  29.944  0.00  0.00    +0.231 C 
ATOM      3  C   UNL A   1     -26.218   0.720  30.353  0.00  0.00    +0.116 C 
ATOM      4  O   UNL A   1     -24.204   2.598  30.506  0.00  0.00    -0.275 OA
ENDROOT
BRANCH   1   5
ATOM      5  C   UNL A   1     -24.451  -0.698  30.758  0.00  0.00    +0.164 C 
BRANCH   5   8
ATOM      6  C   UNL A   1     -24.112  -3.686  28.879  0.00  0.00    +0.013 A 
ATOM      7  C   UNL A   1     -23.963  -2.612  29.416  0.00  0.00    +0.056 A 
ATOM      8  C   UNL A   1     -24.916  -2.000  30.164  0.00  0.00    +0.016 A 
ATOM      9  C   UNL A   1     -26.155  -2.647  30.327  0.00  0.00    +0.028 A 
ATOM     10  C   UNL A   1     -25.318  -4.447  29.082  0.00  0.00    +0.030 A 
ATOM     11  C   UNL A   1     -26.318  -3.863  29.801  0.00  0.00    +0.140 A 
ATOM     12 CL   UNL A   1     -22.465  -1.734  29.286  0.00  0.00    -0.083 Cl
ATOM     13  F   UNL A   1     -27.449  -4.564  29.959  0.00  0.00    -0.204 F 
ENDBRANCH   5   8
BRANCH   5  14
ATOM     14  C   UNL A   1     -24.076  -0.874  32.261  0.00  0.00    +0.232 C 
ATOM     15  O   UNL A   1     -23.260  -1.286  32.675  0.00  0.00    -0.286 OA
ENDBRANCH   5  14
ENDBRANCH   1   5
BRANCH   2  16
ATOM     16  C   UNL A   1     -23.021   1.181  29.008  0.00  0.00    +0.114 C 
BRANCH  16  17
ATOM     17  C   UNL A   1     -23.281   1.265  27.673  0.00  0.00    +0.014 A 
ATOM     18  C   UNL A   1     -24.263   0.437  27.181  0.00  0.00    -0.002 A 
ATOM     19  C   UNL A   1     -24.487   0.654  25.708  0.00  0.00    -0.000 A 
ATOM     20  C   UNL A   1     -23.883   1.784  25.022  0.00  0.00    +0.002 A 
ATOM     21  C   UNL A   1     -22.928   2.425  25.557  0.00  0.00    +0.029 A 
ATOM     22  C   UNL A   1     -22.655   2.212  26.923  0.00  0.00    +0.137 A 
ATOM     23  F   UNL A   1     -21.710   1.456  27.474  0.00  0.00    -0.204 F 
ENDBRANCH  16  17
ENDBRANCH   2  16
TORSDOF 5
ENDMDL
ENDMDL
