REMARK  Name = No_1953-gen_results/8p0m/2024-11-26-14-13-15/
REMARK  5 active torsions:
REMARK  status: ('A' for Active; 'I' for Inactive)
REMARK    1  A    between atoms: C_1  and  C_2
REMARK    2  A    between atoms: C_5  and  C_10
REMARK    3  A    between atoms: N_8  and  C_9
REMARK    4  A    between atoms: N_8  and  C_19
REMARK    5  A    between atoms: C_22  and  C_29
REMARK                            x       y       z     vdW  Elec       q    Type
REMARK                         _______ _______ _______ _____ _____    ______ ____
ROOT
ATOM      1  C   UNL A   1     -28.016  -0.814  28.878  0.00  0.00    +0.257 C 
ATOM      2  N   UNL A   1     -29.170  -0.298  28.947  0.00  0.00    -0.234 N 
ATOM      3  O   UNL A   1     -27.858  -1.974  29.382  0.00  0.00    -0.269 OA
ENDROOT
BRANCH   2   4
ATOM      4  C   UNL A   1     -29.602   0.879  28.231  0.00  0.00    +0.058 A 
ATOM      5  C   UNL A   1     -29.651   2.113  28.802  0.00  0.00    +0.015 A 
ATOM      6  C   UNL A   1     -30.077   3.216  28.105  0.00  0.00    +0.007 A 
ATOM      7  C   UNL A   1     -30.414   3.044  26.752  0.00  0.00    +0.068 A 
ATOM      8  C   UNL A   1     -29.964   0.706  26.922  0.00  0.00    +0.014 A 
ATOM      9  C   UNL A   1     -29.936  -0.584  26.283  0.00  0.00    +0.001 A 
ATOM     10  C   UNL A   1     -30.345   1.815  26.134  0.00  0.00    +0.007 A 
ATOM     11  C   UNL A   1     -30.093  -0.556  24.870  0.00  0.00    +0.000 A 
ATOM     12  C   UNL A   1     -30.613   1.658  24.816  0.00  0.00    +0.000 A 
ATOM     13  C   UNL A   1     -30.539   0.454  24.191  0.00  0.00    +0.000 A 
BRANCH   7  14
ATOM     14  C   UNL A   1     -30.817   4.244  26.007  0.00  0.00    +0.333 C 
ATOM     15  O   UNL A   1     -31.288   4.169  24.843  0.00  0.00    -0.254 OA
ATOM     16  F   UNL A   1     -31.004   5.272  26.640  0.00  0.00    -0.159 F 
ENDBRANCH   7  14
ENDBRANCH   2   4
BRANCH   1  17
ATOM     17  C   UNL A   1     -27.064  -0.119  28.608  0.00  0.00    +0.054 A 
ATOM     18  C   UNL A   1     -26.929   1.171  29.008  0.00  0.00    +0.005 A 
ATOM     19  C   UNL A   1     -25.770   2.034  28.688  0.00  0.00    +0.007 A 
ATOM     20  C   UNL A   1     -24.714   1.443  27.919  0.00  0.00    +0.080 A 
ATOM     21  C   UNL A   1     -24.859   0.078  27.584  0.00  0.00    +0.007 A 
ATOM     22  C   UNL A   1     -25.965  -0.661  27.916  0.00  0.00    +0.005 A 
BRANCH  20  23
ATOM     23  C   UNL A   1     -23.518   2.158  27.578  0.00  0.00    +0.388 C 
ATOM     24  O   UNL A   1     -23.357   2.846  26.814  0.00  0.00    -0.241 OA
ATOM     25  O   UNL A   1     -22.457   1.891  28.467  0.00  0.00    -0.241 OA
ENDBRANCH  20  23
ENDBRANCH   1  17
BRANCH   2  26
ATOM     26  C   UNL A   1     -30.184  -0.892  29.705  0.00  0.00    +0.058 A 
ATOM     27  C   UNL A   1     -31.526  -0.615  29.459  0.00  0.00    +0.015 A 
ATOM     28  C   UNL A   1     -29.866  -1.862  30.748  0.00  0.00    +0.015 A 
ATOM     29  C   UNL A   1     -30.922  -2.647  31.309  0.00  0.00    +0.001 A 
ATOM     30  C   UNL A   1     -32.531  -1.344  30.152  0.00  0.00    +0.001 A 
ATOM     31  C   UNL A   1     -32.203  -2.288  31.090  0.00  0.00    +0.000 A 
ENDBRANCH   2  26
TORSDOF 5
