MODEL 1953
MODEL 1
REMARK VINA RESULT:    -8.262      0.000      0.000
REMARK INTER + INTRA:         -11.808
REMARK INTER:                 -10.677
REMARK INTRA:                  -1.131
REMARK UNBOUND:                -1.131
REMARK  Name = No_1953-gen_results/8p0m/2024-11-26-14-13-15/
REMARK  5 active torsions:
REMARK  status: ('A' for Active; 'I' for Inactive)
REMARK    1  A    between atoms: C_1  and  C_2
REMARK    2  A    between atoms: C_5  and  C_10
REMARK    3  A    between atoms: N_8  and  C_9
REMARK    4  A    between atoms: N_8  and  C_19
REMARK    5  A    between atoms: C_22  and  C_29
REMARK                            x       y       z     vdW  Elec       q    Type
REMARK                         _______ _______ _______ _____ _____    ______ ____
ROOT
ATOM      1  C   UNL A   1     -24.424  -0.841  30.991  0.00  0.00    +0.257 C 
ATOM      2  N   UNL A   1     -24.878  -1.179  29.859  0.00  0.00    -0.234 N 
ATOM      3  O   UNL A   1     -23.876  -1.746  31.701  0.00  0.00    -0.269 OA
ENDROOT
BRANCH   2   4
ATOM      4  C   UNL A   1     -25.305  -0.267  28.824  0.00  0.00    +0.058 A 
ATOM      5  C   UNL A   1     -26.615  -0.041  28.535  0.00  0.00    +0.015 A 
ATOM      6  C   UNL A   1     -26.997   0.822  27.538  0.00  0.00    +0.007 A 
ATOM      7  C   UNL A   1     -25.986   1.515  26.851  0.00  0.00    +0.068 A 
ATOM      8  C   UNL A   1     -24.319   0.382  28.130  0.00  0.00    +0.014 A 
ATOM      9  C   UNL A   1     -22.922   0.163  28.398  0.00  0.00    +0.001 A 
ATOM     10  C   UNL A   1     -24.652   1.333  27.140  0.00  0.00    +0.007 A 
ATOM     11  C   UNL A   1     -22.040   1.091  27.777  0.00  0.00    +0.000 A 
ATOM     12  C   UNL A   1     -23.679   2.043  26.519  0.00  0.00    +0.000 A 
ATOM     13  C   UNL A   1     -22.360   1.882  26.802  0.00  0.00    +0.000 A 
BRANCH   7  14
ATOM     14  C   UNL A   1     -26.414   2.473  25.823  0.00  0.00    +0.333 C 
ATOM     15  O   UNL A   1     -27.068   2.107  24.813  0.00  0.00    -0.254 OA
ATOM     16  F   UNL A   1     -26.423   3.659  26.118  0.00  0.00    -0.159 F 
ENDBRANCH   7  14
ENDBRANCH   2   4
BRANCH   1  17
ATOM     17  C   UNL A   1     -24.756   0.215  31.478  0.00  0.00    +0.054 A 
ATOM     18  C   UNL A   1     -25.869   0.384  32.236  0.00  0.00    +0.005 A 
ATOM     19  C   UNL A   1     -26.288   1.668  32.841  0.00  0.00    +0.007 A 
ATOM     20  C   UNL A   1     -25.434   2.799  32.619  0.00  0.00    +0.080 A 
ATOM     21  C   UNL A   1     -24.249   2.566  31.887  0.00  0.00    +0.007 A 
ATOM     22  C   UNL A   1     -23.925   1.345  31.355  0.00  0.00    +0.005 A 
BRANCH  20  23
ATOM     23  C   UNL A   1     -25.704   4.089  33.185  0.00  0.00    +0.388 C 
ATOM     24  O   UNL A   1     -25.688   4.388  34.182  0.00  0.00    -0.241 OA
ATOM     25  O   UNL A   1     -25.975   5.064  32.203  0.00  0.00    -0.241 OA
ENDBRANCH  20  23
ENDBRANCH   1  17
BRANCH   2  26
ATOM     26  C   UNL A   1     -24.943  -2.523  29.478  0.00  0.00    +0.058 A 
ATOM     27  C   UNL A   1     -23.888  -3.137  28.810  0.00  0.00    +0.015 A 
ATOM     28  C   UNL A   1     -26.105  -3.340  29.817  0.00  0.00    +0.015 A 
ATOM     29  C   UNL A   1     -26.024  -4.759  29.659  0.00  0.00    +0.001 A 
ATOM     30  C   UNL A   1     -23.930  -4.537  28.566  0.00  0.00    +0.001 A 
ATOM     31  C   UNL A   1     -25.012  -5.289  28.942  0.00  0.00    +0.000 A 
ENDBRANCH   2  26
TORSDOF 5
ENDMDL
ENDMDL
