MODEL 1954
MODEL 1
REMARK VINA RESULT:    -4.341      0.000      0.000
REMARK INTER + INTRA:          -4.341
REMARK INTER:                  -4.341
REMARK INTRA:                   0.000
REMARK UNBOUND:                 0.000
REMARK  Name = No_1954-gen_results/8p0m/2024-11-26-14-13-15/
REMARK  0 active torsions:
REMARK  status: ('A' for Active; 'I' for Inactive)
REMARK                            x       y       z     vdW  Elec       q    Type
REMARK                         _______ _______ _______ _____ _____    ______ ____
ROOT
ATOM      1  C   UNL A   1     -24.935  -5.346  28.994  0.00  0.00    +0.000 A 
ATOM      2  C   UNL A   1     -24.184  -4.677  28.679  0.00  0.00    +0.000 A 
ATOM      3  C   UNL A   1     -26.100  -4.679  29.588  0.00  0.00    +0.000 A 
ATOM      4  C   UNL A   1     -26.115  -3.374  29.865  0.00  0.00    +0.000 A 
ATOM      5  C   UNL A   1     -23.971  -3.264  28.883  0.00  0.00    +0.000 A 
ATOM      6  C   UNL A   1     -25.054  -2.667  29.458  0.00  0.00    +0.000 A 
ENDROOT
TORSDOF 0
ENDMDL
ENDMDL
