MODEL 1955
MODEL 1
REMARK VINA RESULT:    -6.663      0.000      0.000
REMARK INTER + INTRA:          -7.965
REMARK INTER:                  -7.442
REMARK INTRA:                  -0.523
REMARK UNBOUND:                -0.523
REMARK  Name = No_1955-gen_results/8p0m/2024-11-26-14-13-15/
REMARK  2 active torsions:
REMARK  status: ('A' for Active; 'I' for Inactive)
REMARK    1  A    between atoms: C_1  and  C_3
REMARK    2  A    between atoms: C_7  and  C_13
REMARK                            x       y       z     vdW  Elec       q    Type
REMARK                         _______ _______ _______ _____ _____    ______ ____
ROOT
ATOM      1  C   UNL A   1     -24.327  -1.448  29.241  0.00  0.00    +0.000 A 
ATOM      2  C   UNL A   1     -23.042  -0.915  29.618  0.00  0.00    +0.000 A 
ATOM      3  C   UNL A   1     -22.371  -0.302  28.793  0.00  0.00    +0.002 A 
ATOM      4  C   UNL A   1     -22.966   0.674  27.879  0.00  0.00    +0.021 A 
ATOM      5  C   UNL A   1     -24.340   0.415  27.632  0.00  0.00    +0.002 A 
ATOM      6  C   UNL A   1     -24.970  -0.647  28.259  0.00  0.00    +0.000 A 
ENDROOT
BRANCH   1   7
ATOM      7  C   UNL A   1     -24.734  -2.904  29.263  0.00  0.00    +0.000 A 
ATOM      8  C   UNL A   1     -25.712  -3.096  29.606  0.00  0.00    +0.000 A 
ATOM      9  C   UNL A   1     -26.238  -4.530  29.671  0.00  0.00    +0.000 A 
ATOM     10  C   UNL A   1     -25.320  -5.385  29.248  0.00  0.00    +0.000 A 
ATOM     11  C   UNL A   1     -24.206  -5.045  28.588  0.00  0.00    +0.000 A 
ATOM     12  C   UNL A   1     -23.856  -3.731  28.555  0.00  0.00    +0.000 A 
ENDBRANCH   1   7
BRANCH   4  13
ATOM     13  C   UNL A   1     -22.219   1.742  27.266  0.00  0.00    +0.122 C 
ATOM     14  N   UNL A   1     -22.628   2.236  26.056  0.00  0.00    -0.146 NA
ENDBRANCH   4  13
TORSDOF 2
ENDMDL
ENDMDL
