REMARK  Name = No_1955-gen_results/8p0m/2024-11-26-14-13-15/
REMARK  2 active torsions:
REMARK  status: ('A' for Active; 'I' for Inactive)
REMARK    1  A    between atoms: C_1  and  C_3
REMARK    2  A    between atoms: C_7  and  C_13
REMARK                            x       y       z     vdW  Elec       q    Type
REMARK                         _______ _______ _______ _____ _____    ______ ____
ROOT
ATOM      1  C   UNL A   1     -26.504  -0.778  28.877  0.00  0.00    +0.000 A 
ATOM      2  C   UNL A   1     -25.654  -0.660  27.719  0.00  0.00    +0.000 A 
ATOM      3  C   UNL A   1     -24.893   0.297  27.617  0.00  0.00    +0.002 A 
ATOM      4  C   UNL A   1     -24.111   0.792  28.751  0.00  0.00    +0.021 A 
ATOM      5  C   UNL A   1     -24.719   0.492  29.998  0.00  0.00    +0.002 A 
ATOM      6  C   UNL A   1     -25.903  -0.223  30.039  0.00  0.00    +0.000 A 
ENDROOT
BRANCH   1   7
ATOM      7  C   UNL A   1     -28.016  -0.814  28.878  0.00  0.00    +0.000 A 
ATOM      8  C   UNL A   1     -28.469  -0.785  29.829  0.00  0.00    +0.000 A 
ATOM      9  C   UNL A   1     -29.992  -0.813  29.958  0.00  0.00    +0.000 A 
ATOM     10  C   UNL A   1     -30.562  -0.866  28.764  0.00  0.00    +0.000 A 
ATOM     11  C   UNL A   1     -29.931  -0.637  27.605  0.00  0.00    +0.000 A 
ATOM     12  C   UNL A   1     -28.572  -0.586  27.615  0.00  0.00    +0.000 A 
ENDBRANCH   1   7
BRANCH   4  13
ATOM     13  C   UNL A   1     -22.890   1.541  28.602  0.00  0.00    +0.122 C 
ATOM     14  N   UNL A   1     -22.535   2.002  27.361  0.00  0.00    -0.146 NA
ENDBRANCH   4  13
TORSDOF 2
