REMARK  Name = No_1956-gen_results/8p0m/2024-11-26-14-13-15/
REMARK  4 active torsions:
REMARK  status: ('A' for Active; 'I' for Inactive)
REMARK    1  A    between atoms: N_4  and  C_6
REMARK    2  A    between atoms: C_6  and  C_10
REMARK    3  A    between atoms: C_10  and  C_11
REMARK    4  A    between atoms: C_11  and  C_12
REMARK                            x       y       z     vdW  Elec       q    Type
REMARK                         _______ _______ _______ _____ _____    ______ ____
ROOT
ATOM      1  C   UNL A   1     -26.884  -0.458  26.233  0.00  0.00    +0.094 C 
ENDROOT
BRANCH   1   5
ATOM      2  O   UNL A   1     -28.123  -1.335  28.487  0.00  0.00    -0.272 OA
ATOM      3  C   UNL A   1     -27.481  -0.404  28.709  0.00  0.00    +0.258 C 
ATOM      4  C   UNL A   1     -27.190   0.246  29.527  0.00  0.00    +0.236 C 
ATOM      5  N   UNL A   1     -26.687  -0.000  27.442  0.00  0.00    -0.277 N 
ATOM      6  F   UNL A   1     -27.878   0.030  30.668  0.00  0.00    -0.227 F 
ATOM      7  C   UNL A   1     -26.228   1.391  29.815  0.00  0.00    +0.047 C 
ATOM      8  C   UNL A   1     -25.568   1.888  28.721  0.00  0.00    +0.025 C 
ATOM      9  C   UNL A   1     -25.674   1.119  27.462  0.00  0.00    +0.094 C 
ENDBRANCH   1   5
BRANCH   1  10
ATOM     10  C   UNL A   1     -27.645   0.347  25.365  0.00  0.00    +0.026 C 
BRANCH  10  11
ATOM     11  C   UNL A   1     -28.950   0.572  25.716  0.00  0.00    +0.028 C 
BRANCH  11  12
ATOM     12  C   UNL A   1     -29.702   1.344  24.783  0.00  0.00    -0.022 A 
ATOM     13  C   UNL A   1     -31.058   1.677  25.069  0.00  0.00    -0.004 A 
ATOM     14  C   UNL A   1     -31.997   1.461  24.169  0.00  0.00    -0.000 A 
ATOM     15  C   UNL A   1     -31.587   1.514  22.741  0.00  0.00    -0.000 A 
ATOM     16  C   UNL A   1     -30.253   1.370  22.509  0.00  0.00    -0.000 A 
ATOM     17  C   UNL A   1     -29.298   1.204  23.526  0.00  0.00    -0.004 A 
ENDBRANCH  11  12
ENDBRANCH  10  11
ENDBRANCH   1  10
TORSDOF 4
