MODEL 1956
MODEL 1
REMARK VINA RESULT:    -6.606      0.000      0.000
REMARK INTER + INTRA:          -8.730
REMARK INTER:                  -8.151
REMARK INTRA:                  -0.579
REMARK UNBOUND:                -0.579
REMARK  Name = No_1956-gen_results/8p0m/2024-11-26-14-13-15/
REMARK  4 active torsions:
REMARK  status: ('A' for Active; 'I' for Inactive)
REMARK    1  A    between atoms: N_4  and  C_6
REMARK    2  A    between atoms: C_6  and  C_10
REMARK    3  A    between atoms: C_10  and  C_11
REMARK    4  A    between atoms: C_11  and  C_12
REMARK                            x       y       z     vdW  Elec       q    Type
REMARK                         _______ _______ _______ _____ _____    ______ ____
ROOT
ATOM      1  C   UNL A   1     -24.291   0.381  30.165  0.00  0.00    +0.094 C 
ENDROOT
BRANCH   1   5
ATOM      2  O   UNL A   1     -24.636   2.296  28.268  0.00  0.00    -0.272 OA
ATOM      3  C   UNL A   1     -23.608   1.788  28.154  0.00  0.00    +0.258 C 
ATOM      4  C   UNL A   1     -22.712   1.822  27.544  0.00  0.00    +0.236 C 
ATOM      5  N   UNL A   1     -23.382   0.793  29.319  0.00  0.00    -0.277 N 
ATOM      6  F   UNL A   1     -22.825   2.607  26.451  0.00  0.00    -0.227 F 
ATOM      7  C   UNL A   1     -21.311   1.228  27.504  0.00  0.00    +0.047 C 
ATOM      8  C   UNL A   1     -21.065   0.250  28.433  0.00  0.00    +0.025 C 
ATOM      9  C   UNL A   1     -22.074   0.061  29.497  0.00  0.00    +0.094 C 
ENDBRANCH   1   5
BRANCH   1  10
ATOM     10  C   UNL A   1     -24.083  -0.879  30.757  0.00  0.00    +0.026 C 
BRANCH  10  11
ATOM     11  C   UNL A   1     -25.173  -1.703  30.855  0.00  0.00    +0.028 C 
BRANCH  11  12
ATOM     12  C   UNL A   1     -25.291  -2.675  29.820  0.00  0.00    -0.022 A 
ATOM     13  C   UNL A   1     -26.396  -3.575  29.815  0.00  0.00    -0.004 A 
ATOM     14  C   UNL A   1     -26.195  -4.871  29.678  0.00  0.00    -0.000 A 
ATOM     15  C   UNL A   1     -24.996  -5.288  28.905  0.00  0.00    -0.000 A 
ATOM     16  C   UNL A   1     -24.026  -4.342  28.773  0.00  0.00    -0.000 A 
ATOM     17  C   UNL A   1     -24.127  -3.043  29.298  0.00  0.00    -0.004 A 
ENDBRANCH  11  12
ENDBRANCH  10  11
ENDBRANCH   1  10
TORSDOF 4
ENDMDL
ENDMDL
