MODEL 1957
MODEL 1
REMARK VINA RESULT:    -4.351      0.000      0.000
REMARK INTER + INTRA:          -4.351
REMARK INTER:                  -4.351
REMARK INTRA:                   0.000
REMARK UNBOUND:                 0.000
REMARK  Name = No_1957-gen_results/8p0m/2024-11-26-14-13-15/
REMARK  0 active torsions:
REMARK  status: ('A' for Active; 'I' for Inactive)
REMARK                            x       y       z     vdW  Elec       q    Type
REMARK                         _______ _______ _______ _____ _____    ______ ____
ROOT
ATOM      1  C   UNL A   1     -24.126  -4.862  28.572  0.00  0.00    +0.000 A 
ATOM      2  C   UNL A   1     -24.971  -5.285  29.037  0.00  0.00    +0.000 A 
ATOM      3  C   UNL A   1     -24.036  -3.406  28.735  0.00  0.00    +0.000 A 
ATOM      4  C   UNL A   1     -25.025  -2.682  29.261  0.00  0.00    +0.000 A 
ATOM      5  C   UNL A   1     -26.157  -4.720  29.633  0.00  0.00    +0.000 A 
ATOM      6  C   UNL A   1     -26.066  -3.365  29.753  0.00  0.00    +0.000 A 
ENDROOT
TORSDOF 0
ENDMDL
ENDMDL
