MODEL 1958
MODEL 1
REMARK VINA RESULT:    -7.574      0.000      0.000
REMARK INTER + INTRA:         -12.084
REMARK INTER:                 -10.231
REMARK INTRA:                  -1.854
REMARK UNBOUND:                -1.854
REMARK  Name = No_1958-gen_results/8p0m/2024-11-26-14-13-15/
REMARK  6 active torsions:
REMARK  status: ('A' for Active; 'I' for Inactive)
REMARK    1  A    between atoms: C_3  and  C_4
REMARK    2  A    between atoms: C_4  and  C_8
REMARK    3  A    between atoms: C_8  and  C_14
REMARK    4  A    between atoms: C_9  and  C_10
REMARK    5  A    between atoms: C_11  and  C_12
REMARK    6  A    between atoms: C_13  and  C_20
REMARK                            x       y       z     vdW  Elec       q    Type
REMARK                         _______ _______ _______ _____ _____    ______ ____
ROOT
ATOM      1  C   UNL A   1     -24.907  -1.049  28.924  0.00  0.00    -0.018 C 
ATOM      2  C   UNL A   1     -24.644  -0.563  27.731  0.00  0.00    -0.004 C 
ENDROOT
BRANCH   1   3
ATOM      3  C   UNL A   1     -24.995  -2.470  29.053  0.00  0.00    -0.004 A 
ATOM      4  C   UNL A   1     -26.143  -3.087  29.570  0.00  0.00    -0.000 A 
ATOM      5  C   UNL A   1     -26.283  -4.454  29.678  0.00  0.00    -0.000 A 
ATOM      6  C   UNL A   1     -25.310  -5.291  29.186  0.00  0.00    -0.000 A 
ATOM      7  C   UNL A   1     -24.138  -4.758  28.648  0.00  0.00    -0.000 A 
ATOM      8  C   UNL A   1     -23.960  -3.390  28.539  0.00  0.00    -0.000 A 
ENDBRANCH   1   3
BRANCH   2   9
ATOM      9  C   UNL A   1     -25.334  -0.424  26.703  0.00  0.00    -0.000 C 
ATOM     10  C   UNL A   1     -25.244   0.617  25.825  0.00  0.00    -0.000 C 
BRANCH  10  11
ATOM     11  C   UNL A   1     -24.774   1.744  26.266  0.00  0.00    -0.005 C 
ATOM     12  C   UNL A   1     -23.342   2.104  25.950  0.00  0.00    -0.026 C 
BRANCH  12  13
ATOM     13  C   UNL A   1     -22.671   2.159  27.221  0.00  0.00    +0.026 C 
ATOM     14  C   UNL A   1     -21.500   1.518  27.436  0.00  0.00    +0.005 C 
ENDBRANCH  12  13
ENDBRANCH  10  11
ENDBRANCH   2   9
BRANCH   1  15
ATOM     15  C   UNL A   1     -25.229  -0.236  30.016  0.00  0.00    +0.053 C 
BRANCH  15  18
ATOM     16  C   UNL A   1     -23.269  -0.905  31.623  0.00  0.00    -0.004 A 
ATOM     17  C   UNL A   1     -23.063  -1.191  32.616  0.00  0.00    -0.000 A 
ATOM     18  C   UNL A   1     -24.659  -0.524  31.323  0.00  0.00    -0.018 A 
ATOM     19  C   UNL A   1     -23.869  -1.093  33.856  0.00  0.00    -0.000 A 
ATOM     20  C   UNL A   1     -25.197  -0.731  33.657  0.00  0.00    -0.000 A 
ATOM     21  C   UNL A   1     -25.651  -0.405  32.397  0.00  0.00    -0.004 A 
ENDBRANCH  15  18
ENDBRANCH   1  15
TORSDOF 6
ENDMDL
ENDMDL
