REMARK  Name = No_1958-gen_results/8p0m/2024-11-26-14-13-15/
REMARK  6 active torsions:
REMARK  status: ('A' for Active; 'I' for Inactive)
REMARK    1  A    between atoms: C_3  and  C_4
REMARK    2  A    between atoms: C_4  and  C_8
REMARK    3  A    between atoms: C_8  and  C_14
REMARK    4  A    between atoms: C_9  and  C_10
REMARK    5  A    between atoms: C_11  and  C_12
REMARK    6  A    between atoms: C_13  and  C_20
REMARK                            x       y       z     vdW  Elec       q    Type
REMARK                         _______ _______ _______ _____ _____    ______ ____
ROOT
ATOM      1  C   UNL A   1     -25.898   0.239  26.745  0.00  0.00    -0.018 C 
ATOM      2  C   UNL A   1     -24.926   0.763  26.032  0.00  0.00    -0.004 C 
ENDROOT
BRANCH   1   3
ATOM      3  C   UNL A   1     -27.191   0.838  26.640  0.00  0.00    -0.004 A 
ATOM      4  C   UNL A   1     -28.090   0.465  25.631  0.00  0.00    -0.000 A 
ATOM      5  C   UNL A   1     -29.359   0.992  25.516  0.00  0.00    -0.000 A 
ATOM      6  C   UNL A   1     -29.836   1.862  26.467  0.00  0.00    -0.000 A 
ATOM      7  C   UNL A   1     -29.008   2.279  27.509  0.00  0.00    -0.000 A 
ATOM      8  C   UNL A   1     -27.724   1.781  27.645  0.00  0.00    -0.000 A 
ENDBRANCH   1   3
BRANCH   2   9
ATOM      9  C   UNL A   1     -24.247   1.800  26.160  0.00  0.00    -0.000 C 
ATOM     10  C   UNL A   1     -23.472   2.110  27.239  0.00  0.00    -0.000 C 
BRANCH  10  11
ATOM     11  C   UNL A   1     -23.776   1.570  28.380  0.00  0.00    -0.005 C 
ATOM     12  C   UNL A   1     -22.752   1.597  29.489  0.00  0.00    -0.026 C 
BRANCH  12  13
ATOM     13  C   UNL A   1     -22.427   0.220  29.746  0.00  0.00    +0.026 C 
ATOM     14  C   UNL A   1     -22.205  -0.659  28.743  0.00  0.00    +0.005 C 
ENDBRANCH  12  13
ENDBRANCH  10  11
ENDBRANCH   2   9
BRANCH   1  15
ATOM     15  C   UNL A   1     -25.683  -0.777  27.683  0.00  0.00    +0.053 C 
BRANCH  15  18
ATOM     16  C   UNL A   1     -28.016  -0.814  28.878  0.00  0.00    -0.004 A 
ATOM     17  C   UNL A   1     -28.469  -0.785  29.829  0.00  0.00    -0.000 A 
ATOM     18  C   UNL A   1     -26.546  -0.876  28.850  0.00  0.00    -0.018 A 
ATOM     19  C   UNL A   1     -27.918  -1.003  31.188  0.00  0.00    -0.000 A 
ATOM     20  C   UNL A   1     -26.531  -1.079  31.246  0.00  0.00    -0.000 A 
ATOM     21  C   UNL A   1     -25.780  -1.046  30.090  0.00  0.00    -0.004 A 
ENDBRANCH  15  18
ENDBRANCH   1  15
TORSDOF 6
