MODEL 1959
MODEL 1
REMARK VINA RESULT:    -6.606      0.000      0.000
REMARK INTER + INTRA:          -7.346
REMARK INTER:                  -6.992
REMARK INTRA:                  -0.354
REMARK UNBOUND:                -0.354
REMARK  Name = No_1959-gen_results/8p0m/2024-11-26-14-13-15/
REMARK  1 active torsions:
REMARK  status: ('A' for Active; 'I' for Inactive)
REMARK    1  A    between atoms: C_2  and  C_7
REMARK                            x       y       z     vdW  Elec       q    Type
REMARK                         _______ _______ _______ _____ _____    ______ ____
ROOT
ATOM      1  C   UNL A   1     -25.616  -2.538  29.559  0.00  0.00    +0.000 A 
ATOM      2  C   UNL A   1     -24.519  -2.646  29.061  0.00  0.00    +0.000 A 
ATOM      3  C   UNL A   1     -24.013  -3.891  28.703  0.00  0.00    +0.000 A 
ATOM      4  C   UNL A   1     -24.760  -5.096  28.956  0.00  0.00    +0.000 A 
ATOM      5  C   UNL A   1     -26.008  -4.881  29.556  0.00  0.00    +0.000 A 
ATOM      6  C   UNL A   1     -26.434  -3.684  29.891  0.00  0.00    +0.000 A 
ENDROOT
BRANCH   2   7
ATOM      7  C   UNL A   1     -23.601  -1.517  28.754  0.00  0.00    +0.000 A 
ATOM      8  C   UNL A   1     -22.671  -1.277  29.105  0.00  0.00    +0.000 A 
ATOM      9  C   UNL A   1     -21.804  -0.069  28.843  0.00  0.00    +0.000 A 
ATOM     10  C   UNL A   1     -22.336   0.928  28.048  0.00  0.00    +0.000 A 
ATOM     11  C   UNL A   1     -23.635   0.774  27.558  0.00  0.00    +0.000 A 
ATOM     12  C   UNL A   1     -24.316  -0.375  27.834  0.00  0.00    +0.000 A 
ENDBRANCH   2   7
TORSDOF 1
ENDMDL
ENDMDL
