REMARK  Name = No_1960-gen_results/8p0m/2024-11-26-14-13-15/
REMARK  2 active torsions:
REMARK  status: ('A' for Active; 'I' for Inactive)
REMARK    1  A    between atoms: N_4  and  C_5
REMARK    2  A    between atoms: C_5  and  C_6
REMARK                            x       y       z     vdW  Elec       q    Type
REMARK                         _______ _______ _______ _____ _____    ______ ____
ROOT
ATOM      1  O   UNL A   1     -28.123  -1.335  28.487  0.00  0.00    -0.255 OA
ATOM      2  C   UNL A   1     -27.481  -0.404  28.709  0.00  0.00    +0.326 C 
ATOM      3 CL   UNL A   1     -26.324   0.061  27.974  0.00  0.00    -0.021 Cl
ATOM      4  N   UNL A   1     -27.766   0.370  29.953  0.00  0.00    -0.187 NA
ENDROOT
BRANCH   4   5
ATOM      5  C   UNL A   1     -27.056   1.519  30.330  0.00  0.00    +0.142 C 
BRANCH   5   6
ATOM      6  C   UNL A   1     -25.882   1.705  30.294  0.00  0.00    -0.003 C 
ATOM      7  C   UNL A   1     -24.945   1.456  29.125  0.00  0.00    -0.003 C 
ENDBRANCH   5   6
ENDBRANCH   4   5
TORSDOF 2
