MODEL 1961
MODEL 1
REMARK VINA RESULT:    -5.418      0.000      0.000
REMARK INTER + INTRA:          -6.311
REMARK INTER:                  -6.051
REMARK INTRA:                  -0.260
REMARK UNBOUND:                -0.260
REMARK  Name = No_1961-gen_results/8p0m/2024-11-26-14-13-15/
REMARK  2 active torsions:
REMARK  status: ('A' for Active; 'I' for Inactive)
REMARK    1  A    between atoms: C_1  and  C_8
REMARK    2  A    between atoms: C_5  and  C_10
REMARK                            x       y       z     vdW  Elec       q    Type
REMARK                         _______ _______ _______ _____ _____    ______ ____
ROOT
ATOM      1  C   UNL A   1     -24.347   3.281  25.971  0.00  0.00    +0.001 C 
ATOM      2  C   UNL A   1     -23.870   2.465  26.726  0.00  0.00    -0.046 C 
ATOM      3  C   UNL A   1     -22.516   2.258  26.924  0.00  0.00    +0.022 C 
ATOM      4  C   UNL A   1     -21.920   1.240  27.756  0.00  0.00    +0.013 C 
ATOM      5  C   UNL A   1     -22.525   0.438  28.174  0.00  0.00    +0.096 C 
ATOM      6  C   UNL A   1     -24.002   0.372  28.150  0.00  0.00    +0.013 C 
ATOM      7  C   UNL A   1     -24.557   1.364  27.381  0.00  0.00    +0.022 C 
ENDROOT
BRANCH   5   8
ATOM      8  C   UNL A   1     -22.010  -0.728  29.138  0.00  0.00    +0.398 C 
ATOM      9  F   UNL A   1     -21.990  -0.388  30.309  0.00  0.00    -0.170 F 
ATOM     10  F   UNL A   1     -22.702  -1.890  29.001  0.00  0.00    -0.170 F 
ATOM     11  F   UNL A   1     -20.688  -1.114  28.886  0.00  0.00    -0.170 F 
ENDBRANCH   5   8
BRANCH   1  12
ATOM     12  C   UNL A   1     -25.234   4.308  26.698  0.00  0.00    +0.208 C 
ATOM     13  O   UNL A   1     -24.676   5.042  27.635  0.00  0.00    -0.215 OA
ENDBRANCH   1  12
TORSDOF 2
ENDMDL
ENDMDL
