REMARK  Name = No_1961-gen_results/8p0m/2024-11-26-14-13-15/
REMARK  2 active torsions:
REMARK  status: ('A' for Active; 'I' for Inactive)
REMARK    1  A    between atoms: C_1  and  C_8
REMARK    2  A    between atoms: C_5  and  C_10
REMARK                            x       y       z     vdW  Elec       q    Type
REMARK                         _______ _______ _______ _____ _____    ______ ____
ROOT
ATOM      1  C   UNL A   1     -28.016  -0.814  28.878  0.00  0.00    +0.001 C 
ATOM      2  C   UNL A   1     -27.064  -0.119  28.608  0.00  0.00    -0.046 C 
ATOM      3  C   UNL A   1     -26.972   0.714  27.506  0.00  0.00    +0.022 C 
ATOM      4  C   UNL A   1     -25.820   1.491  27.116  0.00  0.00    +0.013 C 
ATOM      5  C   UNL A   1     -24.858   1.342  27.601  0.00  0.00    +0.096 C 
ATOM      6  C   UNL A   1     -24.622   0.529  28.814  0.00  0.00    +0.013 C 
ATOM      7  C   UNL A   1     -25.734  -0.181  29.191  0.00  0.00    +0.022 C 
ENDROOT
BRANCH   5   8
ATOM      8  C   UNL A   1     -23.514   2.153  27.301  0.00  0.00    +0.398 C 
ATOM      9  F   UNL A   1     -23.496   2.622  26.175  0.00  0.00    -0.170 F 
ATOM     10  F   UNL A   1     -23.250   3.123  28.215  0.00  0.00    -0.170 F 
ATOM     11  F   UNL A   1     -22.363   1.356  27.342  0.00  0.00    -0.170 F 
ENDBRANCH   5   8
BRANCH   1  12
ATOM     12  C   UNL A   1     -28.633  -0.462  30.245  0.00  0.00    +0.208 C 
ATOM     13  O   UNL A   1     -29.491  -1.311  30.764  0.00  0.00    -0.215 OA
ENDBRANCH   1  12
TORSDOF 2
