REMARK  Name = No_1962-gen_results/8p0m/2024-11-26-14-13-15/
REMARK  3 active torsions:
REMARK  status: ('A' for Active; 'I' for Inactive)
REMARK    1  A    between atoms: C_3  and  C_4
REMARK    2  A    between atoms: C_4  and  N_8
REMARK    3  A    between atoms: C_4  and  C_14
REMARK                            x       y       z     vdW  Elec       q    Type
REMARK                         _______ _______ _______ _____ _____    ______ ____
ROOT
ATOM      1  C   UNL A   1     -26.252   0.411  27.422  0.00  0.00    +0.103 C 
ENDROOT
BRANCH   1   4
ATOM      2  C   UNL A   1     -28.016  -0.814  28.878  0.00  0.00    -0.002 A 
ATOM      3  C   UNL A   1     -28.469  -0.785  29.829  0.00  0.00    -0.000 A 
ATOM      4  C   UNL A   1     -27.087   0.290  28.638  0.00  0.00    +0.007 A 
ATOM      5  C   UNL A   1     -28.314  -0.127  30.710  0.00  0.00    +0.001 A 
ATOM      6  C   UNL A   1     -27.483   1.008  30.810  0.00  0.00    +0.011 A 
ATOM      7  C   UNL A   1     -26.777   1.172  29.687  0.00  0.00    +0.055 A 
ATOM      8 CL   UNL A   1     -25.706   2.447  29.520  0.00  0.00    -0.083 Cl
ENDBRANCH   1   4
BRANCH   1   9
ATOM      9  N   UNL A   1     -25.045   0.258  27.585  0.00  0.00    -0.268 NA
ATOM     10  C   UNL A   1     -24.087   1.160  27.031  0.00  0.00    +0.058 C 
ATOM     11  C   UNL A   1     -22.725   1.127  27.561  0.00  0.00    +0.016 C 
ATOM     12  C   UNL A   1     -22.408   0.098  28.459  0.00  0.00    +0.003 C 
ATOM     13  C   UNL A   1     -23.372  -0.789  28.924  0.00  0.00    +0.017 C 
ATOM     14  C   UNL A   1     -24.620  -0.707  28.512  0.00  0.00    +0.073 C 
ATOM     15  C   UNL A   1     -24.409   2.195  26.143  0.00  0.00    +0.017 C 
ENDBRANCH   1   9
BRANCH   1  16
ATOM     16  C   UNL A   1     -26.867   0.591  26.164  0.00  0.00    -0.006 C 
ATOM     17  C   UNL A   1     -27.776   0.245  25.828  0.00  0.00    -0.003 C 
ENDBRANCH   1  16
TORSDOF 3
