REMARK  Name = No_1963-gen_results/8p0m/2024-11-26-14-13-15/
REMARK  3 active torsions:
REMARK  status: ('A' for Active; 'I' for Inactive)
REMARK    1  A    between atoms: C_4  and  C_14
REMARK    2  A    between atoms: C_5  and  C_6
REMARK    3  A    between atoms: C_7  and  C_8
REMARK                            x       y       z     vdW  Elec       q    Type
REMARK                         _______ _______ _______ _____ _____    ______ ____
ROOT
ATOM      1  C   UNL A   1     -28.016  -0.814  28.878  0.00  0.00    -0.018 A 
ATOM      2  C   UNL A   1     -28.469  -0.785  29.829  0.00  0.00    -0.004 A 
ATOM      3  C   UNL A   1     -28.182   0.428  28.113  0.00  0.00    +0.060 C 
ATOM      4  C   UNL A   1     -27.450   0.643  26.850  0.00  0.00    +0.073 C 
ATOM      5  C   UNL A   1     -26.453   0.994  26.668  0.00  0.00    +0.140 C 
ATOM      6  C   UNL A   1     -28.245  -1.966  30.856  0.00  0.00    -0.000 A 
ATOM      7  C   UNL A   1     -27.499  -2.979  30.329  0.00  0.00    -0.000 A 
ATOM      8  C   UNL A   1     -26.641  -2.834  29.323  0.00  0.00    -0.001 A 
ATOM      9  C   UNL A   1     -26.862  -1.642  28.571  0.00  0.00    +0.018 A 
ATOM     10  C   UNL A   1     -26.023  -0.793  28.054  0.00  0.00    +0.232 C 
ATOM     11  O   UNL A   1     -26.115  -0.455  26.981  0.00  0.00    -0.471 OA
ENDROOT
BRANCH   4  12
ATOM     12  C   UNL A   1     -28.416   0.351  25.715  0.00  0.00    +0.283 C 
ATOM     13  O   UNL A   1     -29.553   0.120  25.804  0.00  0.00    -0.267 OA
ATOM     14  N   UNL A   1     -27.934   0.680  24.455  0.00  0.00    -0.084 NA
ENDBRANCH   4  12
BRANCH   5  15
ATOM     15  C   UNL A   1     -25.585   1.733  27.347  0.00  0.00    +0.037 C 
ATOM     16  C   UNL A   1     -24.565   1.648  27.844  0.00  0.00    +0.003 C 
BRANCH  16  17
ATOM     17  C   UNL A   1     -23.843   0.474  28.066  0.00  0.00    +0.000 A 
ATOM     18  C   UNL A   1     -22.558   0.369  28.673  0.00  0.00    +0.000 A 
ATOM     19  C   UNL A   1     -22.327  -0.587  29.615  0.00  0.00    +0.000 A 
ATOM     20  C   UNL A   1     -23.265  -1.672  29.691  0.00  0.00    +0.000 A 
ATOM     21  C   UNL A   1     -24.122  -1.966  28.732  0.00  0.00    +0.000 A 
ATOM     22  C   UNL A   1     -24.663  -0.704  28.186  0.00  0.00    +0.000 A 
ENDBRANCH  16  17
ENDBRANCH   5  15
TORSDOF 3
