MODEL 1963
MODEL 1
REMARK VINA RESULT:    -7.963      0.000      0.000
REMARK INTER + INTRA:          -9.790
REMARK INTER:                  -9.360
REMARK INTRA:                  -0.430
REMARK UNBOUND:                -0.430
REMARK  Name = No_1963-gen_results/8p0m/2024-11-26-14-13-15/
REMARK  3 active torsions:
REMARK  status: ('A' for Active; 'I' for Inactive)
REMARK    1  A    between atoms: C_4  and  C_14
REMARK    2  A    between atoms: C_5  and  C_6
REMARK    3  A    between atoms: C_7  and  C_8
REMARK                            x       y       z     vdW  Elec       q    Type
REMARK                         _______ _______ _______ _____ _____    ______ ____
ROOT
ATOM      1  C   UNL A   1     -24.309  -2.936  29.287  0.00  0.00    -0.018 A 
ATOM      2  C   UNL A   1     -23.826  -3.660  28.693  0.00  0.00    -0.004 A 
ATOM      3  C   UNL A   1     -23.753  -1.586  29.131  0.00  0.00    +0.060 C 
ATOM      4  C   UNL A   1     -24.425  -0.416  29.727  0.00  0.00    +0.073 C 
ATOM      5  C   UNL A   1     -25.241   0.182  29.370  0.00  0.00    +0.140 C 
ATOM      6  C   UNL A   1     -24.401  -5.130  28.603  0.00  0.00    -0.000 A 
ATOM      7  C   UNL A   1     -25.484  -5.315  29.411  0.00  0.00    -0.000 A 
ATOM      8  C   UNL A   1     -26.286  -4.339  29.827  0.00  0.00    -0.001 A 
ATOM      9  C   UNL A   1     -25.695  -3.046  29.707  0.00  0.00    +0.018 A 
ATOM     10  C   UNL A   1     -26.204  -1.908  29.333  0.00  0.00    +0.232 C 
ATOM     11  O   UNL A   1     -26.054  -0.969  29.941  0.00  0.00    -0.471 OA
ENDROOT
BRANCH   4  12
ATOM     12  C   UNL A   1     -23.686  -0.078  31.010  0.00  0.00    +0.283 C 
ATOM     13  O   UNL A   1     -22.732  -0.597  31.427  0.00  0.00    -0.267 OA
ATOM     14  N   UNL A   1     -24.033   1.147  31.565  0.00  0.00    -0.084 NA
ENDBRANCH   4  12
BRANCH   5  15
ATOM     15  C   UNL A   1     -25.754   0.443  28.175  0.00  0.00    +0.037 C 
ATOM     16  C   UNL A   1     -25.473   0.947  27.194  0.00  0.00    +0.003 C 
BRANCH  16  17
ATOM     17  C   UNL A   1     -24.342   1.729  26.955  0.00  0.00    +0.000 A 
ATOM     18  C   UNL A   1     -23.279   1.988  27.869  0.00  0.00    +0.000 A 
ATOM     19  C   UNL A   1     -21.986   1.905  27.449  0.00  0.00    +0.000 A 
ATOM     20  C   UNL A   1     -21.755   1.921  26.031  0.00  0.00    +0.000 A 
ATOM     21  C   UNL A   1     -22.650   2.324  25.150  0.00  0.00    +0.000 A 
ATOM     22  C   UNL A   1     -23.975   1.819  25.565  0.00  0.00    +0.000 A 
ENDBRANCH  16  17
ENDBRANCH   5  15
TORSDOF 3
ENDMDL
ENDMDL
