MODEL 1964
MODEL 1
REMARK VINA RESULT:    -7.251      0.000      0.000
REMARK INTER + INTRA:         -11.573
REMARK INTER:                  -9.371
REMARK INTRA:                  -2.202
REMARK UNBOUND:                -2.202
REMARK  Name = No_1964-gen_results/8p0m/2024-11-26-14-13-15/
REMARK  5 active torsions:
REMARK  status: ('A' for Active; 'I' for Inactive)
REMARK    1  A    between atoms: C_1  and  C_2
REMARK    2  A    between atoms: C_1  and  N_8
REMARK    3  A    between atoms: C_3  and  C_20
REMARK    4  A    between atoms: C_9  and  C_11
REMARK    5  A    between atoms: C_25  and  C_27
REMARK                            x       y       z     vdW  Elec       q    Type
REMARK                         _______ _______ _______ _____ _____    ______ ____
ROOT
ATOM      1  C   UNL A   1     -23.160   1.917  26.523  0.00  0.00    +0.142 C 
ENDROOT
BRANCH   1   2
ATOM      2  C   UNL A   1     -24.203   2.033  25.922  0.00  0.00    +0.006 A 
ATOM      3  C   UNL A   1     -25.043   3.122  26.051  0.00  0.00    +0.077 A 
ATOM      4  C   UNL A   1     -26.412   3.002  25.824  0.00  0.00    +0.006 A 
ATOM      5  C   UNL A   1     -26.883   1.913  25.377  0.00  0.00    -0.004 A 
ATOM      6  C   UNL A   1     -26.145   0.742  25.158  0.00  0.00    -0.001 A 
ATOM      7  C   UNL A   1     -24.830   0.853  25.551  0.00  0.00    -0.002 A 
ATOM      8  C   UNL A   1     -28.369   1.841  24.865  0.00  0.00    -0.022 A 
ATOM      9  C   UNL A   1     -28.750   0.790  24.001  0.00  0.00    -0.004 A 
ATOM     10  C   UNL A   1     -27.957  -0.351  23.968  0.00  0.00    -0.000 A 
ATOM     11  C   UNL A   1     -26.663  -0.376  24.468  0.00  0.00    -0.000 A 
ATOM     12  C   UNL A   1     -29.194   3.051  24.861  0.00  0.00    +0.031 C 
BRANCH   3  13
ATOM     13  C   UNL A   1     -24.504   4.374  26.662  0.00  0.00    +0.388 C 
ATOM     14  O   UNL A   1     -24.654   4.700  27.741  0.00  0.00    -0.241 OA
ATOM     15  O   UNL A   1     -24.226   5.316  25.777  0.00  0.00    -0.241 OA
ENDBRANCH   3  13
ENDBRANCH   1   2
BRANCH   1  16
ATOM     16  N   UNL A   1     -23.070   0.858  27.373  0.00  0.00    -0.193 NA
ATOM     17  C   UNL A   1     -23.138   0.916  28.725  0.00  0.00    +0.319 C 
ATOM     18  O   UNL A   1     -23.158   1.908  29.312  0.00  0.00    -0.263 OA
BRANCH  17  19
ATOM     19  C   UNL A   1     -23.109  -0.456  29.443  0.00  0.00    +0.304 C 
ATOM     20  O   UNL A   1     -22.391  -0.736  30.245  0.00  0.00    -0.265 OA
ATOM     21  N   UNL A   1     -23.801  -1.411  28.722  0.00  0.00    -0.272 N 
ATOM     22  C   UNL A   1     -23.859  -2.805  29.243  0.00  0.00    +0.094 C 
ATOM     23  C   UNL A   1     -24.746  -3.098  29.664  0.00  0.00    +0.022 C 
ATOM     24  C   UNL A   1     -25.906  -2.525  29.752  0.00  0.00    +0.008 C 
ATOM     25  C   UNL A   1     -26.035  -1.333  29.121  0.00  0.00    +0.042 C 
ATOM     26  C   UNL A   1     -25.276  -0.941  28.740  0.00  0.00    +0.098 C 
BRANCH  25  27
ATOM     27  C   UNL A   1     -27.425  -0.695  29.122  0.00  0.00    -0.029 C 
ATOM     28  C   UNL A   1     -27.844   0.118  28.352  0.00  0.00    -0.030 C 
ATOM     29  C   UNL A   1     -29.130   0.620  28.368  0.00  0.00    +0.030 C 
ENDBRANCH  25  27
ENDBRANCH  17  19
ENDBRANCH   1  16
TORSDOF 5
ENDMDL
ENDMDL
