MODEL 1965
MODEL 1
REMARK VINA RESULT:    -4.375      0.000      0.000
REMARK INTER + INTRA:          -4.375
REMARK INTER:                  -4.375
REMARK INTRA:                   0.000
REMARK UNBOUND:                 0.000
REMARK  Name = No_1965-gen_results/8p0m/2024-11-26-14-13-15/
REMARK  0 active torsions:
REMARK  status: ('A' for Active; 'I' for Inactive)
REMARK                            x       y       z     vdW  Elec       q    Type
REMARK                         _______ _______ _______ _____ _____    ______ ____
ROOT
ATOM      1  C   UNL A   1     -25.355  -2.587  29.770  0.00  0.00    +0.011 A 
ATOM      2  C   UNL A   1     -24.318  -2.896  29.231  0.00  0.00    +0.058 A 
ATOM      3  C   UNL A   1     -24.027  -4.154  28.811  0.00  0.00    +0.011 A 
ATOM      4  C   UNL A   1     -24.987  -5.164  29.012  0.00  0.00    +0.001 A 
ATOM      5  C   UNL A   1     -26.419  -3.547  29.921  0.00  0.00    +0.001 A 
ATOM      6  C   UNL A   1     -26.166  -4.831  29.542  0.00  0.00    +0.000 A 
ATOM      7 CL   UNL A   1     -23.070  -1.721  28.925  0.00  0.00    -0.082 Cl
ENDROOT
TORSDOF 0
ENDMDL
ENDMDL
