MODEL 1966
MODEL 1
REMARK VINA RESULT:    -7.558      0.000      0.000
REMARK INTER + INTRA:          -9.713
REMARK INTER:                  -8.884
REMARK INTRA:                  -0.829
REMARK UNBOUND:                -0.829
REMARK  Name = No_1966-gen_results/8p0m/2024-11-26-14-13-15/
REMARK  3 active torsions:
REMARK  status: ('A' for Active; 'I' for Inactive)
REMARK    1  A    between atoms: C_2  and  N_8
REMARK    2  A    between atoms: N_19  and  C_20
REMARK    3  A    between atoms: C_21  and  C_22
REMARK                            x       y       z     vdW  Elec       q    Type
REMARK                         _______ _______ _______ _____ _____    ______ ____
ROOT
ATOM      1  C   UNL A   1     -25.314   3.637  27.440  0.00  0.00    +0.042 A 
ATOM      2  C   UNL A   1     -25.423   2.977  26.433  0.00  0.00    +0.140 A 
ATOM      3  N   UNL A   1     -26.519   2.881  25.740  0.00  0.00    -0.214 NA
ATOM      4  C   UNL A   1     -26.142   4.611  27.605  0.00  0.00    +0.040 A 
ATOM      5  C   UNL A   1     -27.366   4.716  26.991  0.00  0.00    +0.043 A 
ATOM      6  C   UNL A   1     -27.492   3.841  25.929  0.00  0.00    +0.154 A 
ATOM      7 BR   UNL A   1     -25.835   5.843  29.084  0.00  0.00    -0.049 Br
ATOM      8  N   UNL A   1     -28.663   3.817  25.161  0.00  0.00    -0.193 NA
ENDROOT
BRANCH   2   9
ATOM      9  N   UNL A   1     -24.502   1.923  26.054  0.00  0.00    -0.240 N 
ATOM     10  C   UNL A   1     -23.347   1.596  26.672  0.00  0.00    +0.254 C 
ATOM     11  C   UNL A   1     -23.454   0.509  27.497  0.00  0.00    +0.053 A 
ATOM     12  C   UNL A   1     -24.449  -0.383  27.759  0.00  0.00    +0.003 A 
ATOM     13  C   UNL A   1     -25.678  -0.224  27.108  0.00  0.00    +0.050 C 
ATOM     14  C   UNL A   1     -25.250   0.697  25.623  0.00  0.00    +0.105 C 
ATOM     15  C   UNL A   1     -24.470  -1.354  28.789  0.00  0.00    +0.095 A 
ATOM     16  N   UNL A   1     -23.229  -1.533  29.421  0.00  0.00    -0.243 NA
ATOM     17  C   UNL A   1     -22.271   0.321  28.519  0.00  0.00    +0.025 A 
ATOM     18  C   UNL A   1     -22.252  -0.717  29.376  0.00  0.00    +0.099 A 
ATOM     19  O   UNL A   1     -22.390   2.266  26.367  0.00  0.00    -0.270 OA
ENDBRANCH   2   9
BRANCH   8  20
ATOM     20  C   UNL A   1     -29.169   3.232  24.321  0.00  0.00    +0.087 C 
ATOM     21  C   UNL A   1     -28.726   2.279  23.622  0.00  0.00    +0.018 C 
BRANCH  21  22
ATOM     22  C   UNL A   1     -29.310   0.990  23.512  0.00  0.00    +0.001 A 
ATOM     23  C   UNL A   1     -30.680   0.758  23.742  0.00  0.00    +0.000 A 
ATOM     24  C   UNL A   1     -31.181  -0.544  23.641  0.00  0.00    +0.000 A 
ATOM     25  C   UNL A   1     -30.268  -1.631  23.557  0.00  0.00    +0.000 A 
ATOM     26  C   UNL A   1     -28.607  -0.317  23.629  0.00  0.00    +0.000 A 
ATOM     27  C   UNL A   1     -28.991  -1.498  23.604  0.00  0.00    +0.000 A 
ENDBRANCH  21  22
ENDBRANCH   8  20
TORSDOF 3
ENDMDL
ENDMDL
