REMARK  Name = No_1966-gen_results/8p0m/2024-11-26-14-13-15/
REMARK  3 active torsions:
REMARK  status: ('A' for Active; 'I' for Inactive)
REMARK    1  A    between atoms: C_2  and  N_8
REMARK    2  A    between atoms: N_19  and  C_20
REMARK    3  A    between atoms: C_21  and  C_22
REMARK                            x       y       z     vdW  Elec       q    Type
REMARK                         _______ _______ _______ _____ _____    ______ ____
ROOT
ATOM      1  C   UNL A   1     -28.016  -0.814  28.878  0.00  0.00    +0.042 A 
ATOM      2  C   UNL A   1     -27.064  -0.119  28.608  0.00  0.00    +0.140 A 
ATOM      3  N   UNL A   1     -26.951   1.129  28.957  0.00  0.00    -0.214 NA
ATOM      4  C   UNL A   1     -28.734  -0.472  29.892  0.00  0.00    +0.040 A 
ATOM      5  C   UNL A   1     -28.788   0.792  30.427  0.00  0.00    +0.043 A 
ATOM      6  C   UNL A   1     -27.754   1.592  29.980  0.00  0.00    +0.154 A 
ATOM      7 BR   UNL A   1     -30.116  -1.703  30.502  0.00  0.00    -0.049 Br
ATOM      8  N   UNL A   1     -27.625   2.910  30.434  0.00  0.00    -0.193 NA
ENDROOT
BRANCH   2   9
ATOM      9  N   UNL A   1     -26.102  -0.433  27.570  0.00  0.00    -0.240 N 
ATOM     10  C   UNL A   1     -25.480   0.442  26.751  0.00  0.00    +0.254 C 
ATOM     11  C   UNL A   1     -24.202   0.743  27.138  0.00  0.00    +0.053 A 
ATOM     12  C   UNL A   1     -23.377   0.277  28.116  0.00  0.00    +0.003 A 
ATOM     13  C   UNL A   1     -23.859  -0.712  28.982  0.00  0.00    +0.050 C 
ATOM     14  C   UNL A   1     -25.161  -1.507  28.028  0.00  0.00    +0.105 C 
ATOM     15  C   UNL A   1     -22.134   0.826  28.512  0.00  0.00    +0.095 A 
ATOM     16  N   UNL A   1     -21.638   1.796  27.626  0.00  0.00    -0.243 NA
ATOM     17  C   UNL A   1     -23.578   2.021  26.463  0.00  0.00    +0.025 A 
ATOM     18  C   UNL A   1     -22.323   2.416  26.749  0.00  0.00    +0.099 A 
ATOM     19  O   UNL A   1     -26.113   0.782  25.781  0.00  0.00    -0.270 OA
ENDBRANCH   2   9
BRANCH   8  20
ATOM     20  C   UNL A   1     -27.016   3.860  30.259  0.00  0.00    +0.087 C 
ATOM     21  C   UNL A   1     -26.128   4.101  29.395  0.00  0.00    +0.018 C 
BRANCH  21  22
ATOM     22  C   UNL A   1     -26.164   5.151  28.440  0.00  0.00    +0.001 A 
ATOM     23  C   UNL A   1     -25.395   5.128  27.261  0.00  0.00    +0.000 A 
ATOM     24  C   UNL A   1     -25.462   6.210  26.377  0.00  0.00    +0.000 A 
ATOM     25  C   UNL A   1     -26.101   7.408  26.800  0.00  0.00    +0.000 A 
ATOM     26  C   UNL A   1     -26.566   6.563  28.687  0.00  0.00    +0.000 A 
ATOM     27  C   UNL A   1     -26.598   7.578  27.972  0.00  0.00    +0.000 A 
ENDBRANCH  21  22
ENDBRANCH   8  20
TORSDOF 3
