REMARK  Name = No_1967-gen_results/8p0m/2024-11-26-14-13-15/
REMARK  4 active torsions:
REMARK  status: ('A' for Active; 'I' for Inactive)
REMARK    1  A    between atoms: C_3  and  C_7
REMARK    2  A    between atoms: C_4  and  C_19
REMARK    3  A    between atoms: C_8  and  C_10
REMARK    4  A    between atoms: C_16  and  C_26
REMARK                            x       y       z     vdW  Elec       q    Type
REMARK                         _______ _______ _______ _____ _____    ______ ____
ROOT
ATOM      1  C   UNL A   1     -26.311   0.392  27.364  0.00  0.00    -0.000 A 
ATOM      2  C   UNL A   1     -26.767   1.025  26.372  0.00  0.00    -0.000 A 
ATOM      3  C   UNL A   1     -24.999  -0.176  27.349  0.00  0.00    -0.000 A 
ATOM      4  C   UNL A   1     -25.952   1.062  25.107  0.00  0.00    -0.000 A 
ATOM      5  C   UNL A   1     -24.539   0.645  25.133  0.00  0.00    -0.000 A 
ATOM      6  C   UNL A   1     -24.174  -0.039  26.284  0.00  0.00    -0.000 A 
ENDROOT
BRANCH   1   9
ATOM      7  C   UNL A   1     -28.016  -0.814  28.878  0.00  0.00    -0.000 A 
ATOM      8  C   UNL A   1     -28.469  -0.785  29.829  0.00  0.00    -0.000 A 
ATOM      9  C   UNL A   1     -27.087   0.290  28.638  0.00  0.00    -0.003 A 
ATOM     10  C   UNL A   1     -26.832   1.249  29.587  0.00  0.00    -0.014 A 
ATOM     11  C   UNL A   1     -28.391   0.080  31.006  0.00  0.00    -0.000 A 
ATOM     12  C   UNL A   1     -27.494   1.152  30.784  0.00  0.00    -0.004 A 
BRANCH  10  13
ATOM     13  C   UNL A   1     -25.855   2.333  29.442  0.00  0.00    +0.066 C 
ATOM     14  C   UNL A   1     -26.238   3.597  29.649  0.00  0.00    -0.018 C 
ATOM     15  C   UNL A   1     -25.480   4.683  29.084  0.00  0.00    -0.004 C 
ATOM     16  C   UNL A   1     -24.822   4.362  27.840  0.00  0.00    -0.000 C 
ATOM     17  C   UNL A   1     -24.208   3.106  27.689  0.00  0.00    -0.000 C 
ATOM     18  C   UNL A   1     -24.375   2.198  29.770  0.00  0.00    -0.018 C 
ATOM     19  C   UNL A   1     -23.882   2.520  28.758  0.00  0.00    -0.004 C 
ENDBRANCH  10  13
ENDBRANCH   1   9
BRANCH   2  20
ATOM     20  C   UNL A   1     -28.034   1.562  26.272  0.00  0.00    +0.000 A 
ATOM     21  C   UNL A   1     -28.924   1.165  25.361  0.00  0.00    +0.000 A 
ATOM     22  C   UNL A   1     -28.444   2.600  27.180  0.00  0.00    +0.007 A 
ATOM     23  C   UNL A   1     -29.759   2.976  27.409  0.00  0.00    +0.080 A 
ATOM     24  C   UNL A   1     -30.315   1.470  25.545  0.00  0.00    +0.000 A 
ATOM     25  C   UNL A   1     -30.666   2.487  26.441  0.00  0.00    +0.007 A 
BRANCH  23  26
ATOM     26  C   UNL A   1     -30.174   3.969  28.392  0.00  0.00    +0.388 C 
ATOM     27  O   UNL A   1     -30.318   3.464  29.582  0.00  0.00    -0.241 OA
ATOM     28  O   UNL A   1     -30.336   5.128  28.151  0.00  0.00    -0.241 OA
ENDBRANCH  23  26
ENDBRANCH   2  20
TORSDOF 4
