MODEL 1967
MODEL 1
REMARK VINA RESULT:    -7.297      0.000      0.000
REMARK INTER + INTRA:         -12.633
REMARK INTER:                  -9.003
REMARK INTRA:                  -3.630
REMARK UNBOUND:                -3.630
REMARK  Name = No_1967-gen_results/8p0m/2024-11-26-14-13-15/
REMARK  4 active torsions:
REMARK  status: ('A' for Active; 'I' for Inactive)
REMARK    1  A    between atoms: C_3  and  C_7
REMARK    2  A    between atoms: C_4  and  C_19
REMARK    3  A    between atoms: C_8  and  C_10
REMARK    4  A    between atoms: C_16  and  C_26
REMARK                            x       y       z     vdW  Elec       q    Type
REMARK                         _______ _______ _______ _____ _____    ______ ____
ROOT
ATOM      1  C   UNL A   1     -23.939   0.007  29.693  0.00  0.00    -0.000 A 
ATOM      2  C   UNL A   1     -24.435  -0.718  28.787  0.00  0.00    -0.000 A 
ATOM      3  C   UNL A   1     -23.462   1.327  29.416  0.00  0.00    -0.000 A 
ATOM      4  C   UNL A   1     -24.398  -0.221  27.367  0.00  0.00    -0.000 A 
ATOM      5  C   UNL A   1     -24.082   1.192  27.093  0.00  0.00    -0.000 A 
ATOM      6  C   UNL A   1     -23.546   1.871  28.179  0.00  0.00    -0.000 A 
ENDROOT
BRANCH   1   9
ATOM      7  C   UNL A   1     -22.767  -1.164  31.670  0.00  0.00    -0.000 A 
ATOM      8  C   UNL A   1     -22.864  -1.391  32.694  0.00  0.00    -0.000 A 
ATOM      9  C   UNL A   1     -23.915  -0.445  31.118  0.00  0.00    -0.003 A 
ATOM     10  C   UNL A   1     -24.995  -0.093  31.888  0.00  0.00    -0.014 A 
ATOM     11  C   UNL A   1     -23.862  -1.148  33.736  0.00  0.00    -0.000 A 
ATOM     12  C   UNL A   1     -24.978  -0.453  33.211  0.00  0.00    -0.004 A 
BRANCH  10  13
ATOM     13  C   UNL A   1     -26.138   0.696  31.418  0.00  0.00    +0.066 C 
ATOM     14  C   UNL A   1     -27.346   0.128  31.347  0.00  0.00    -0.018 C 
ATOM     15  C   UNL A   1     -28.357   0.686  30.486  0.00  0.00    -0.004 C 
ATOM     16  C   UNL A   1     -27.837   1.340  29.309  0.00  0.00    -0.000 C 
ATOM     17  C   UNL A   1     -26.684   2.137  29.416  0.00  0.00    -0.000 C 
ATOM     18  C   UNL A   1     -26.301   2.190  31.660  0.00  0.00    -0.018 C 
ATOM     19  C   UNL A   1     -26.432   2.590  30.567  0.00  0.00    -0.004 C 
ENDBRANCH  10  13
ENDBRANCH   1   9
BRANCH   2  20
ATOM     20  C   UNL A   1     -24.871  -2.018  28.944  0.00  0.00    +0.000 A 
ATOM     21  C   UNL A   1     -24.101  -3.080  28.703  0.00  0.00    +0.000 A 
ATOM     22  C   UNL A   1     -26.216  -2.271  29.389  0.00  0.00    +0.007 A 
ATOM     23  C   UNL A   1     -26.664  -3.478  29.904  0.00  0.00    +0.080 A 
ATOM     24  C   UNL A   1     -24.466  -4.360  29.241  0.00  0.00    +0.000 A 
ATOM     25  C   UNL A   1     -25.786  -4.559  29.663  0.00  0.00    +0.007 A 
BRANCH  23  26
ATOM     26  C   UNL A   1     -28.004  -3.703  30.432  0.00  0.00    +0.388 C 
ATOM     27  O   UNL A   1     -28.851  -2.792  30.050  0.00  0.00    -0.241 OA
ATOM     28  O   UNL A   1     -28.311  -4.634  31.114  0.00  0.00    -0.241 OA
ENDBRANCH  23  26
ENDBRANCH   2  20
TORSDOF 4
ENDMDL
ENDMDL
