MODEL 1968
MODEL 1
REMARK VINA RESULT:    -7.299      0.000      0.000
REMARK INTER + INTRA:          -7.235
REMARK INTER:                  -7.726
REMARK INTRA:                   0.491
REMARK UNBOUND:                 0.491
REMARK  Name = No_1968-gen_results/8p0m/2024-11-26-14-13-15/
REMARK  1 active torsions:
REMARK  status: ('A' for Active; 'I' for Inactive)
REMARK    1  A    between atoms: C_2  and  C_7
REMARK                            x       y       z     vdW  Elec       q    Type
REMARK                         _______ _______ _______ _____ _____    ______ ____
ROOT
ATOM      1  C   UNL A   1     -23.605  -1.408  29.236  0.00  0.00    +0.249 C 
ATOM      2  O   UNL A   1     -22.810  -1.124  29.965  0.00  0.00    -0.270 OA
ATOM      3  N   UNL A   1     -23.926  -0.622  28.132  0.00  0.00    -0.272 N 
ATOM      4  C   UNL A   1     -23.218   0.598  27.936  0.00  0.00    +0.120 C 
ATOM      5  C   UNL A   1     -23.932   1.494  27.346  0.00  0.00    -0.006 A 
ATOM      6  C   UNL A   1     -23.626   2.707  27.180  0.00  0.00    -0.003 A 
ATOM      7  C   UNL A   1     -25.106   1.073  26.501  0.00  0.00    -0.023 A 
ATOM      8  C   UNL A   1     -25.716  -0.211  26.638  0.00  0.00    +0.048 C 
ATOM      9  C   UNL A   1     -25.173  -0.948  27.533  0.00  0.00    +0.099 C 
ATOM     10  C   UNL A   1     -24.279   3.694  26.507  0.00  0.00    -0.000 A 
ATOM     11  C   UNL A   1     -25.453   3.272  25.750  0.00  0.00    -0.000 A 
ATOM     12  C   UNL A   1     -25.901   2.024  25.763  0.00  0.00    -0.004 A 
ENDROOT
BRANCH   1  14
ATOM     13  C   UNL A   1     -25.501  -2.490  29.920  0.00  0.00    +0.004 A 
ATOM     14  C   UNL A   1     -24.609  -2.638  29.378  0.00  0.00    +0.054 A 
ATOM     15  C   UNL A   1     -26.395  -3.653  30.045  0.00  0.00    +0.000 A 
ATOM     16  C   UNL A   1     -25.988  -4.934  29.573  0.00  0.00    +0.000 A 
ATOM     17  C   UNL A   1     -23.936  -3.854  28.847  0.00  0.00    +0.004 A 
ATOM     18  C   UNL A   1     -24.740  -4.952  28.937  0.00  0.00    +0.000 A 
ENDBRANCH   1  14
TORSDOF 1
ENDMDL
ENDMDL
