MODEL 1969
MODEL 1
REMARK VINA RESULT:    -4.279      0.000      0.000
REMARK INTER + INTRA:          -4.279
REMARK INTER:                  -4.279
REMARK INTRA:                   0.000
REMARK UNBOUND:                 0.000
REMARK  Name = No_1969-gen_results/8p0m/2024-11-26-14-13-15/
REMARK  0 active torsions:
REMARK  status: ('A' for Active; 'I' for Inactive)
REMARK                            x       y       z     vdW  Elec       q    Type
REMARK                         _______ _______ _______ _____ _____    ______ ____
ROOT
ATOM      1  C   UNL A   1     -26.061  -4.837  29.667  0.00  0.00    +0.000 A 
ATOM      2  C   UNL A   1     -26.194  -3.636  29.723  0.00  0.00    +0.000 A 
ATOM      3  C   UNL A   1     -25.226  -2.740  29.314  0.00  0.00    +0.000 A 
ATOM      4  C   UNL A   1     -24.024  -3.263  28.760  0.00  0.00    +0.000 A 
ATOM      5  C   UNL A   1     -23.993  -4.602  28.562  0.00  0.00    +0.000 A 
ATOM      6  C   UNL A   1     -24.985  -5.381  28.949  0.00  0.00    +0.000 A 
ENDROOT
TORSDOF 0
ENDMDL
ENDMDL
