MODEL 196
MODEL 1
REMARK VINA RESULT:    -8.331      0.000      0.000
REMARK INTER + INTRA:         -12.673
REMARK INTER:                 -10.767
REMARK INTRA:                  -1.906
REMARK UNBOUND:                -1.906
REMARK  Name = No_196-gen_results/8p0m/2024-11-26-14-13-15/
REMARK  5 active torsions:
REMARK  status: ('A' for Active; 'I' for Inactive)
REMARK    1  A    between atoms: C_5  and  C_10
REMARK    2  A    between atoms: C_9  and  C_18
REMARK    3  A    between atoms: C_18  and  C_19
REMARK    4  A    between atoms: C_19  and  C_20
REMARK    5  A    between atoms: C_19  and  C_26
REMARK                            x       y       z     vdW  Elec       q    Type
REMARK                         _______ _______ _______ _____ _____    ______ ____
ROOT
ATOM      1  C   UNL A   1     -26.325 -12.458   5.582  0.00  0.00    +0.027 C 
ATOM      2  C   UNL A   1     -25.184 -12.444   5.181  0.00  0.00    -0.024 A 
ATOM      3  C   UNL A   1     -24.177 -13.262   5.691  0.00  0.00    +0.006 A 
ATOM      4  C   UNL A   1     -22.762 -13.302   5.271  0.00  0.00    +0.004 A 
ATOM      5  C   UNL A   1     -22.445 -12.571   4.086  0.00  0.00    +0.080 A 
ATOM      6  C   UNL A   1     -23.486 -11.799   3.514  0.00  0.00    +0.006 A 
ATOM      7  C   UNL A   1     -24.729 -11.744   3.996  0.00  0.00    -0.004 A 
ATOM      8  C   UNL A   1     -26.537 -11.558   6.785  0.00  0.00    +0.014 C 
ATOM      9  C   UNL A   1     -27.853 -11.515   7.408  0.00  0.00    +0.079 C 
ATOM     10  C   UNL A   1     -28.730 -12.362   6.928  0.00  0.00    +0.241 C 
ATOM     11  N   UNL A   1     -28.756 -13.383   6.872  0.00  0.00    -0.203 NA
ATOM     12  O   UNL A   1     -29.737 -11.759   6.208  0.00  0.00    -0.273 OA
ATOM     13  C   UNL A   1     -27.884 -14.199   7.835  0.00  0.00    +0.147 C 
ATOM     14  C   UNL A   1     -27.629 -15.667   7.365  0.00  0.00    +0.166 C 
ATOM     15  O   UNL A   1     -26.450 -16.076   7.488  0.00  0.00    -0.349 OA
ATOM     16  C   UNL A   1     -25.525 -15.371   6.784  0.00  0.00    +0.179 C 
ATOM     17  C   UNL A   1     -24.707 -14.332   6.321  0.00  0.00    +0.203 C 
ATOM     18  O   UNL A   1     -23.391 -14.908   7.000  0.00  0.00    -0.216 OA
ENDROOT
BRANCH   5  19
ATOM     19  C   UNL A   1     -21.084 -12.663   3.613  0.00  0.00    +0.388 C 
ATOM     20  O   UNL A   1     -20.895 -13.169   2.487  0.00  0.00    -0.241 OA
ATOM     21  O   UNL A   1     -20.005 -12.630   4.435  0.00  0.00    -0.241 OA
ENDBRANCH   5  19
BRANCH   9  22
ATOM     22  C   UNL A   1     -27.745 -11.608   8.969  0.00  0.00    +0.018 C 
BRANCH  22  23
ATOM     23  C   UNL A   1     -28.774 -10.863   9.631  0.00  0.00    +0.045 C 
BRANCH  23  24
ATOM     24  C   UNL A   1     -28.839  -9.588   9.483  0.00  0.00    -0.018 A 
ATOM     25  C   UNL A   1     -29.924  -8.951   9.358  0.00  0.00    -0.004 A 
ATOM     26  C   UNL A   1     -30.022  -7.522   9.161  0.00  0.00    -0.000 A 
ATOM     27  C   UNL A   1     -28.804  -6.819   9.116  0.00  0.00    -0.000 A 
ATOM     28  C   UNL A   1     -27.588  -7.443   9.286  0.00  0.00    -0.000 A 
ATOM     29  C   UNL A   1     -27.554  -8.796   9.475  0.00  0.00    -0.004 A 
ENDBRANCH  23  24
BRANCH  23  30
ATOM     30  C   UNL A   1     -29.687 -11.610  10.449  0.00  0.00    -0.018 A 
ATOM     31  C   UNL A   1     -30.732 -12.297   9.963  0.00  0.00    -0.004 A 
ATOM     32  C   UNL A   1     -31.712 -12.807  10.775  0.00  0.00    -0.000 A 
ATOM     33  C   UNL A   1     -29.381 -11.738  11.832  0.00  0.00    -0.004 A 
ATOM     34  C   UNL A   1     -30.292 -12.367  12.692  0.00  0.00    -0.000 A 
ATOM     35  C   UNL A   1     -31.473 -12.926  12.165  0.00  0.00    -0.000 A 
ENDBRANCH  23  30
ENDBRANCH  22  23
ENDBRANCH   9  22
TORSDOF 5
ENDMDL
ENDMDL
