REMARK  Name = No_1970-gen_results/8p0m/2024-11-26-14-13-15/
REMARK  10 active torsions:
REMARK  status: ('A' for Active; 'I' for Inactive)
REMARK    1  A    between atoms: C_4  and  O_11
REMARK    2  A    between atoms: C_5  and  C_6
REMARK    3  A    between atoms: O_11  and  C_12
REMARK    4  A    between atoms: C_13  and  O_18
REMARK    5  A    between atoms: O_18  and  C_19
REMARK    6  A    between atoms: C_23  and  C_25
REMARK    7  A    between atoms: C_25  and  N_26
REMARK    8  A    between atoms: N_26  and  C_27
REMARK    9  A    between atoms: C_28  and  C_29
REMARK   10  A    between atoms: C_29  and  C_30
REMARK                            x       y       z     vdW  Elec       q    Type
REMARK                         _______ _______ _______ _____ _____    ______ ____
ROOT
ATOM      1  O   UNL A   1     -25.318   3.965  30.083  0.00  0.00    -0.451 OA
ENDROOT
BRANCH   1   2
ATOM      2  C   UNL A   1     -24.740   2.990  29.334  0.00  0.00    +0.141 A 
ATOM      3  C   UNL A   1     -24.337   3.325  27.983  0.00  0.00    +0.013 A 
ATOM      4  C   UNL A   1     -23.658   2.340  27.196  0.00  0.00    -0.002 A 
ATOM      5  C   UNL A   1     -22.998   1.246  27.908  0.00  0.00    -0.003 A 
ATOM      6  C   UNL A   1     -23.186   1.071  29.253  0.00  0.00    +0.001 A 
ATOM      7  C   UNL A   1     -23.979   2.002  29.969  0.00  0.00    +0.035 A 
ATOM      8  C   UNL A   1     -25.038   4.389  27.230  0.00  0.00    +0.034 C 
BRANCH   6   9
ATOM      9  C   UNL A   1     -22.590  -0.086  29.892  0.00  0.00    +0.118 C 
BRANCH   9  10
ATOM     10  N   UNL A   1     -23.173  -1.174  29.940  0.00  0.00    -0.301 N 
ATOM     11  C   UNL A   1     -23.171  -2.025  28.752  0.00  0.00    +0.113 C 
BRANCH  10  12
ATOM     12  C   UNL A   1     -24.095  -1.561  30.883  0.00  0.00    +0.057 C 
ATOM     13  C   UNL A   1     -25.406  -1.549  30.669  0.00  0.00    -0.005 C 
BRANCH  13  14
ATOM     14  C   UNL A   1     -26.307  -1.736  31.770  0.00  0.00    +0.063 C 
BRANCH  14  15
ATOM     15  C   UNL A   1     -27.710  -1.810  31.526  0.00  0.00    +0.040 C 
ATOM     16  C   UNL A   1     -28.212  -2.248  32.713  0.00  0.00    -0.012 C 
ATOM     17  N   UNL A   1     -28.681  -1.921  33.582  0.00  0.00    -0.227 NA
ATOM     18  C   UNL A   1     -29.166  -2.623  34.694  0.00  0.00    +0.163 C 
ENDBRANCH  14  15
ENDBRANCH  13  14
ENDBRANCH  10  12
ENDBRANCH   9  10
ENDBRANCH   6   9
ENDBRANCH   1   2
BRANCH   1  20
ATOM     19  C   UNL A   1     -27.257   3.315  31.304  0.00  0.00    +0.179 A 
ATOM     20  C   UNL A   1     -25.986   3.747  31.248  0.00  0.00    +0.179 A 
ATOM     21  C   UNL A   1     -25.130   3.881  32.470  0.00  0.00    +0.041 A 
ATOM     22  C   UNL A   1     -25.735   3.700  33.674  0.00  0.00    +0.003 A 
ATOM     23  C   UNL A   1     -27.042   3.276  33.707  0.00  0.00    +0.003 A 
ATOM     24  C   UNL A   1     -27.781   3.064  32.560  0.00  0.00    +0.041 A 
BRANCH  19  25
ATOM     25  O   UNL A   1     -27.817   3.049  30.176  0.00  0.00    -0.450 OA
BRANCH  25  29
ATOM     26  C   UNL A   1     -28.016  -0.814  28.878  0.00  0.00    +0.036 A 
ATOM     27  C   UNL A   1     -27.064  -0.119  28.608  0.00  0.00    +0.143 A 
ATOM     28  C   UNL A   1     -26.929   1.171  29.008  0.00  0.00    +0.067 A 
ATOM     29  C   UNL A   1     -27.956   1.741  29.784  0.00  0.00    +0.148 A 
ATOM     30  C   UNL A   1     -29.057  -0.327  29.747  0.00  0.00    +0.085 A 
ATOM     31  C   UNL A   1     -28.977   0.958  30.179  0.00  0.00    +0.044 A 
ATOM     32  F   UNL A   1     -26.006  -0.587  27.854  0.00  0.00    -0.204 F 
BRANCH  30  33
ATOM     33  C   UNL A   1     -30.170  -1.158  30.133  0.00  0.00    +0.388 C 
ATOM     34  O   UNL A   1     -30.787  -0.799  31.166  0.00  0.00    -0.240 OA
ATOM     35  O   UNL A   1     -30.377  -2.247  29.506  0.00  0.00    -0.240 OA
ENDBRANCH  30  33
ENDBRANCH  25  29
ENDBRANCH  19  25
ENDBRANCH   1  20
TORSDOF 10
