MODEL 1970
MODEL 1
REMARK VINA RESULT:    -6.644      0.000      0.000
REMARK INTER + INTRA:         -13.327
REMARK INTER:                 -10.528
REMARK INTRA:                  -2.799
REMARK UNBOUND:                -2.799
REMARK  Name = No_1970-gen_results/8p0m/2024-11-26-14-13-15/
REMARK  10 active torsions:
REMARK  status: ('A' for Active; 'I' for Inactive)
REMARK    1  A    between atoms: C_4  and  O_11
REMARK    2  A    between atoms: C_5  and  C_6
REMARK    3  A    between atoms: O_11  and  C_12
REMARK    4  A    between atoms: C_13  and  O_18
REMARK    5  A    between atoms: O_18  and  C_19
REMARK    6  A    between atoms: C_23  and  C_25
REMARK    7  A    between atoms: C_25  and  N_26
REMARK    8  A    between atoms: N_26  and  C_27
REMARK    9  A    between atoms: C_28  and  C_29
REMARK   10  A    between atoms: C_29  and  C_30
REMARK                            x       y       z     vdW  Elec       q    Type
REMARK                         _______ _______ _______ _____ _____    ______ ____
ROOT
ATOM      1  O   UNL A   1     -24.168  -1.136  27.855  0.00  0.00    -0.451 OA
ENDROOT
BRANCH   1   2
ATOM      2  C   UNL A   1     -25.301  -1.522  28.497  0.00  0.00    +0.141 A 
ATOM      3  C   UNL A   1     -25.241  -2.714  29.319  0.00  0.00    +0.013 A 
ATOM      4  C   UNL A   1     -26.399  -3.102  30.067  0.00  0.00    -0.002 A 
ATOM      5  C   UNL A   1     -27.400  -2.071  30.342  0.00  0.00    -0.003 A 
ATOM      6  C   UNL A   1     -27.321  -0.841  29.747  0.00  0.00    +0.001 A 
ATOM      7  C   UNL A   1     -26.220  -0.547  28.905  0.00  0.00    +0.035 A 
ATOM      8  C   UNL A   1     -24.273  -3.791  29.013  0.00  0.00    +0.034 C 
BRANCH   6   9
ATOM      9  C   UNL A   1     -28.392   0.110  29.975  0.00  0.00    +0.118 C 
BRANCH   9  10
ATOM     10  N   UNL A   1     -29.415   0.115  29.282  0.00  0.00    -0.301 N 
ATOM     11  C   UNL A   1     -30.620  -0.524  29.805  0.00  0.00    +0.113 C 
BRANCH  10  12
ATOM     12  C   UNL A   1     -29.483   0.383  27.936  0.00  0.00    +0.057 C 
ATOM     13  C   UNL A   1     -28.795   1.357  27.350  0.00  0.00    -0.005 C 
BRANCH  13  14
ATOM     14  C   UNL A   1     -29.098   1.727  25.997  0.00  0.00    +0.063 C 
BRANCH  14  15
ATOM     15  C   UNL A   1     -28.127   1.512  24.975  0.00  0.00    +0.040 C 
ATOM     16  C   UNL A   1     -28.452   0.284  24.487  0.00  0.00    -0.012 C 
ATOM     17  N   UNL A   1     -28.946  -0.189  23.704  0.00  0.00    -0.227 NA
ATOM     18  C   UNL A   1     -29.101  -1.546  23.390  0.00  0.00    +0.163 C 
ENDBRANCH  14  15
ENDBRANCH  13  14
ENDBRANCH  10  12
ENDBRANCH   9  10
ENDBRANCH   6   9
ENDBRANCH   1   2
BRANCH   1  20
ATOM     19  C   UNL A   1     -23.039   0.956  28.004  0.00  0.00    +0.179 A 
ATOM     20  C   UNL A   1     -23.922   0.129  27.419  0.00  0.00    +0.179 A 
ATOM     21  C   UNL A   1     -24.607   0.468  26.131  0.00  0.00    +0.041 A 
ATOM     22  C   UNL A   1     -24.426   1.725  25.645  0.00  0.00    +0.003 A 
ATOM     23  C   UNL A   1     -23.533   2.561  26.271  0.00  0.00    +0.003 A 
ATOM     24  C   UNL A   1     -22.838   2.186  27.404  0.00  0.00    +0.041 A 
BRANCH  19  25
ATOM     25  O   UNL A   1     -22.370   0.468  28.990  0.00  0.00    -0.450 OA
BRANCH  25  29
ATOM     26  C   UNL A   1     -24.057  -0.208  32.643  0.00  0.00    +0.036 A 
ATOM     27  C   UNL A   1     -23.198  -0.942  32.213  0.00  0.00    +0.143 A 
ATOM     28  C   UNL A   1     -22.591  -0.777  31.010  0.00  0.00    +0.067 A 
ATOM     29  C   UNL A   1     -22.981   0.313  30.209  0.00  0.00    +0.148 A 
ATOM     30  C   UNL A   1     -24.437   0.979  31.920  0.00  0.00    +0.085 A 
ATOM     31  C   UNL A   1     -23.864   1.198  30.708  0.00  0.00    +0.044 A 
ATOM     32  F   UNL A   1     -22.747  -2.037  32.924  0.00  0.00    -0.204 F 
BRANCH  30  33
ATOM     33  C   UNL A   1     -25.414   1.902  32.442  0.00  0.00    +0.388 C 
ATOM     34  O   UNL A   1     -25.011   3.076  32.629  0.00  0.00    -0.240 OA
ATOM     35  O   UNL A   1     -26.554   1.461  32.798  0.00  0.00    -0.240 OA
ENDBRANCH  30  33
ENDBRANCH  25  29
ENDBRANCH  19  25
ENDBRANCH   1  20
TORSDOF 10
ENDMDL
ENDMDL
