MODEL 1971
MODEL 1
REMARK VINA RESULT:    -5.892      0.000      0.000
REMARK INTER + INTRA:          -5.892
REMARK INTER:                  -5.892
REMARK INTRA:                   0.000
REMARK UNBOUND:                 0.000
REMARK  Name = No_1971-gen_results/8p0m/2024-11-26-14-13-15/
REMARK  0 active torsions:
REMARK  status: ('A' for Active; 'I' for Inactive)
REMARK                            x       y       z     vdW  Elec       q    Type
REMARK                         _______ _______ _______ _____ _____    ______ ____
ROOT
ATOM      1  O   UNL A   1     -27.255   0.061  30.287  0.00  0.00    -0.274 OA
ATOM      2  C   UNL A   1     -26.511  -0.721  29.882  0.00  0.00    +0.232 C 
ATOM      3  C   UNL A   1     -26.654  -2.065  30.162  0.00  0.00    +0.114 C 
ATOM      4  N   UNL A   1     -25.135  -0.352  29.536  0.00  0.00    -0.248 N 
ATOM      5  C   UNL A   1     -26.043  -2.920  29.550  0.00  0.00    +0.015 A 
ATOM      6  C   UNL A   1     -26.190  -4.389  29.653  0.00  0.00    +0.136 A 
ATOM      7  C   UNL A   1     -25.171  -5.309  29.318  0.00  0.00    +0.029 A 
ATOM      8  C   UNL A   1     -24.147  -4.776  28.602  0.00  0.00    +0.002 A 
ATOM      9  C   UNL A   1     -23.877  -3.431  28.479  0.00  0.00    -0.000 A 
ATOM     10  C   UNL A   1     -24.744  -2.554  29.007  0.00  0.00    +0.028 A 
ATOM     11  C   UNL A   1     -24.428  -1.171  28.986  0.00  0.00    +0.262 C 
ATOM     12  F   UNL A   1     -23.292  -0.757  28.476  0.00  0.00    -0.210 F 
ATOM     13  C   UNL A   1     -24.957   1.123  29.275  0.00  0.00    +0.118 C 
ATOM     14  F   UNL A   1     -27.237  -4.916  30.253  0.00  0.00    -0.204 F 
ENDROOT
TORSDOF 0
ENDMDL
ENDMDL
