REMARK  Name = No_1971-gen_results/8p0m/2024-11-26-14-13-15/
REMARK  0 active torsions:
REMARK  status: ('A' for Active; 'I' for Inactive)
REMARK                            x       y       z     vdW  Elec       q    Type
REMARK                         _______ _______ _______ _____ _____    ______ ____
ROOT
ATOM      1  O   UNL A   1     -28.123  -1.335  28.487  0.00  0.00    -0.274 OA
ATOM      2  C   UNL A   1     -27.481  -0.404  28.709  0.00  0.00    +0.232 C 
ATOM      3  C   UNL A   1     -26.380  -0.087  27.939  0.00  0.00    +0.114 C 
ATOM      4  N   UNL A   1     -27.423   0.175  30.055  0.00  0.00    -0.248 N 
ATOM      5  C   UNL A   1     -25.848   1.005  27.994  0.00  0.00    +0.015 A 
ATOM      6  C   UNL A   1     -24.753   1.524  27.144  0.00  0.00    +0.136 A 
ATOM      7  C   UNL A   1     -23.864   2.549  27.541  0.00  0.00    +0.029 A 
ATOM      8  C   UNL A   1     -24.266   3.247  28.635  0.00  0.00    +0.002 A 
ATOM      9  C   UNL A   1     -25.232   2.840  29.528  0.00  0.00    -0.000 A 
ATOM     10  C   UNL A   1     -25.925   1.724  29.256  0.00  0.00    +0.028 A 
ATOM     11  C   UNL A   1     -26.847   1.231  30.216  0.00  0.00    +0.262 C 
ATOM     12  F   UNL A   1     -27.004   1.847  31.363  0.00  0.00    -0.210 F 
ATOM     13  C   UNL A   1     -28.597  -0.205  30.922  0.00  0.00    +0.118 C 
ATOM     14  F   UNL A   1     -24.428   0.913  26.024  0.00  0.00    -0.204 F 
ENDROOT
TORSDOF 0
