REMARK  Name = No_1972-gen_results/8p0m/2024-11-26-14-13-15/
REMARK  8 active torsions:
REMARK  status: ('A' for Active; 'I' for Inactive)
REMARK    1  A    between atoms: C_2  and  C_7
REMARK    2  A    between atoms: C_7  and  N_8
REMARK    3  A    between atoms: N_8  and  C_10
REMARK    4  A    between atoms: N_8  and  C_20
REMARK    5  A    between atoms: C_11  and  C_12
REMARK    6  A    between atoms: C_12  and  C_13
REMARK    7  A    between atoms: C_13  and  C_14
REMARK    8  A    between atoms: C_20  and  C_22
REMARK                            x       y       z     vdW  Elec       q    Type
REMARK                         _______ _______ _______ _____ _____    ______ ____
ROOT
ATOM      1  N   UNL A   1     -27.851   1.504  27.173  0.00  0.00    -0.278 N 
ENDROOT
BRANCH   1   2
ATOM      2  C   UNL A   1     -27.972   2.112  25.945  0.00  0.00    +0.024 C 
ATOM      3  C   UNL A   1     -28.615   1.770  24.913  0.00  0.00    -0.016 C 
ATOM      4  C   UNL A   1     -28.190   3.699  26.361  0.00  0.00    +0.047 C 
BRANCH   3   5
ATOM      5  C   UNL A   1     -28.460   0.578  24.408  0.00  0.00    +0.032 C 
BRANCH   5   6
ATOM      6  C   UNL A   1     -27.678  -0.397  25.086  0.00  0.00    +0.031 C 
BRANCH   6   7
ATOM      7  C   UNL A   1     -26.491   0.093  25.595  0.00  0.00    -0.022 A 
ATOM      8  C   UNL A   1     -25.795   1.070  24.740  0.00  0.00    -0.004 A 
ATOM      9  C   UNL A   1     -25.488  -0.851  26.090  0.00  0.00    -0.004 A 
ATOM     10  C   UNL A   1     -24.344   1.204  24.934  0.00  0.00    -0.000 A 
ATOM     11  C   UNL A   1     -24.266  -0.303  26.370  0.00  0.00    -0.000 A 
ATOM     12  C   UNL A   1     -23.669   0.608  25.854  0.00  0.00    -0.000 A 
ENDBRANCH   6   7
ENDBRANCH   5   6
ENDBRANCH   3   5
ENDBRANCH   1   2
BRANCH   1  13
ATOM     13  C   UNL A   1     -27.106   1.102  27.759  0.00  0.00    +0.261 C 
ATOM     14  F   UNL A   1     -25.929   1.811  27.622  0.00  0.00    -0.210 F 
BRANCH  13  16
ATOM     15  C   UNL A   1     -28.016  -0.814  28.878  0.00  0.00    +0.000 A 
ATOM     16  C   UNL A   1     -27.064  -0.119  28.608  0.00  0.00    +0.029 A 
ATOM     17  C   UNL A   1     -25.792  -0.430  29.076  0.00  0.00    +0.000 A 
ATOM     18  C   UNL A   1     -25.576  -1.565  29.936  0.00  0.00    -0.000 A 
ATOM     19  C   UNL A   1     -26.735  -2.300  30.217  0.00  0.00    -0.000 A 
ATOM     20  C   UNL A   1     -27.918  -1.954  29.763  0.00  0.00    -0.000 A 
ENDBRANCH  13  16
ENDBRANCH   1  13
BRANCH   1  21
ATOM     21  C   UNL A   1     -29.293   1.514  27.775  0.00  0.00    +0.120 C 
BRANCH  21  22
ATOM     22  C   UNL A   1     -29.595   2.092  28.553  0.00  0.00    -0.002 A 
ATOM     23  C   UNL A   1     -30.806   1.837  29.418  0.00  0.00    -0.003 A 
ATOM     24  C   UNL A   1     -31.078   2.553  30.622  0.00  0.00    -0.000 A 
ATOM     25  C   UNL A   1     -30.276   3.633  30.961  0.00  0.00    -0.000 A 
ATOM     26  C   UNL A   1     -29.148   3.974  30.252  0.00  0.00    -0.000 A 
ATOM     27  C   UNL A   1     -28.796   3.263  29.187  0.00  0.00    -0.003 A 
ENDBRANCH  21  22
ENDBRANCH   1  21
TORSDOF 8
