MODEL 1972
MODEL 1
REMARK VINA RESULT:    -8.273      0.000      0.000
REMARK INTER + INTRA:         -14.616
REMARK INTER:                 -12.142
REMARK INTRA:                  -2.475
REMARK UNBOUND:                -2.475
REMARK  Name = No_1972-gen_results/8p0m/2024-11-26-14-13-15/
REMARK  8 active torsions:
REMARK  status: ('A' for Active; 'I' for Inactive)
REMARK    1  A    between atoms: C_2  and  C_7
REMARK    2  A    between atoms: C_7  and  N_8
REMARK    3  A    between atoms: N_8  and  C_10
REMARK    4  A    between atoms: N_8  and  C_20
REMARK    5  A    between atoms: C_11  and  C_12
REMARK    6  A    between atoms: C_12  and  C_13
REMARK    7  A    between atoms: C_13  and  C_14
REMARK    8  A    between atoms: C_20  and  C_22
REMARK                            x       y       z     vdW  Elec       q    Type
REMARK                         _______ _______ _______ _____ _____    ______ ____
ROOT
ATOM      1  N   UNL A   1     -23.504  -0.139  29.056  0.00  0.00    -0.278 N 
ENDROOT
BRANCH   1   2
ATOM      2  C   UNL A   1     -22.480   0.322  28.261  0.00  0.00    +0.024 C 
ATOM      3  C   UNL A   1     -22.218   1.485  27.843  0.00  0.00    -0.016 C 
ATOM      4  C   UNL A   1     -21.167  -0.463  28.892  0.00  0.00    +0.047 C 
BRANCH   3   5
ATOM      5  C   UNL A   1     -23.131   2.182  27.227  0.00  0.00    +0.032 C 
BRANCH   5   6
ATOM      6  C   UNL A   1     -23.553   1.823  25.918  0.00  0.00    +0.031 C 
BRANCH   6   7
ATOM      7  C   UNL A   1     -24.794   1.216  25.877  0.00  0.00    -0.022 A 
ATOM      8  C   UNL A   1     -24.936   0.141  24.880  0.00  0.00    -0.004 A 
ATOM      9  C   UNL A   1     -25.991   2.054  25.793  0.00  0.00    -0.004 A 
ATOM     10  C   UNL A   1     -26.298  -0.152  24.412  0.00  0.00    -0.000 A 
ATOM     11  C   UNL A   1     -27.153   1.378  25.537  0.00  0.00    -0.000 A 
ATOM     12  C   UNL A   1     -27.367   0.390  24.881  0.00  0.00    -0.000 A 
ENDBRANCH   6   7
ENDBRANCH   5   6
ENDBRANCH   3   5
ENDBRANCH   1   2
BRANCH   1  13
ATOM     13  C   UNL A   1     -24.364  -0.695  28.952  0.00  0.00    +0.261 C 
ATOM     14  F   UNL A   1     -25.464   0.120  28.771  0.00  0.00    -0.210 F 
BRANCH  13  16
ATOM     15  C   UNL A   1     -23.843  -3.026  28.734  0.00  0.00    +0.000 A 
ATOM     16  C   UNL A   1     -24.618  -2.157  29.062  0.00  0.00    +0.029 A 
ATOM     17  C   UNL A   1     -25.857  -2.469  29.609  0.00  0.00    +0.000 A 
ATOM     18  C   UNL A   1     -26.277  -3.838  29.761  0.00  0.00    -0.000 A 
ATOM     19  C   UNL A   1     -25.330  -4.779  29.335  0.00  0.00    -0.000 A 
ATOM     20  C   UNL A   1     -24.178  -4.431  28.808  0.00  0.00    -0.000 A 
ENDBRANCH  13  16
ENDBRANCH   1  13
BRANCH   1  21
ATOM     21  C   UNL A   1     -23.141   0.333  30.500  0.00  0.00    +0.120 C 
BRANCH  21  22
ATOM     22  C   UNL A   1     -23.644   0.071  31.342  0.00  0.00    -0.002 A 
ATOM     23  C   UNL A   1     -23.245  -1.029  32.297  0.00  0.00    -0.003 A 
ATOM     24  C   UNL A   1     -23.861  -1.228  33.569  0.00  0.00    -0.000 A 
ATOM     25  C   UNL A   1     -24.973  -0.471  33.907  0.00  0.00    -0.000 A 
ATOM     26  C   UNL A   1     -25.441   0.556  33.121  0.00  0.00    -0.000 A 
ATOM     27  C   UNL A   1     -24.828   0.848  31.980  0.00  0.00    -0.003 A 
ENDBRANCH  21  22
ENDBRANCH   1  21
TORSDOF 8
ENDMDL
ENDMDL
