MODEL 1973
MODEL 1
REMARK VINA RESULT:    -5.085      0.000      0.000
REMARK INTER + INTRA:         -14.743
REMARK INTER:                  -9.544
REMARK INTRA:                  -5.199
REMARK UNBOUND:                -5.199
REMARK  Name = No_1973-gen_results/8p0m/2024-11-26-14-13-15/
REMARK  15 active torsions:
REMARK  status: ('A' for Active; 'I' for Inactive)
REMARK    1  A    between atoms: C_2  and  C_14
REMARK    2  A    between atoms: C_4  and  C_6
REMARK    3  A    between atoms: C_6  and  C_8
REMARK    4  A    between atoms: C_8  and  C_9
REMARK    5  A    between atoms: C_8  and  C_17
REMARK    6  A    between atoms: C_10  and  C_11
REMARK    7  A    between atoms: C_11  and  C_12
REMARK    8  A    between atoms: C_17  and  P_18
REMARK    9  A    between atoms: P_18  and  O_19
REMARK   10  A    between atoms: O_19  and  C_22
REMARK   11  A    between atoms: C_22  and  C_23
REMARK   12  A    between atoms: C_22  and  C_25
REMARK   13  A    between atoms: C_23  and  O_24
REMARK   14  A    between atoms: O_24  and  C_31
REMARK   15  A    between atoms: C_31  and  C_32
REMARK                            x       y       z     vdW  Elec       q    Type
REMARK                         _______ _______ _______ _____ _____    ______ ____
ROOT
ATOM      1  P   UNL A   1     -24.321   2.672  26.683  0.00  0.00    +0.370 P 
ATOM      2  O   UNL A   1     -24.256   3.707  25.737  0.00  0.00    -0.256 OA
ATOM      3  O   UNL A   1     -23.144   2.795  27.736  0.00  0.00    -0.140 OA
ENDROOT
BRANCH   1   4
ATOM      4  C   UNL A   1     -23.990   1.152  25.957  0.00  0.00    +0.123 C 
BRANCH   4   5
ATOM      5  C   UNL A   1     -25.125   0.164  25.950  0.00  0.00    +0.038 C 
BRANCH   5   6
ATOM      6  C   UNL A   1     -25.401  -0.515  27.056  0.00  0.00    -0.030 C 
ATOM      7  C   UNL A   1     -25.071  -1.272  27.691  0.00  0.00    -0.031 C 
BRANCH   7   8
ATOM      8  C   UNL A   1     -25.564  -1.748  28.975  0.00  0.00    +0.026 C 
BRANCH   8   9
ATOM      9  C   UNL A   1     -24.810  -2.446  29.866  0.00  0.00    +0.005 C 
ATOM     10  C   UNL A   1     -24.054  -3.365  29.073  0.00  0.00    +0.000 C 
ENDBRANCH   8   9
ENDBRANCH   7   8
ENDBRANCH   5   6
BRANCH   5  11
ATOM     11  C   UNL A   1     -25.679  -0.095  24.681  0.00  0.00    +0.031 C 
BRANCH  11  15
ATOM     12  C   UNL A   1     -29.392   0.424  23.922  0.00  0.00    +0.006 A 
ATOM     13  C   UNL A   1     -29.353   1.471  23.806  0.00  0.00    +0.080 A 
ATOM     14  C   UNL A   1     -28.115  -0.257  24.191  0.00  0.00    -0.004 A 
ATOM     15  C   UNL A   1     -26.926   0.496  24.420  0.00  0.00    -0.022 A 
ATOM     16  C   UNL A   1     -28.283   2.477  24.045  0.00  0.00    +0.006 A 
ATOM     17  C   UNL A   1     -27.064   1.880  24.326  0.00  0.00    -0.004 A 
BRANCH  13  18
ATOM     18  C   UNL A   1     -30.746   2.237  23.470  0.00  0.00    +0.388 C 
ATOM     19  O   UNL A   1     -31.562   1.697  22.644  0.00  0.00    -0.241 OA
ATOM     20  O   UNL A   1     -30.827   3.421  23.803  0.00  0.00    -0.241 OA
ENDBRANCH  13  18
ENDBRANCH  11  15
ENDBRANCH   5  11
ENDBRANCH   4   5
ENDBRANCH   1   4
BRANCH   1  21
ATOM     21  O   UNL A   1     -25.500   2.480  27.549  0.00  0.00    -0.288 OA
BRANCH  21  22
ATOM     22  C   UNL A   1     -26.363   3.436  27.889  0.00  0.00    +0.176 C 
BRANCH  22  23
ATOM     23  C   UNL A   1     -27.823   2.750  27.900  0.00  0.00    +0.007 A 
ATOM     24  C   UNL A   1     -28.843   3.568  27.557  0.00  0.00    -0.002 A 
ATOM     25  C   UNL A   1     -29.954   2.950  27.222  0.00  0.00    -0.000 A 
ATOM     26  C   UNL A   1     -30.049   1.609  27.321  0.00  0.00    -0.000 A 
ATOM     27  C   UNL A   1     -28.977   0.810  27.705  0.00  0.00    -0.000 A 
ATOM     28  C   UNL A   1     -27.833   1.413  27.995  0.00  0.00    -0.002 A 
ENDBRANCH  22  23
BRANCH  22  29
ATOM     29  C   UNL A   1     -26.161   4.065  29.092  0.00  0.00    +0.177 C 
BRANCH  29  30
ATOM     30  O   UNL A   1     -25.317   3.662  29.835  0.00  0.00    -0.343 OA
BRANCH  30  31
ATOM     31  C   UNL A   1     -25.587   2.942  31.044  0.00  0.00    +0.246 C 
BRANCH  31  32
ATOM     32  C   UNL A   1     -25.295   1.623  31.106  0.00  0.00    +0.425 C 
ATOM     33  F   UNL A   1     -26.286   0.990  30.719  0.00  0.00    -0.167 F 
ATOM     34  F   UNL A   1     -24.757   1.102  32.206  0.00  0.00    -0.167 F 
ATOM     35  F   UNL A   1     -24.415   1.317  30.108  0.00  0.00    -0.167 F 
ENDBRANCH  31  32
ENDBRANCH  30  31
ENDBRANCH  29  30
ENDBRANCH  22  29
ENDBRANCH  21  22
ENDBRANCH   1  21
TORSDOF 15
ENDMDL
ENDMDL
