MODEL 1975
MODEL 1
REMARK VINA RESULT:    -5.786      0.000      0.000
REMARK INTER + INTRA:          -7.264
REMARK INTER:                  -6.801
REMARK INTRA:                  -0.463
REMARK UNBOUND:                -0.463
REMARK  Name = No_1975-gen_results/8p0m/2024-11-26-14-13-15/
REMARK  3 active torsions:
REMARK  status: ('A' for Active; 'I' for Inactive)
REMARK    1  A    between atoms: C_3  and  C_7
REMARK    2  A    between atoms: C_7  and  C_9
REMARK    3  A    between atoms: C_9  and  C_10
REMARK                            x       y       z     vdW  Elec       q    Type
REMARK                         _______ _______ _______ _____ _____    ______ ____
ROOT
ATOM      1  C   UNL A   1     -22.267   1.033  28.121  0.00  0.00    -0.003 A 
ATOM      2  C   UNL A   1     -22.098   1.740  27.358  0.00  0.00    -0.000 A 
ATOM      3  C   UNL A   1     -23.448   0.262  28.055  0.00  0.00    -0.012 A 
ATOM      4  C   UNL A   1     -24.370   0.422  27.038  0.00  0.00    -0.003 A 
ATOM      5  C   UNL A   1     -22.905   2.102  26.177  0.00  0.00    -0.000 A 
ATOM      6  C   UNL A   1     -24.047   1.387  26.075  0.00  0.00    -0.000 A 
ENDROOT
BRANCH   3   7
ATOM      7  C   UNL A   1     -23.787  -0.812  29.050  0.00  0.00    +0.084 C 
ATOM      8 BR   UNL A   1     -23.381  -0.996  30.291  0.00  0.00    -0.076 Br
BRANCH   7   9
ATOM      9  C   UNL A   1     -24.793  -1.768  28.401  0.00  0.00    +0.042 C 
BRANCH   9  10
ATOM     10  C   UNL A   1     -24.999  -3.106  28.949  0.00  0.00    -0.029 C 
ATOM     11  C   UNL A   1     -24.280  -4.180  28.508  0.00  0.00    -0.030 C 
ATOM     12  C   UNL A   1     -24.670  -5.488  28.942  0.00  0.00    +0.030 C 
ENDBRANCH   9  10
ENDBRANCH   7   9
ENDBRANCH   3   7
TORSDOF 3
ENDMDL
ENDMDL
