REMARK  Name = No_1975-gen_results/8p0m/2024-11-26-14-13-15/
REMARK  3 active torsions:
REMARK  status: ('A' for Active; 'I' for Inactive)
REMARK    1  A    between atoms: C_3  and  C_7
REMARK    2  A    between atoms: C_7  and  C_9
REMARK    3  A    between atoms: C_9  and  C_10
REMARK                            x       y       z     vdW  Elec       q    Type
REMARK                         _______ _______ _______ _____ _____    ______ ____
ROOT
ATOM      1  C   UNL A   1     -28.016  -0.814  28.878  0.00  0.00    -0.003 A 
ATOM      2  C   UNL A   1     -28.469  -0.785  29.829  0.00  0.00    -0.000 A 
ATOM      3  C   UNL A   1     -27.136   0.236  28.535  0.00  0.00    -0.012 A 
ATOM      4  C   UNL A   1     -26.875   1.282  29.398  0.00  0.00    -0.003 A 
ATOM      5  C   UNL A   1     -28.361   0.199  30.924  0.00  0.00    -0.000 A 
ATOM      6  C   UNL A   1     -27.528   1.223  30.636  0.00  0.00    -0.000 A 
ENDROOT
BRANCH   3   7
ATOM      7  C   UNL A   1     -26.388   0.291  27.233  0.00  0.00    +0.084 C 
ATOM      8 BR   UNL A   1     -26.623   0.980  26.133  0.00  0.00    -0.076 Br
BRANCH   7   9
ATOM      9  C   UNL A   1     -25.166  -0.627  27.341  0.00  0.00    +0.042 C 
BRANCH   9  10
ATOM     10  C   UNL A   1     -24.145  -0.380  28.355  0.00  0.00    -0.029 C 
ATOM     11  C   UNL A   1     -23.346   0.727  28.314  0.00  0.00    -0.030 C 
ATOM     12  C   UNL A   1     -22.239   0.805  29.219  0.00  0.00    +0.030 C 
ENDBRANCH   9  10
ENDBRANCH   7   9
ENDBRANCH   3   7
TORSDOF 3
