MODEL 1976
MODEL 1
REMARK VINA RESULT:    -4.204      0.000      0.000
REMARK INTER + INTRA:          -4.885
REMARK INTER:                  -4.696
REMARK INTRA:                  -0.189
REMARK UNBOUND:                -0.189
REMARK  Name = No_1976-gen_results/8p0m/2024-11-26-14-13-15/
REMARK  2 active torsions:
REMARK  status: ('A' for Active; 'I' for Inactive)
REMARK    1  A    between atoms: C_2  and  C_3
REMARK    2  A    between atoms: C_3  and  C_4
REMARK                            x       y       z     vdW  Elec       q    Type
REMARK                         _______ _______ _______ _____ _____    ______ ____
ROOT
ATOM      1  C   UNL A   1      -9.243  -9.411  19.438  0.00  0.00    +0.103 C 
ENDROOT
BRANCH   1   2
ATOM      2  C   UNL A   1      -8.057  -9.861  20.065  0.00  0.00    -0.017 C 
ATOM      3  C   UNL A   1      -7.239  -9.316  20.276  0.00  0.00    -0.029 C 
ATOM      4  C   UNL A   1      -7.013  -7.969  19.550  0.00  0.00    +0.030 C 
ENDBRANCH   1   2
BRANCH   1   6
ATOM      5  C   UNL A   1      -9.343 -10.532  17.365  0.00  0.00    -0.014 C 
ATOM      6  C   UNL A   1      -9.851  -9.950  18.295  0.00  0.00    -0.073 C 
ENDBRANCH   1   6
TORSDOF 2
ENDMDL
ENDMDL
