MODEL 1977
MODEL 1
REMARK VINA RESULT:    -4.244      0.000      0.000
REMARK INTER + INTRA:          -4.244
REMARK INTER:                  -4.244
REMARK INTRA:                   0.000
REMARK UNBOUND:                 0.000
REMARK  Name = No_1977-gen_results/8p0m/2024-11-26-14-13-15/
REMARK  0 active torsions:
REMARK  status: ('A' for Active; 'I' for Inactive)
REMARK                            x       y       z     vdW  Elec       q    Type
REMARK                         _______ _______ _______ _____ _____    ______ ____
ROOT
ATOM      1  C   UNL A   1     -24.136  -4.841  28.685  0.00  0.00    +0.000 A 
ATOM      2  C   UNL A   1     -25.037  -5.287  29.002  0.00  0.00    +0.000 A 
ATOM      3  C   UNL A   1     -24.066  -3.373  28.754  0.00  0.00    +0.000 A 
ATOM      4  C   UNL A   1     -25.120  -2.625  29.355  0.00  0.00    +0.000 A 
ATOM      5  C   UNL A   1     -26.236  -4.755  29.706  0.00  0.00    +0.000 A 
ATOM      6  C   UNL A   1     -26.212  -3.394  29.780  0.00  0.00    +0.000 A 
ENDROOT
TORSDOF 0
ENDMDL
ENDMDL
