MODEL 1978
MODEL 1
REMARK VINA RESULT:    -5.158      0.000      0.000
REMARK INTER + INTRA:          -5.510
REMARK INTER:                  -5.459
REMARK INTRA:                  -0.051
REMARK UNBOUND:                -0.051
REMARK  Name = No_1978-gen_results/8p0m/2024-11-26-14-13-15/
REMARK  1 active torsions:
REMARK  status: ('A' for Active; 'I' for Inactive)
REMARK    1  A    between atoms: C_5  and  P_8
REMARK                            x       y       z     vdW  Elec       q    Type
REMARK                         _______ _______ _______ _____ _____    ______ ____
ROOT
ATOM      1 CL   UNL A   1     -30.388 -10.193  28.977  0.00  0.00    -0.082 Cl
ATOM      2  C   UNL A   1     -29.804 -10.544  30.247  0.00  0.00    +0.058 A 
ATOM      3  C   UNL A   1     -29.998 -10.058  31.303  0.00  0.00    +0.011 A 
ATOM      4  C   UNL A   1     -29.369 -10.490  32.549  0.00  0.00    +0.004 A 
ATOM      5  C   UNL A   1     -28.408 -11.546  32.510  0.00  0.00    +0.029 A 
ATOM      6  C   UNL A   1     -28.184 -12.099  31.291  0.00  0.00    +0.004 A 
ATOM      7  C   UNL A   1     -28.817 -11.673  30.187  0.00  0.00    +0.011 A 
ENDROOT
BRANCH   5   8
ATOM      8  P   UNL A   1     -27.553 -12.048  33.976  0.00  0.00    +0.140 P 
ATOM      9  O   UNL A   1     -26.551 -12.781  33.473  0.00  0.00    -0.354 OA
ATOM     10  O   UNL A   1     -26.991 -10.624  34.477  0.00  0.00    -0.456 OA
ATOM     11  O   UNL A   1     -28.581 -12.645  34.814  0.00  0.00    -0.354 OA
ENDBRANCH   5   8
TORSDOF 1
ENDMDL
ENDMDL
