REMARK  Name = No_1978-gen_results/8p0m/2024-11-26-14-13-15/
REMARK  1 active torsions:
REMARK  status: ('A' for Active; 'I' for Inactive)
REMARK    1  A    between atoms: C_5  and  P_8
REMARK                            x       y       z     vdW  Elec       q    Type
REMARK                         _______ _______ _______ _____ _____    ______ ____
ROOT
ATOM      1 CL   UNL A   1     -28.149  -0.820  28.908  0.00  0.00    -0.082 Cl
ATOM      2  C   UNL A   1     -26.912  -0.080  28.945  0.00  0.00    +0.058 A 
ATOM      3  C   UNL A   1     -26.738   1.044  29.253  0.00  0.00    +0.011 A 
ATOM      4  C   UNL A   1     -25.439   1.712  29.276  0.00  0.00    +0.004 A 
ATOM      5  C   UNL A   1     -24.281   0.989  28.854  0.00  0.00    +0.029 A 
ATOM      6  C   UNL A   1     -24.487  -0.304  28.496  0.00  0.00    +0.004 A 
ATOM      7  C   UNL A   1     -25.705  -0.867  28.524  0.00  0.00    +0.011 A 
ENDROOT
BRANCH   5   8
ATOM      8  P   UNL A   1     -22.698   1.777  28.780  0.00  0.00    +0.140 P 
ATOM      9  O   UNL A   1     -21.870   0.725  28.721  0.00  0.00    -0.354 OA
ATOM     10  O   UNL A   1     -22.798   2.475  27.332  0.00  0.00    -0.456 OA
ATOM     11  O   UNL A   1     -22.688   2.687  29.914  0.00  0.00    -0.354 OA
ENDBRANCH   5   8
TORSDOF 1
