MODEL 1979
MODEL 1
REMARK VINA RESULT:    -5.348      0.000      0.000
REMARK INTER + INTRA:          -6.210
REMARK INTER:                  -5.973
REMARK INTRA:                  -0.237
REMARK UNBOUND:                -0.237
REMARK  Name = No_1979-gen_results/8p0m/2024-11-26-14-13-15/
REMARK  2 active torsions:
REMARK  status: ('A' for Active; 'I' for Inactive)
REMARK    1  A    between atoms: C_2  and  C_3
REMARK    2  A    between atoms: C_3  and  C_4
REMARK                            x       y       z     vdW  Elec       q    Type
REMARK                         _______ _______ _______ _____ _____    ______ ____
ROOT
ATOM      1  C   UNL A   1     -25.742  -2.447  29.452  0.00  0.00    -0.004 A 
ATOM      2  C   UNL A   1     -24.590  -2.559  29.101  0.00  0.00    -0.018 A 
ATOM      3  C   UNL A   1     -26.487  -3.648  29.873  0.00  0.00    -0.000 A 
ATOM      4  C   UNL A   1     -25.972  -4.897  29.569  0.00  0.00    -0.000 A 
ATOM      5  C   UNL A   1     -24.756  -5.063  28.969  0.00  0.00    -0.000 A 
ATOM      6  C   UNL A   1     -24.021  -3.836  28.663  0.00  0.00    -0.004 A 
ENDROOT
BRANCH   2   7
ATOM      7  C   UNL A   1     -23.806  -1.494  28.701  0.00  0.00    +0.052 C 
BRANCH   7   8
ATOM      8  C   UNL A   1     -22.502  -1.155  29.238  0.00  0.00    -0.026 C 
ATOM      9  C   UNL A   1     -21.813   0.011  28.972  0.00  0.00    -0.030 C 
ATOM     10  C   UNL A   1     -22.359   0.867  28.012  0.00  0.00    +0.030 C 
ENDBRANCH   7   8
ENDBRANCH   2   7
TORSDOF 2
ENDMDL
ENDMDL
