REMARK  Name = No_1979-gen_results/8p0m/2024-11-26-14-13-15/
REMARK  2 active torsions:
REMARK  status: ('A' for Active; 'I' for Inactive)
REMARK    1  A    between atoms: C_2  and  C_3
REMARK    2  A    between atoms: C_3  and  C_4
REMARK                            x       y       z     vdW  Elec       q    Type
REMARK                         _______ _______ _______ _____ _____    ______ ____
ROOT
ATOM      1  C   UNL A   1     -28.016  -0.814  28.878  0.00  0.00    -0.004 A 
ATOM      2  C   UNL A   1     -27.064  -0.119  28.608  0.00  0.00    -0.018 A 
ATOM      3  C   UNL A   1     -27.987  -1.633  30.104  0.00  0.00    -0.000 A 
ATOM      4  C   UNL A   1     -26.777  -1.833  30.747  0.00  0.00    -0.000 A 
ATOM      5  C   UNL A   1     -25.621  -1.229  30.340  0.00  0.00    -0.000 A 
ATOM      6  C   UNL A   1     -25.733  -0.352  29.175  0.00  0.00    -0.004 A 
ENDROOT
BRANCH   2   7
ATOM      7  C   UNL A   1     -27.001   0.691  27.491  0.00  0.00    +0.052 C 
BRANCH   7   8
ATOM      8  C   UNL A   1     -25.855   1.482  27.083  0.00  0.00    -0.026 C 
ATOM      9  C   UNL A   1     -25.823   2.330  25.994  0.00  0.00    -0.030 C 
ATOM     10  C   UNL A   1     -26.938   2.324  25.152  0.00  0.00    +0.030 C 
ENDBRANCH   7   8
ENDBRANCH   2   7
TORSDOF 2
