MODEL 1980
MODEL 1
REMARK VINA RESULT:    -5.751      0.000      0.000
REMARK INTER + INTRA:          -5.751
REMARK INTER:                  -5.751
REMARK INTRA:                   0.000
REMARK UNBOUND:                 0.000
REMARK  Name = No_1980-gen_results/8p0m/2024-11-26-14-13-15/
REMARK  0 active torsions:
REMARK  status: ('A' for Active; 'I' for Inactive)
REMARK                            x       y       z     vdW  Elec       q    Type
REMARK                         _______ _______ _______ _____ _____    ______ ____
ROOT
ATOM      1  C   UNL A   1     -24.217  -2.394  30.052  0.00  0.00    +0.060 C 
ATOM      2  C   UNL A   1     -23.747  -1.508  29.376  0.00  0.00    -0.028 C 
ATOM      3  C   UNL A   1     -24.416  -0.917  28.305  0.00  0.00    +0.049 C 
ATOM      4  C   UNL A   1     -23.916   0.156  27.423  0.00  0.00    -0.022 A 
ATOM      5  C   UNL A   1     -22.704   0.786  27.838  0.00  0.00    -0.025 A 
ATOM      6  C   UNL A   1     -22.021   0.253  28.937  0.00  0.00    +0.030 C 
ATOM      7  C   UNL A   1     -22.486  -0.788  29.663  0.00  0.00    +0.028 C 
ATOM      8 CL   UNL A   1     -25.590  -3.419  29.570  0.00  0.00    -0.082 Cl
ATOM      9  C   UNL A   1     -22.242   1.872  27.001  0.00  0.00    -0.005 A 
ATOM     10  C   UNL A   1     -23.105   2.473  26.060  0.00  0.00    -0.000 A 
ATOM     11  C   UNL A   1     -24.291   1.802  25.705  0.00  0.00    -0.000 A 
ATOM     12  C   UNL A   1     -24.800   0.710  26.450  0.00  0.00    -0.004 A 
ENDROOT
TORSDOF 0
ENDMDL
ENDMDL
