REMARK  Name = No_1980-gen_results/8p0m/2024-11-26-14-13-15/
REMARK  0 active torsions:
REMARK  status: ('A' for Active; 'I' for Inactive)
REMARK                            x       y       z     vdW  Elec       q    Type
REMARK                         _______ _______ _______ _____ _____    ______ ____
ROOT
ATOM      1  C   UNL A   1     -28.016  -0.814  28.878  0.00  0.00    +0.060 C 
ATOM      2  C   UNL A   1     -27.064  -0.119  28.608  0.00  0.00    -0.028 C 
ATOM      3  C   UNL A   1     -25.765  -0.390  29.036  0.00  0.00    +0.049 C 
ATOM      4  C   UNL A   1     -24.552   0.406  28.765  0.00  0.00    -0.022 A 
ATOM      5  C   UNL A   1     -24.696   1.448  27.799  0.00  0.00    -0.025 A 
ATOM      6  C   UNL A   1     -25.976   1.725  27.308  0.00  0.00    +0.030 C 
ATOM      7  C   UNL A   1     -27.072   1.013  27.654  0.00  0.00    +0.028 C 
ATOM      8 CL   UNL A   1     -28.062  -2.003  30.202  0.00  0.00    -0.082 Cl
ATOM      9  C   UNL A   1     -23.494   2.194  27.497  0.00  0.00    -0.005 A 
ATOM     10  C   UNL A   1     -22.226   1.698  27.868  0.00  0.00    -0.000 A 
ATOM     11  C   UNL A   1     -22.157   0.661  28.818  0.00  0.00    -0.000 A 
ATOM     12  C   UNL A   1     -23.290  -0.101  29.196  0.00  0.00    -0.004 A 
ENDROOT
TORSDOF 0
