REMARK  Name = No_1981-gen_results/8p0m/2024-11-26-14-13-15/
REMARK  0 active torsions:
REMARK  status: ('A' for Active; 'I' for Inactive)
REMARK                            x       y       z     vdW  Elec       q    Type
REMARK                         _______ _______ _______ _____ _____    ______ ____
ROOT
ATOM      1  C   UNL A   1     -28.016  -0.814  28.878  0.00  0.00    -0.004 A 
ATOM      2  C   UNL A   1     -27.064  -0.119  28.608  0.00  0.00    -0.018 A 
ATOM      3  C   UNL A   1     -25.792  -0.430  29.076  0.00  0.00    -0.002 A 
ATOM      4  C   UNL A   1     -24.546   0.349  28.823  0.00  0.00    +0.017 A 
ATOM      5  C   UNL A   1     -23.241   0.022  29.332  0.00  0.00    +0.002 A 
ATOM      6  C   UNL A   1     -27.882  -1.899  29.863  0.00  0.00    -0.000 A 
ATOM      7  C   UNL A   1     -26.653  -2.314  30.314  0.00  0.00    -0.000 A 
ATOM      8  C   UNL A   1     -25.515  -1.561  29.979  0.00  0.00    -0.000 A 
ATOM      9  C   UNL A   1     -23.216  -1.228  30.050  0.00  0.00    +0.000 A 
ATOM     10  C   UNL A   1     -24.244  -1.937  30.399  0.00  0.00    -0.000 A 
ATOM     11  C   UNL A   1     -24.730   1.641  28.270  0.00  0.00    +0.078 A 
ATOM     12  N   UNL A   1     -23.872   1.926  27.244  0.00  0.00    -0.244 NA
ATOM     13  C   UNL A   1     -24.168   2.765  26.203  0.00  0.00    +0.099 A 
ATOM     14  C   UNL A   1     -25.344   3.500  26.309  0.00  0.00    +0.020 A 
ATOM     15  C   UNL A   1     -26.098   2.070  27.944  0.00  0.00    -0.000 A 
ATOM     16  C   UNL A   1     -26.188   3.393  27.223  0.00  0.00    -0.001 A 
ATOM     17  C   UNL A   1     -27.072   1.546  28.579  0.00  0.00    +0.054 C 
ENDROOT
TORSDOF 0
