MODEL 1981
MODEL 1
REMARK VINA RESULT:    -7.210      0.000      0.000
REMARK INTER + INTRA:          -7.210
REMARK INTER:                  -7.210
REMARK INTRA:                   0.000
REMARK UNBOUND:                 0.000
REMARK  Name = No_1981-gen_results/8p0m/2024-11-26-14-13-15/
REMARK  0 active torsions:
REMARK  status: ('A' for Active; 'I' for Inactive)
REMARK                            x       y       z     vdW  Elec       q    Type
REMARK                         _______ _______ _______ _____ _____    ______ ____
ROOT
ATOM      1  C   UNL A   1     -27.808  -2.064  30.916  0.00  0.00    -0.004 A 
ATOM      2  C   UNL A   1     -26.675  -1.842  30.557  0.00  0.00    -0.018 A 
ATOM      3  C   UNL A   1     -25.903  -2.832  29.959  0.00  0.00    -0.002 A 
ATOM      4  C   UNL A   1     -24.497  -2.686  29.484  0.00  0.00    +0.017 A 
ATOM      5  C   UNL A   1     -23.708  -3.728  28.885  0.00  0.00    +0.002 A 
ATOM      6  C   UNL A   1     -28.330  -3.440  30.899  0.00  0.00    -0.000 A 
ATOM      7  C   UNL A   1     -27.662  -4.456  30.261  0.00  0.00    -0.000 A 
ATOM      8  C   UNL A   1     -26.362  -4.221  29.784  0.00  0.00    -0.000 A 
ATOM      9  C   UNL A   1     -24.451  -4.946  28.677  0.00  0.00    +0.000 A 
ATOM     10  C   UNL A   1     -25.640  -5.209  29.122  0.00  0.00    -0.000 A 
ATOM     11  C   UNL A   1     -23.823  -1.514  29.910  0.00  0.00    +0.078 A 
ATOM     12  N   UNL A   1     -23.120  -0.893  28.915  0.00  0.00    -0.244 NA
ATOM     13  C   UNL A   1     -22.888   0.455  28.862  0.00  0.00    +0.099 A 
ATOM     14  C   UNL A   1     -23.239   1.193  29.987  0.00  0.00    +0.020 A 
ATOM     15  C   UNL A   1     -24.569  -0.536  30.715  0.00  0.00    -0.000 A 
ATOM     16  C   UNL A   1     -23.824   0.747  30.996  0.00  0.00    -0.001 A 
ATOM     17  C   UNL A   1     -25.561  -0.940  31.406  0.00  0.00    +0.054 C 
ENDROOT
TORSDOF 0
ENDMDL
ENDMDL
