MODEL 1982
MODEL 1
REMARK VINA RESULT:    -6.808      0.000      0.000
REMARK INTER + INTRA:          -7.657
REMARK INTER:                  -7.206
REMARK INTRA:                  -0.451
REMARK UNBOUND:                -0.451
REMARK  Name = No_1982-gen_results/8p0m/2024-11-26-14-13-15/
REMARK  1 active torsions:
REMARK  status: ('A' for Active; 'I' for Inactive)
REMARK    1  A    between atoms: C_1  and  C_2
REMARK                            x       y       z     vdW  Elec       q    Type
REMARK                         _______ _______ _______ _____ _____    ______ ____
ROOT
ATOM      1  C   UNL A   1     -25.102   0.500  26.001  0.00  0.00    +0.082 A 
ATOM      2  C   UNL A   1     -25.012  -0.726  26.803  0.00  0.00    +0.002 A 
ATOM      3  C   UNL A   1     -24.502  -0.689  28.187  0.00  0.00    +0.002 A 
ATOM      4  C   UNL A   1     -23.536   0.292  28.506  0.00  0.00    -0.005 A 
ATOM      5  C   UNL A   1     -23.282   1.334  27.552  0.00  0.00    +0.011 A 
ATOM      6  C   UNL A   1     -23.895   1.345  26.368  0.00  0.00    +0.061 A 
ATOM      7 CL   UNL A   1     -23.452   2.759  25.474  0.00  0.00    -0.082 Cl
ATOM      8  C   UNL A   1     -24.639  -1.834  29.000  0.00  0.00    +0.151 C 
ATOM      9  N   UNL A   1     -25.168  -1.652  30.182  0.00  0.00    -0.269 NA
ATOM     10  C   UNL A   1     -25.237  -0.568  30.702  0.00  0.00    +0.067 C 
ATOM     11  C   UNL A   1     -24.971   0.554  29.902  0.00  0.00    +0.045 C 
ATOM     12  C   UNL A   1     -23.100   0.225  29.725  0.00  0.00    -0.026 C 
ATOM     13  C   UNL A   1     -24.283   1.455  30.979  0.00  0.00    +0.032 C 
ATOM     14  C   UNL A   1     -23.119   0.916  30.790  0.00  0.00    -0.030 C 
ATOM     15  C   UNL A   1     -22.155  -1.005  29.671  0.00  0.00    +0.031 C 
ATOM     16  C   UNL A   1     -26.427   1.302  30.331  0.00  0.00    +0.007 C 
ENDROOT
BRANCH   1  17
ATOM     17  C   UNL A   1     -25.334   0.323  24.988  0.00  0.00    +0.419 C 
ATOM     18  F   UNL A   1     -24.434   0.197  24.131  0.00  0.00    -0.166 F 
ATOM     19  F   UNL A   1     -26.453   0.772  24.313  0.00  0.00    -0.166 F 
ATOM     20  F   UNL A   1     -25.733  -1.141  24.982  0.00  0.00    -0.166 F 
ENDBRANCH   1  17
TORSDOF 1
ENDMDL
ENDMDL
