REMARK  Name = No_1983-gen_results/8p0m/2024-11-26-14-13-15/
REMARK  4 active torsions:
REMARK  status: ('A' for Active; 'I' for Inactive)
REMARK    1  A    between atoms: C_1  and  C_2
REMARK    2  A    between atoms: C_1  and  N_8
REMARK    3  A    between atoms: C_5  and  C_9
REMARK    4  A    between atoms: N_8  and  C_13
REMARK                            x       y       z     vdW  Elec       q    Type
REMARK                         _______ _______ _______ _____ _____    ______ ____
ROOT
ATOM      1  C   UNL A   1     -27.064  -0.119  28.608  0.00  0.00    -0.001 A 
ATOM      2  C   UNL A   1     -26.876   1.133  28.913  0.00  0.00    -0.003 A 
ATOM      3  C   UNL A   1     -25.688   1.952  28.567  0.00  0.00    +0.004 A 
ATOM      4  C   UNL A   1     -24.639   1.283  27.875  0.00  0.00    +0.071 A 
ATOM      5  C   UNL A   1     -24.807  -0.051  27.604  0.00  0.00    +0.004 A 
ATOM      6  C   UNL A   1     -25.902  -0.767  27.951  0.00  0.00    -0.003 A 
ENDROOT
BRANCH   4   7
ATOM      7  C   UNL A   1     -23.454   1.985  27.477  0.00  0.00    +0.419 C 
ATOM      8  F   UNL A   1     -23.410   2.415  26.375  0.00  0.00    -0.166 F 
ATOM      9  F   UNL A   1     -23.086   2.949  28.403  0.00  0.00    -0.166 F 
ATOM     10  F   UNL A   1     -22.310   1.139  27.631  0.00  0.00    -0.166 F 
ENDBRANCH   4   7
BRANCH   1  11
ATOM     11  C   UNL A   1     -28.016  -0.814  28.878  0.00  0.00    +0.139 C 
BRANCH  11  12
ATOM     12  N   UNL A   1     -27.998  -1.583  30.102  0.00  0.00    -0.232 NA
BRANCH  12  13
ATOM     13  C   UNL A   1     -29.049  -2.336  30.587  0.00  0.00    +0.081 C 
ATOM     14  C   UNL A   1     -30.135  -1.951  30.505  0.00  0.00    +0.019 C 
ENDBRANCH  12  13
ENDBRANCH  11  12
ENDBRANCH   1  11
TORSDOF 4
