MODEL 1983
MODEL 1
REMARK VINA RESULT:    -5.778      0.000      0.000
REMARK INTER + INTRA:          -7.519
REMARK INTER:                  -7.129
REMARK INTRA:                  -0.389
REMARK UNBOUND:                -0.389
REMARK  Name = No_1983-gen_results/8p0m/2024-11-26-14-13-15/
REMARK  4 active torsions:
REMARK  status: ('A' for Active; 'I' for Inactive)
REMARK    1  A    between atoms: C_1  and  C_2
REMARK    2  A    between atoms: C_1  and  N_8
REMARK    3  A    between atoms: C_5  and  C_9
REMARK    4  A    between atoms: N_8  and  C_13
REMARK                            x       y       z     vdW  Elec       q    Type
REMARK                         _______ _______ _______ _____ _____    ______ ____
ROOT
ATOM      1  C   UNL A   1     -23.984  -1.746  29.028  0.00  0.00    -0.001 A 
ATOM      2  C   UNL A   1     -24.779  -1.164  28.177  0.00  0.00    -0.003 A 
ATOM      3  C   UNL A   1     -24.487   0.068  27.403  0.00  0.00    +0.004 A 
ATOM      4  C   UNL A   1     -23.232   0.690  27.656  0.00  0.00    +0.071 A 
ATOM      5  C   UNL A   1     -22.416   0.114  28.596  0.00  0.00    +0.004 A 
ATOM      6  C   UNL A   1     -22.727  -1.004  29.293  0.00  0.00    -0.003 A 
ENDROOT
BRANCH   4   7
ATOM      7  C   UNL A   1     -22.841   1.875  26.950  0.00  0.00    +0.419 C 
ATOM      8  F   UNL A   1     -23.276   2.911  27.325  0.00  0.00    -0.166 F 
ATOM      9  F   UNL A   1     -21.468   1.946  26.775  0.00  0.00    -0.166 F 
ATOM     10  F   UNL A   1     -23.195   1.759  25.568  0.00  0.00    -0.166 F 
ENDBRANCH   4   7
BRANCH   1  11
ATOM     11  C   UNL A   1     -24.194  -2.745  29.676  0.00  0.00    +0.139 C 
BRANCH  11  12
ATOM     12  N   UNL A   1     -25.489  -3.380  29.587  0.00  0.00    -0.232 NA
BRANCH  12  13
ATOM     13  C   UNL A   1     -25.706  -4.736  29.444  0.00  0.00    +0.081 C 
ATOM     14  C   UNL A   1     -24.888  -5.418  28.994  0.00  0.00    +0.019 C 
ENDBRANCH  12  13
ENDBRANCH  11  12
ENDBRANCH   1  11
TORSDOF 4
ENDMDL
ENDMDL
