MODEL 1985
MODEL 1
REMARK VINA RESULT:    -4.391      0.000      0.000
REMARK INTER + INTRA:          -4.391
REMARK INTER:                  -4.391
REMARK INTRA:                   0.000
REMARK UNBOUND:                 0.000
REMARK  Name = No_1985-gen_results/8p0m/2024-11-26-14-13-15/
REMARK  0 active torsions:
REMARK  status: ('A' for Active; 'I' for Inactive)
REMARK                            x       y       z     vdW  Elec       q    Type
REMARK                         _______ _______ _______ _____ _____    ______ ____
ROOT
ATOM      1  C   UNL A   1     -25.381  -2.601  29.703  0.00  0.00    +0.011 A 
ATOM      2  C   UNL A   1     -24.306  -2.879  29.224  0.00  0.00    +0.058 A 
ATOM      3  C   UNL A   1     -24.015  -4.175  28.813  0.00  0.00    +0.011 A 
ATOM      4  C   UNL A   1     -24.970  -5.239  28.988  0.00  0.00    +0.001 A 
ATOM      5  C   UNL A   1     -26.178  -4.835  29.571  0.00  0.00    +0.000 A 
ATOM      6  C   UNL A   1     -26.397  -3.599  29.957  0.00  0.00    +0.001 A 
ATOM      7 CL   UNL A   1     -23.038  -1.752  28.988  0.00  0.00    -0.082 Cl
ENDROOT
TORSDOF 0
ENDMDL
ENDMDL
