MODEL 1986
MODEL 1
REMARK VINA RESULT:    -4.254      0.000      0.000
REMARK INTER + INTRA:          -4.254
REMARK INTER:                  -4.254
REMARK INTRA:                   0.000
REMARK UNBOUND:                 0.000
REMARK  Name = No_1986-gen_results/8p0m/2024-11-26-14-13-15/
REMARK  0 active torsions:
REMARK  status: ('A' for Active; 'I' for Inactive)
REMARK                            x       y       z     vdW  Elec       q    Type
REMARK                         _______ _______ _______ _____ _____    ______ ____
ROOT
ATOM      1  C   UNL A   1     -24.937  -5.367  28.930  0.00  0.00    +0.000 A 
ATOM      2  C   UNL A   1     -24.135  -4.718  28.716  0.00  0.00    +0.000 A 
ATOM      3  C   UNL A   1     -26.106  -4.771  29.596  0.00  0.00    +0.000 A 
ATOM      4  C   UNL A   1     -26.184  -3.363  29.802  0.00  0.00    +0.000 A 
ATOM      5  C   UNL A   1     -23.987  -3.238  28.772  0.00  0.00    +0.000 A 
ATOM      6  C   UNL A   1     -25.049  -2.650  29.394  0.00  0.00    +0.000 A 
ENDROOT
TORSDOF 0
ENDMDL
ENDMDL
