REMARK  Name = No_1987-gen_results/8p0m/2024-11-26-14-13-15/
REMARK  4 active torsions:
REMARK  status: ('A' for Active; 'I' for Inactive)
REMARK    1  A    between atoms: N_3  and  C_8
REMARK    2  A    between atoms: C_5  and  C_14
REMARK    3  A    between atoms: N_15  and  C_17
REMARK    4  A    between atoms: C_17  and  C_18
REMARK                            x       y       z     vdW  Elec       q    Type
REMARK                         _______ _______ _______ _____ _____    ______ ____
ROOT
ATOM      1  C   UNL A   1     -28.016  -0.814  28.878  0.00  0.00    +0.067 C 
ATOM      2  C   UNL A   1     -27.064  -0.119  28.608  0.00  0.00    +0.244 C 
ATOM      3  N   UNL A   1     -25.818  -0.343  29.049  0.00  0.00    -0.232 N 
ATOM      4  C   UNL A   1     -25.555  -1.473  29.730  0.00  0.00    +0.232 C 
ATOM      5  C   UNL A   1     -27.855  -1.929  29.813  0.00  0.00    +0.092 C 
ATOM      6  C   UNL A   1     -26.552  -2.247  30.209  0.00  0.00    +0.095 C 
ATOM      7  F   UNL A   1     -27.195   1.020  27.925  0.00  0.00    -0.214 F 
ATOM      8  O   UNL A   1     -24.355  -1.782  30.172  0.00  0.00    -0.275 OA
ENDROOT
BRANCH   3   9
ATOM      9  C   UNL A   1     -24.631   0.502  28.656  0.00  0.00    +0.056 A 
ATOM     10  C   UNL A   1     -23.463   0.140  29.076  0.00  0.00    +0.015 A 
ATOM     11  C   UNL A   1     -22.378   1.053  28.821  0.00  0.00    +0.001 A 
ATOM     12  C   UNL A   1     -22.523   2.091  27.837  0.00  0.00    +0.000 A 
ATOM     13  C   UNL A   1     -24.765   1.573  27.784  0.00  0.00    +0.015 A 
ATOM     14  C   UNL A   1     -23.693   2.327  27.378  0.00  0.00    +0.001 A 
ENDBRANCH   3   9
BRANCH   5  15
ATOM     15  C   UNL A   1     -28.971  -2.788  30.221  0.00  0.00    +0.242 C 
ATOM     16  N   UNL A   1     -30.064  -2.328  30.494  0.00  0.00    -0.196 NA
ATOM     17  O   UNL A   1     -28.745  -4.045  30.394  0.00  0.00    -0.273 OA
BRANCH  16  18
ATOM     18  C   UNL A   1     -31.241  -3.142  30.926  0.00  0.00    +0.218 C 
BRANCH  18  19
ATOM     19  C   UNL A   1     -32.227  -3.111  30.116  0.00  0.00    +0.417 C 
ATOM     20  F   UNL A   1     -32.468  -2.081  29.510  0.00  0.00    -0.168 F 
ATOM     21  F   UNL A   1     -33.410  -3.446  30.771  0.00  0.00    -0.168 F 
ATOM     22  F   UNL A   1     -32.074  -4.132  29.158  0.00  0.00    -0.168 F 
ENDBRANCH  18  19
ENDBRANCH  16  18
ENDBRANCH   5  15
TORSDOF 4
