MODEL 1987
MODEL 1
REMARK VINA RESULT:    -6.285      0.000      0.000
REMARK INTER + INTRA:          -8.470
REMARK INTER:                  -7.755
REMARK INTRA:                  -0.716
REMARK UNBOUND:                -0.716
REMARK  Name = No_1987-gen_results/8p0m/2024-11-26-14-13-15/
REMARK  4 active torsions:
REMARK  status: ('A' for Active; 'I' for Inactive)
REMARK    1  A    between atoms: N_3  and  C_8
REMARK    2  A    between atoms: C_5  and  C_14
REMARK    3  A    between atoms: N_15  and  C_17
REMARK    4  A    between atoms: C_17  and  C_18
REMARK                            x       y       z     vdW  Elec       q    Type
REMARK                         _______ _______ _______ _____ _____    ______ ____
ROOT
ATOM      1  C   UNL A   1     -11.071   0.857  36.021  0.00  0.00    +0.067 C 
ATOM      2  C   UNL A   1      -9.974   0.349  35.991  0.00  0.00    +0.244 C 
ATOM      3  N   UNL A   1      -9.012   0.682  35.120  0.00  0.00    -0.232 N 
ATOM      4  C   UNL A   1      -9.203   1.731  34.299  0.00  0.00    +0.232 C 
ATOM      5  C   UNL A   1     -11.439   1.841  35.001  0.00  0.00    +0.092 C 
ATOM      6  C   UNL A   1     -10.426   2.281  34.144  0.00  0.00    +0.095 C 
ATOM      7  F   UNL A   1      -9.658  -0.690  36.768  0.00  0.00    -0.214 F 
ATOM      8  O   UNL A   1      -8.299   2.141  33.436  0.00  0.00    -0.275 OA
ENDROOT
BRANCH   3   9
ATOM      9  C   UNL A   1      -7.629   0.077  35.133  0.00  0.00    +0.056 A 
ATOM     10  C   UNL A   1      -6.722   0.654  35.852  0.00  0.00    +0.015 A 
ATOM     11  C   UNL A   1      -5.379   0.149  35.716  0.00  0.00    +0.001 A 
ATOM     12  C   UNL A   1      -5.149  -1.141  35.126  0.00  0.00    +0.000 A 
ATOM     13  C   UNL A   1      -7.359  -1.119  34.485  0.00  0.00    +0.015 A 
ATOM     14  C   UNL A   1      -6.121  -1.710  34.522  0.00  0.00    +0.001 A 
ENDBRANCH   3   9
BRANCH   5  15
ATOM     15  C   UNL A   1     -12.764   2.468  34.947  0.00  0.00    +0.242 C 
ATOM     16  N   UNL A   1     -13.457   2.581  35.941  0.00  0.00    -0.196 NA
ATOM     17  O   UNL A   1     -13.235   2.804  33.796  0.00  0.00    -0.273 OA
BRANCH  16  18
ATOM     18  C   UNL A   1     -14.818   3.199  35.956  0.00  0.00    +0.218 C 
BRANCH  18  19
ATOM     19  C   UNL A   1     -15.085   3.856  37.017  0.00  0.00    +0.417 C 
ATOM     20  F   UNL A   1     -14.262   4.644  37.453  0.00  0.00    -0.168 F 
ATOM     21  F   UNL A   1     -15.370   2.992  38.072  0.00  0.00    -0.168 F 
ATOM     22  F   UNL A   1     -16.286   4.568  36.834  0.00  0.00    -0.168 F 
ENDBRANCH  18  19
ENDBRANCH  16  18
ENDBRANCH   5  15
TORSDOF 4
ENDMDL
ENDMDL
