MODEL 1988
MODEL 1
REMARK VINA RESULT:    -4.724      0.000      0.000
REMARK INTER + INTRA:          -5.824
REMARK INTER:                  -5.552
REMARK INTRA:                  -0.272
REMARK UNBOUND:                -0.272
REMARK  Name = No_1988-gen_results/8p0m/2024-11-26-14-13-15/
REMARK  3 active torsions:
REMARK  status: ('A' for Active; 'I' for Inactive)
REMARK    1  A    between atoms: C_2  and  C_7
REMARK    2  A    between atoms: C_7  and  N_8
REMARK    3  A    between atoms: N_8  and  C_9
REMARK                            x       y       z     vdW  Elec       q    Type
REMARK                         _______ _______ _______ _____ _____    ______ ____
ROOT
ATOM      1  C   UNL A   1     -23.811  -3.425  28.573  0.00  0.00    -0.003 A 
ATOM      2  C   UNL A   1     -24.500  -2.828  29.102  0.00  0.00    -0.001 A 
ATOM      3  C   UNL A   1     -24.115  -4.906  28.553  0.00  0.00    -0.000 A 
ATOM      4  C   UNL A   1     -25.331  -5.370  29.097  0.00  0.00    -0.000 A 
ATOM      5  C   UNL A   1     -25.830  -3.048  29.714  0.00  0.00    -0.003 A 
ATOM      6  C   UNL A   1     -26.146  -4.400  29.709  0.00  0.00    -0.000 A 
ENDROOT
BRANCH   2   7
ATOM      7  C   UNL A   1     -24.210  -1.249  29.128  0.00  0.00    +0.139 C 
BRANCH   7   8
ATOM      8  N   UNL A   1     -23.140  -0.913  29.681  0.00  0.00    -0.232 NA
BRANCH   8   9
ATOM      9  C   UNL A   1     -22.829  -0.432  30.575  0.00  0.00    +0.081 C 
ATOM     10  C   UNL A   1     -23.040  -0.940  31.949  0.00  0.00    +0.019 C 
ENDBRANCH   8   9
ENDBRANCH   7   8
ENDBRANCH   2   7
TORSDOF 3
ENDMDL
ENDMDL
