MODEL 1989
MODEL 1
REMARK VINA RESULT:    -4.265      0.000      0.000
REMARK INTER + INTRA:          -4.265
REMARK INTER:                  -4.265
REMARK INTRA:                   0.000
REMARK UNBOUND:                 0.000
REMARK  Name = No_1989-gen_results/8p0m/2024-11-26-14-13-15/
REMARK  0 active torsions:
REMARK  status: ('A' for Active; 'I' for Inactive)
REMARK                            x       y       z     vdW  Elec       q    Type
REMARK                         _______ _______ _______ _____ _____    ______ ____
ROOT
ATOM      1  C   UNL A   1     -24.956  -5.368  28.950  0.00  0.00    +0.000 A 
ATOM      2  C   UNL A   1     -24.135  -4.744  28.731  0.00  0.00    +0.000 A 
ATOM      3  C   UNL A   1     -26.102  -4.737  29.625  0.00  0.00    +0.000 A 
ATOM      4  C   UNL A   1     -26.134  -3.327  29.832  0.00  0.00    +0.000 A 
ATOM      5  C   UNL A   1     -23.941  -3.269  28.787  0.00  0.00    +0.000 A 
ATOM      6  C   UNL A   1     -24.980  -2.650  29.416  0.00  0.00    +0.000 A 
ENDROOT
TORSDOF 0
ENDMDL
ENDMDL
