MODEL 198
MODEL 1
REMARK VINA RESULT:    -7.244      0.000      0.000
REMARK INTER + INTRA:          -8.638
REMARK INTER:                  -8.091
REMARK INTRA:                  -0.547
REMARK UNBOUND:                -0.547
REMARK  Name = No_198-gen_results/8p0m/2024-11-26-14-13-15/
REMARK  2 active torsions:
REMARK  status: ('A' for Active; 'I' for Inactive)
REMARK    1  A    between atoms: C_3  and  C_7
REMARK    2  A    between atoms: C_6  and  C_13
REMARK                            x       y       z     vdW  Elec       q    Type
REMARK                         _______ _______ _______ _____ _____    ______ ____
ROOT
ATOM      1  C   UNL A   1     -24.530   0.412  27.024  0.00  0.00    +0.004 A 
ATOM      2  C   UNL A   1     -24.967  -0.650  27.405  0.00  0.00    -0.000 A 
ATOM      3  C   UNL A   1     -24.336  -1.446  28.360  0.00  0.00    -0.000 A 
ATOM      4  C   UNL A   1     -23.056  -1.024  28.896  0.00  0.00    -0.000 A 
ATOM      5  C   UNL A   1     -22.580   0.195  28.415  0.00  0.00    +0.004 A 
ATOM      6  C   UNL A   1     -23.241   0.888  27.524  0.00  0.00    +0.071 A 
ENDROOT
BRANCH   3   7
ATOM      7  C   UNL A   1     -24.808  -2.755  28.882  0.00  0.00    -0.000 A 
ATOM      8  C   UNL A   1     -24.179  -3.865  28.614  0.00  0.00    -0.000 A 
ATOM      9  C   UNL A   1     -24.684  -5.135  29.060  0.00  0.00    +0.000 A 
ATOM     10  C   UNL A   1     -25.889  -5.278  29.660  0.00  0.00    +0.000 A 
ATOM     11  C   UNL A   1     -26.109  -2.871  29.528  0.00  0.00    -0.000 A 
ATOM     12  C   UNL A   1     -26.622  -4.143  29.909  0.00  0.00    +0.000 A 
ENDBRANCH   3   7
BRANCH   6  13
ATOM     13  C   UNL A   1     -22.625   2.151  27.025  0.00  0.00    +0.419 C 
ATOM     14  F   UNL A   1     -23.330   3.163  27.321  0.00  0.00    -0.166 F 
ATOM     15  F   UNL A   1     -21.384   2.286  27.633  0.00  0.00    -0.166 F 
ATOM     16  F   UNL A   1     -22.412   2.187  25.764  0.00  0.00    -0.166 F 
ENDBRANCH   6  13
TORSDOF 2
ENDMDL
ENDMDL
