REMARK  Name = No_199-gen_results/8p0m/2024-11-26-14-13-15/
REMARK  4 active torsions:
REMARK  status: ('A' for Active; 'I' for Inactive)
REMARK    1  A    between atoms: C_5  and  C_11
REMARK    2  A    between atoms: C_10  and  C_15
REMARK    3  A    between atoms: C_10  and  C_16
REMARK    4  A    between atoms: C_16  and  C_17
REMARK                            x       y       z     vdW  Elec       q    Type
REMARK                         _______ _______ _______ _____ _____    ______ ____
ROOT
ATOM      1  C   UNL A   1     -28.016  -0.814  28.878  0.00  0.00    +0.000 C 
ATOM      2  C   UNL A   1     -27.064  -0.119  28.608  0.00  0.00    +0.000 C 
ATOM      3  C   UNL A   1     -26.876   1.133  28.913  0.00  0.00    +0.004 C 
ATOM      4  C   UNL A   1     -25.688   1.952  28.567  0.00  0.00    +0.009 C 
ATOM      5  C   UNL A   1     -24.639   1.283  27.875  0.00  0.00    +0.095 C 
ATOM      6  C   UNL A   1     -24.807  -0.051  27.604  0.00  0.00    +0.009 C 
ATOM      7  C   UNL A   1     -25.902  -0.767  27.951  0.00  0.00    +0.000 C 
ATOM      8  C   UNL A   1     -28.645  -0.528  30.243  0.00  0.00    +0.000 C 
ATOM      9  C   UNL A   1     -28.912   0.796  30.435  0.00  0.00    +0.004 C 
ATOM     10  C   UNL A   1     -27.675   1.649  30.099  0.00  0.00    +0.025 C 
ENDROOT
BRANCH  10  11
ATOM     11  C   UNL A   1     -26.910   2.098  31.280  0.00  0.00    -0.022 A 
ATOM     12  C   UNL A   1     -26.952   2.891  32.012  0.00  0.00    -0.004 A 
ATOM     13  C   UNL A   1     -25.826   1.015  31.649  0.00  0.00    -0.004 A 
ATOM     14  C   UNL A   1     -26.113   3.259  33.136  0.00  0.00    -0.000 A 
ATOM     15  C   UNL A   1     -25.159   2.302  33.464  0.00  0.00    -0.000 A 
ATOM     16  C   UNL A   1     -24.985   1.243  32.650  0.00  0.00    -0.000 A 
ENDBRANCH  10  11
BRANCH   5  17
ATOM     17  C   UNL A   1     -23.471   1.973  27.367  0.00  0.00    +0.398 C 
ATOM     18  F   UNL A   1     -23.492   2.507  26.298  0.00  0.00    -0.170 F 
ATOM     19  F   UNL A   1     -23.167   3.075  28.289  0.00  0.00    -0.170 F 
ATOM     20  F   UNL A   1     -22.303   1.246  27.549  0.00  0.00    -0.170 F 
ENDBRANCH   5  17
BRANCH  10  21
ATOM     21  C   UNL A   1     -28.276   2.996  29.352  0.00  0.00    +0.053 C 
BRANCH  21  22
ATOM     22  C   UNL A   1     -29.251   3.601  30.053  0.00  0.00    +0.096 C 
ATOM     23  N   UNL A   1     -29.723   4.618  29.515  0.00  0.00    -0.151 NA
ENDBRANCH  21  22
ENDBRANCH  10  21
TORSDOF 4
