REMARK  Name = No_1990-gen_results/8p0m/2024-11-26-14-13-15/
REMARK  1 active torsions:
REMARK  status: ('A' for Active; 'I' for Inactive)
REMARK    1  A    between atoms: C_3  and  C_9
REMARK                            x       y       z     vdW  Elec       q    Type
REMARK                         _______ _______ _______ _____ _____    ______ ____
ROOT
ATOM      1  O   UNL A   1     -28.123  -1.335  28.487  0.00  0.00    -0.273 OA
ATOM      2  C   UNL A   1     -28.521  -0.436  29.078  0.00  0.00    +0.245 C 
ATOM      3  C   UNL A   1     -27.666   0.113  30.035  0.00  0.00    +0.102 C 
ATOM      4  N   UNL A   1     -29.742   0.110  28.887  0.00  0.00    -0.204 NA
ATOM      5  C   UNL A   1     -27.840   1.229  30.642  0.00  0.00    +0.032 C 
ATOM      6  C   UNL A   1     -30.078   1.281  29.595  0.00  0.00    +0.131 C 
ATOM      7  C   UNL A   1     -29.156   1.819  30.502  0.00  0.00    +0.102 C 
ATOM      8 CL   UNL A   1     -29.535   3.236  31.341  0.00  0.00    -0.113 Cl
ENDROOT
BRANCH   3   9
ATOM      9  C   UNL A   1     -26.296  -0.559  30.201  0.00  0.00    -0.014 A 
ATOM     10  C   UNL A   1     -25.686  -0.602  31.129  0.00  0.00    -0.004 A 
ATOM     11  C   UNL A   1     -24.309  -1.161  31.260  0.00  0.00    -0.000 A 
ATOM     12  C   UNL A   1     -23.794  -1.909  30.200  0.00  0.00    -0.000 A 
ATOM     13  C   UNL A   1     -24.657  -2.025  29.067  0.00  0.00    -0.000 A 
ATOM     14  C   UNL A   1     -25.869  -1.367  29.034  0.00  0.00    -0.004 A 
ENDBRANCH   3   9
TORSDOF 1
