REMARK  Name = No_1991-gen_results/8p0m/2024-11-26-14-13-15/
REMARK  7 active torsions:
REMARK  status: ('A' for Active; 'I' for Inactive)
REMARK    1  A    between atoms: C_2  and  C_7
REMARK    2  A    between atoms: C_3  and  C_21
REMARK    3  A    between atoms: C_9  and  C_10
REMARK    4  A    between atoms: C_11  and  C_12
REMARK    5  A    between atoms: C_15  and  N_28
REMARK    6  A    between atoms: C_21  and  C_22
REMARK    7  A    between atoms: N_28  and  C_29
REMARK                            x       y       z     vdW  Elec       q    Type
REMARK                         _______ _______ _______ _____ _____    ______ ____
ROOT
ATOM      1  C   UNL A   1     -30.074  -0.836  29.861  0.00  0.00    +0.083 A 
ATOM      2  N   UNL A   1     -30.653  -1.794  30.268  0.00  0.00    -0.230 NA
ATOM      3  C   UNL A   1     -30.755   0.259  29.238  0.00  0.00    +0.018 A 
ATOM      4  C   UNL A   1     -31.963  -0.162  28.622  0.00  0.00    +0.004 A 
ATOM      5  C   UNL A   1     -32.682  -1.077  29.204  0.00  0.00    +0.035 A 
ATOM      6  C   UNL A   1     -31.949  -2.054  29.974  0.00  0.00    +0.135 A 
ENDROOT
BRANCH   1   8
ATOM      7  C   UNL A   1     -28.016  -0.814  28.878  0.00  0.00    -0.002 A 
ATOM      8  C   UNL A   1     -28.469  -0.785  29.829  0.00  0.00    +0.017 A 
ATOM      9  C   UNL A   1     -26.504  -0.778  28.877  0.00  0.00    -0.018 A 
ATOM     10  C   UNL A   1     -25.810  -0.853  30.103  0.00  0.00    -0.004 A 
ATOM     11  C   UNL A   1     -27.991  -0.892  31.226  0.00  0.00    +0.002 A 
ATOM     12  C   UNL A   1     -26.604  -0.868  31.265  0.00  0.00    -0.000 A 
BRANCH   9  13
ATOM     13  C   UNL A   1     -25.710  -0.636  27.637  0.00  0.00    +0.053 C 
BRANCH  13  14
ATOM     14  C   UNL A   1     -25.304   0.730  27.304  0.00  0.00    -0.018 A 
ATOM     15  C   UNL A   1     -25.509   1.158  26.035  0.00  0.00    -0.004 A 
ATOM     16  C   UNL A   1     -25.144   2.494  25.780  0.00  0.00    -0.000 A 
ATOM     17  C   UNL A   1     -24.488   3.322  26.715  0.00  0.00    -0.000 A 
ATOM     18  C   UNL A   1     -24.127   2.760  27.942  0.00  0.00    -0.000 A 
ATOM     19  C   UNL A   1     -24.573   1.522  28.271  0.00  0.00    -0.004 A 
ENDBRANCH  13  14
ENDBRANCH   9  13
ENDBRANCH   1   8
BRANCH   3  20
ATOM     20  C   UNL A   1     -30.228   1.387  28.962  0.00  0.00    +0.002 C 
ATOM     21  C   UNL A   1     -30.152   2.226  28.379  0.00  0.00    +0.000 C 
BRANCH  21  22
ATOM     22  C   UNL A   1     -29.727   3.268  27.872  0.00  0.00    +0.000 A 
ATOM     23  C   UNL A   1     -30.209   3.960  26.795  0.00  0.00    +0.000 A 
ATOM     24  C   UNL A   1     -29.613   5.186  26.229  0.00  0.00    +0.000 A 
ATOM     25  C   UNL A   1     -28.439   5.656  26.805  0.00  0.00    +0.000 A 
ATOM     26  C   UNL A   1     -28.429   3.995  28.267  0.00  0.00    +0.000 A 
ATOM     27  C   UNL A   1     -27.855   5.053  27.798  0.00  0.00    +0.000 A 
ENDBRANCH  21  22
ENDBRANCH   3  20
BRANCH   6  28
ATOM     28  N   UNL A   1     -32.564  -3.151  30.481  0.00  0.00    -0.271 N 
ATOM     29  C   UNL A   1     -33.480  -2.757  31.650  0.00  0.00    +0.119 C 
BRANCH  28  30
ATOM     30  C   UNL A   1     -32.487  -4.252  30.273  0.00  0.00    +0.053 A 
ATOM     31  C   UNL A   1     -33.142  -5.223  30.939  0.00  0.00    +0.015 A 
ATOM     32  C   UNL A   1     -31.635  -4.796  29.167  0.00  0.00    +0.015 A 
ATOM     33  C   UNL A   1     -31.499  -6.142  28.787  0.00  0.00    +0.001 A 
ATOM     34  C   UNL A   1     -33.021  -6.658  30.604  0.00  0.00    +0.001 A 
ATOM     35  C   UNL A   1     -32.184  -7.056  29.566  0.00  0.00    +0.000 A 
ENDBRANCH  28  30
ENDBRANCH   6  28
TORSDOF 7
