MODEL 1991
MODEL 1
REMARK VINA RESULT:    -8.637      0.000      0.000
REMARK INTER + INTRA:         -14.771
REMARK INTER:                 -12.171
REMARK INTRA:                  -2.600
REMARK UNBOUND:                -2.600
REMARK  Name = No_1991-gen_results/8p0m/2024-11-26-14-13-15/
REMARK  7 active torsions:
REMARK  status: ('A' for Active; 'I' for Inactive)
REMARK    1  A    between atoms: C_2  and  C_7
REMARK    2  A    between atoms: C_3  and  C_21
REMARK    3  A    between atoms: C_9  and  C_10
REMARK    4  A    between atoms: C_11  and  C_12
REMARK    5  A    between atoms: C_15  and  N_28
REMARK    6  A    between atoms: C_21  and  C_22
REMARK    7  A    between atoms: N_28  and  C_29
REMARK                            x       y       z     vdW  Elec       q    Type
REMARK                         _______ _______ _______ _____ _____    ______ ____
ROOT
ATOM      1  C   UNL A   1     -10.052   0.319  37.137  0.00  0.00    +0.083 A 
ATOM      2  N   UNL A   1      -8.906   0.081  36.920  0.00  0.00    -0.230 NA
ATOM      3  C   UNL A   1     -10.706   1.475  36.600  0.00  0.00    +0.018 A 
ATOM      4  C   UNL A   1      -9.787   2.532  36.367  0.00  0.00    +0.004 A 
ATOM      5  C   UNL A   1      -8.595   2.246  35.931  0.00  0.00    +0.035 A 
ATOM      6  C   UNL A   1      -8.058   0.977  36.361  0.00  0.00    +0.135 A 
ENDROOT
BRANCH   1   8
ATOM      7  C   UNL A   1     -10.949  -0.177  39.175  0.00  0.00    -0.002 A 
ATOM      8  C   UNL A   1     -10.898  -0.550  38.191  0.00  0.00    +0.017 A 
ATOM      9  C   UNL A   1     -11.740  -1.021  40.150  0.00  0.00    -0.018 A 
ATOM     10  C   UNL A   1     -12.221  -2.282  39.740  0.00  0.00    -0.004 A 
ATOM     11  C   UNL A   1     -11.270  -1.819  37.526  0.00  0.00    +0.002 A 
ATOM     12  C   UNL A   1     -11.994  -2.624  38.393  0.00  0.00    -0.000 A 
BRANCH   9  13
ATOM     13  C   UNL A   1     -12.062  -0.566  41.520  0.00  0.00    +0.053 C 
BRANCH  13  14
ATOM     14  C   UNL A   1     -13.273   0.247  41.644  0.00  0.00    -0.018 A 
ATOM     15  C   UNL A   1     -13.150   1.588  41.497  0.00  0.00    -0.004 A 
ATOM     16  C   UNL A   1     -14.352   2.318  41.579  0.00  0.00    -0.000 A 
ATOM     17  C   UNL A   1     -15.597   1.748  41.918  0.00  0.00    -0.000 A 
ATOM     18  C   UNL A   1     -15.623   0.392  42.252  0.00  0.00    -0.000 A 
ATOM     19  C   UNL A   1     -14.516  -0.368  42.061  0.00  0.00    -0.004 A 
ENDBRANCH  13  14
ENDBRANCH   9  13
ENDBRANCH   1   8
BRANCH   3  20
ATOM     20  C   UNL A   1     -11.964   1.684  36.629  0.00  0.00    +0.002 C 
ATOM     21  C   UNL A   1     -12.771   2.314  36.623  0.00  0.00    +0.000 C 
BRANCH  21  22
ATOM     22  C   UNL A   1     -13.920   2.750  36.739  0.00  0.00    +0.000 A 
ATOM     23  C   UNL A   1     -14.765   3.219  35.771  0.00  0.00    +0.000 A 
ATOM     24  C   UNL A   1     -16.118   3.760  36.004  0.00  0.00    +0.000 A 
ATOM     25  C   UNL A   1     -16.559   3.847  37.319  0.00  0.00    +0.000 A 
ATOM     26  C   UNL A   1     -14.656   3.000  38.068  0.00  0.00    +0.000 A 
ATOM     27  C   UNL A   1     -15.825   3.485  38.329  0.00  0.00    +0.000 A 
ENDBRANCH  21  22
ENDBRANCH   3  20
BRANCH   6  28
ATOM     28  N   UNL A   1      -6.766   0.644  36.118  0.00  0.00    -0.271 N 
ATOM     29  C   UNL A   1      -5.823   1.708  36.702  0.00  0.00    +0.119 C 
BRANCH  28  30
ATOM     30  C   UNL A   1      -6.270  -0.180  35.539  0.00  0.00    +0.053 A 
ATOM     31  C   UNL A   1      -6.908  -1.143  34.844  0.00  0.00    +0.015 A 
ATOM     32  C   UNL A   1      -4.780  -0.300  35.440  0.00  0.00    +0.015 A 
ATOM     33  C   UNL A   1      -4.055  -1.256  34.709  0.00  0.00    +0.001 A 
ATOM     34  C   UNL A   1      -6.202  -2.191  34.078  0.00  0.00    +0.001 A 
ATOM     35  C   UNL A   1      -4.811  -2.220  34.069  0.00  0.00    +0.000 A 
ENDBRANCH  28  30
ENDBRANCH   6  28
TORSDOF 7
ENDMDL
ENDMDL
