REMARK  Name = No_1992-gen_results/8p0m/2024-11-26-14-13-15/
REMARK  9 active torsions:
REMARK  status: ('A' for Active; 'I' for Inactive)
REMARK    1  A    between atoms: C_2  and  C_13
REMARK    2  A    between atoms: C_4  and  O_11
REMARK    3  A    between atoms: C_13  and  O_15
REMARK    4  A    between atoms: O_15  and  C_16
REMARK    5  A    between atoms: C_20  and  C_22
REMARK    6  A    between atoms: C_22  and  O_24
REMARK    7  A    between atoms: O_24  and  C_25
REMARK    8  A    between atoms: C_25  and  C_26
REMARK    9  A    between atoms: C_29  and  C_30
REMARK                            x       y       z     vdW  Elec       q    Type
REMARK                         _______ _______ _______ _____ _____    ______ ____
ROOT
ATOM      1  C   UNL A   1     -26.029  -2.392  29.948  0.00  0.00    +0.149 A 
ATOM      2  C   UNL A   1     -25.176  -3.356  29.192  0.00  0.00    +0.038 A 
ATOM      3  C   UNL A   1     -23.937  -2.809  28.755  0.00  0.00    +0.003 A 
ATOM      4  C   UNL A   1     -23.473  -1.535  29.120  0.00  0.00    +0.007 A 
ATOM      5  C   UNL A   1     -24.353  -0.663  29.820  0.00  0.00    +0.079 A 
ATOM      6  C   UNL A   1     -25.579  -1.176  30.189  0.00  0.00    +0.044 A 
ENDROOT
BRANCH   5   7
ATOM      7  C   UNL A   1     -23.825   0.680  30.047  0.00  0.00    +0.342 C 
ATOM      8  O   UNL A   1     -24.111   1.226  31.068  0.00  0.00    -0.245 OA
BRANCH   7   9
ATOM      9  O   UNL A   1     -23.296   1.338  29.037  0.00  0.00    -0.440 OA
BRANCH   9  10
ATOM     10  C   UNL A   1     -23.830   1.456  27.839  0.00  0.00    +0.235 C 
BRANCH  10  11
ATOM     11  C   UNL A   1     -24.517   2.733  27.507  0.00  0.00    +0.021 A 
ATOM     12  C   UNL A   1     -24.793   3.178  26.238  0.00  0.00    -0.001 A 
ATOM     13  C   UNL A   1     -25.035   3.514  28.644  0.00  0.00    +0.004 A 
ATOM     14  C   UNL A   1     -25.761   4.697  28.360  0.00  0.00    +0.055 A 
ATOM     15  C   UNL A   1     -25.866   5.210  27.086  0.00  0.00    +0.004 A 
ATOM     16  C   UNL A   1     -25.335   4.487  26.058  0.00  0.00    -0.000 A 
BRANCH  14  17
ATOM     17  C   UNL A   1     -26.329   5.410  29.453  0.00  0.00    +0.265 C 
ATOM     18  O   UNL A   1     -27.259   6.013  29.393  0.00  0.00    -0.268 OA
ATOM     19  N   UNL A   1     -25.745   5.131  30.726  0.00  0.00    -0.200 NA
ATOM     20  C   UNL A   1     -26.261   5.733  31.933  0.00  0.00    +0.139 C 
ENDBRANCH  14  17
ENDBRANCH  10  11
ENDBRANCH   9  10
ENDBRANCH   7   9
ENDBRANCH   5   7
BRANCH   1  21
ATOM     21  O   UNL A   1     -27.226  -2.938  30.231  0.00  0.00    -0.421 OA
BRANCH  21  22
ATOM     22  C   UNL A   1     -28.235  -2.127  30.809  0.00  0.00    +0.346 C 
ATOM     23  O   UNL A   1     -28.833  -2.467  31.617  0.00  0.00    -0.244 OA
BRANCH  22  25
ATOM     24  C   UNL A   1     -28.016  -0.814  28.878  0.00  0.00    +0.009 A 
ATOM     25  C   UNL A   1     -28.469  -0.785  29.829  0.00  0.00    +0.076 A 
ATOM     26  C   UNL A   1     -28.182   0.428  28.113  0.00  0.00    +0.034 A 
ATOM     27  C   UNL A   1     -27.450   0.643  26.850  0.00  0.00    +0.139 A 
ATOM     28  C   UNL A   1     -27.860   1.457  25.908  0.00  0.00    +0.037 A 
ATOM     29  C   UNL A   1     -29.426   0.110  30.418  0.00  0.00    +0.006 A 
ATOM     30  C   UNL A   1     -29.623   1.220  29.735  0.00  0.00    +0.000 A 
ATOM     31  C   UNL A   1     -28.961   1.453  28.551  0.00  0.00    +0.003 A 
ATOM     32  C   UNL A   1     -28.787   2.547  26.317  0.00  0.00    +0.003 A 
ATOM     33  C   UNL A   1     -29.427   2.429  27.564  0.00  0.00    +0.000 A 
BRANCH  27  34
ATOM     34  O   UNL A   1     -26.535  -0.265  26.402  0.00  0.00    -0.471 OA
ATOM     35  C   UNL A   1     -25.750   0.208  25.438  0.00  0.00    +0.253 C 
ENDBRANCH  27  34
ENDBRANCH  22  25
ENDBRANCH  21  22
ENDBRANCH   1  21
TORSDOF 9
