MODEL 1992
MODEL 1
REMARK VINA RESULT:    -8.235      0.000      0.000
REMARK INTER + INTRA:         -14.325
REMARK INTER:                 -12.567
REMARK INTRA:                  -1.757
REMARK UNBOUND:                -1.757
REMARK  Name = No_1992-gen_results/8p0m/2024-11-26-14-13-15/
REMARK  9 active torsions:
REMARK  status: ('A' for Active; 'I' for Inactive)
REMARK    1  A    between atoms: C_2  and  C_13
REMARK    2  A    between atoms: C_4  and  O_11
REMARK    3  A    between atoms: C_13  and  O_15
REMARK    4  A    between atoms: O_15  and  C_16
REMARK    5  A    between atoms: C_20  and  C_22
REMARK    6  A    between atoms: C_22  and  O_24
REMARK    7  A    between atoms: O_24  and  C_25
REMARK    8  A    between atoms: C_25  and  C_26
REMARK    9  A    between atoms: C_29  and  C_30
REMARK                            x       y       z     vdW  Elec       q    Type
REMARK                         _______ _______ _______ _____ _____    ______ ____
ROOT
ATOM      1  C   UNL A   1     -24.500   1.135  26.568  0.00  0.00    +0.149 A 
ATOM      2  C   UNL A   1     -23.648   2.099  25.809  0.00  0.00    +0.038 A 
ATOM      3  C   UNL A   1     -22.331   2.237  26.330  0.00  0.00    +0.003 A 
ATOM      4  C   UNL A   1     -21.811   1.440  27.363  0.00  0.00    +0.007 A 
ATOM      5  C   UNL A   1     -22.691   0.562  28.055  0.00  0.00    +0.079 A 
ATOM      6  C   UNL A   1     -23.985   0.475  27.587  0.00  0.00    +0.044 A 
ENDROOT
BRANCH   5   7
ATOM      7  C   UNL A   1     -22.087  -0.133  29.190  0.00  0.00    +0.342 C 
ATOM      8  O   UNL A   1     -21.228  -0.928  28.964  0.00  0.00    -0.245 OA
BRANCH   7   9
ATOM      9  O   UNL A   1     -22.677  -0.069  30.366  0.00  0.00    -0.440 OA
BRANCH   9  10
ATOM     10  C   UNL A   1     -23.089  -1.102  31.070  0.00  0.00    +0.235 C 
BRANCH  10  11
ATOM     11  C   UNL A   1     -24.228  -1.898  30.537  0.00  0.00    +0.021 A 
ATOM     12  C   UNL A   1     -24.113  -3.026  29.763  0.00  0.00    -0.001 A 
ATOM     13  C   UNL A   1     -25.574  -1.493  30.978  0.00  0.00    +0.004 A 
ATOM     14  C   UNL A   1     -26.675  -2.275  30.550  0.00  0.00    +0.055 A 
ATOM     15  C   UNL A   1     -26.544  -3.292  29.630  0.00  0.00    +0.004 A 
ATOM     16  C   UNL A   1     -25.288  -3.614  29.204  0.00  0.00    -0.000 A 
BRANCH  14  17
ATOM     17  C   UNL A   1     -27.967  -1.932  31.038  0.00  0.00    +0.265 C 
ATOM     18  O   UNL A   1     -28.153  -1.255  31.898  0.00  0.00    -0.268 OA
ATOM     19  N   UNL A   1     -29.055  -2.342  30.209  0.00  0.00    -0.200 NA
ATOM     20  C   UNL A   1     -30.419  -2.007  30.547  0.00  0.00    +0.139 C 
ENDBRANCH  14  17
ENDBRANCH  10  11
ENDBRANCH   9  10
ENDBRANCH   7   9
ENDBRANCH   5   7
BRANCH   1  21
ATOM     21  O   UNL A   1     -25.759   1.139  26.093  0.00  0.00    -0.421 OA
BRANCH  21  22
ATOM     22  C   UNL A   1     -26.142   0.153  25.148  0.00  0.00    +0.346 C 
ATOM     23  O   UNL A   1     -25.478  -0.613  24.837  0.00  0.00    -0.244 OA
BRANCH  22  25
ATOM     24  C   UNL A   1     -28.392  -0.088  24.529  0.00  0.00    +0.009 A 
ATOM     25  C   UNL A   1     -27.605   0.610  24.464  0.00  0.00    +0.076 A 
ATOM     26  C   UNL A   1     -29.610   0.336  23.829  0.00  0.00    +0.034 A 
ATOM     27  C   UNL A   1     -30.741  -0.594  23.644  0.00  0.00    +0.139 A 
ATOM     28  C   UNL A   1     -31.978  -0.200  23.467  0.00  0.00    +0.037 A 
ATOM     29  C   UNL A   1     -27.566   1.988  24.059  0.00  0.00    +0.006 A 
ATOM     30  C   UNL A   1     -28.661   2.409  23.458  0.00  0.00    +0.000 A 
ATOM     31  C   UNL A   1     -29.736   1.570  23.272  0.00  0.00    +0.003 A 
ATOM     32  C   UNL A   1     -32.176   1.178  22.941  0.00  0.00    +0.003 A 
ATOM     33  C   UNL A   1     -31.088   2.066  23.005  0.00  0.00    +0.000 A 
BRANCH  27  34
ATOM     34  O   UNL A   1     -30.653  -1.897  24.040  0.00  0.00    -0.471 OA
ATOM     35  C   UNL A   1     -31.731  -2.325  24.691  0.00  0.00    +0.253 C 
ENDBRANCH  27  34
ENDBRANCH  22  25
ENDBRANCH  21  22
ENDBRANCH   1  21
TORSDOF 9
ENDMDL
ENDMDL
