MODEL 1993
MODEL 1
REMARK VINA RESULT:    -6.594      0.000      0.000
REMARK INTER + INTRA:          -8.823
REMARK INTER:                  -8.136
REMARK INTRA:                  -0.687
REMARK UNBOUND:                -0.687
REMARK  Name = No_1993-gen_results/8p0m/2024-11-26-14-13-15/
REMARK  4 active torsions:
REMARK  status: ('A' for Active; 'I' for Inactive)
REMARK    1  A    between atoms: C_2  and  C_14
REMARK    2  A    between atoms: C_9  and  C_11
REMARK    3  A    between atoms: C_14  and  O_16
REMARK    4  A    between atoms: O_16  and  C_17
REMARK                            x       y       z     vdW  Elec       q    Type
REMARK                         _______ _______ _______ _____ _____    ______ ____
ROOT
ATOM      1  C   UNL A   1     -23.851   0.990  26.079  0.00  0.00    +0.006 A 
ATOM      2  C   UNL A   1     -23.763   1.571  26.954  0.00  0.00    +0.076 A 
ATOM      3  C   UNL A   1     -25.176   1.100  25.358  0.00  0.00    +0.000 A 
ATOM      4  C   UNL A   1     -25.845  -0.013  24.821  0.00  0.00    +0.000 A 
ATOM      5  C   UNL A   1     -24.294   2.977  27.162  0.00  0.00    +0.006 A 
ATOM      6  C   UNL A   1     -25.461   3.213  26.460  0.00  0.00    +0.000 A 
ATOM      7  C   UNL A   1     -25.958   2.305  25.543  0.00  0.00    +0.000 A 
ATOM      8  C   UNL A   1     -27.160  -0.030  24.427  0.00  0.00    +0.005 A 
ATOM      9  C   UNL A   1     -27.831   1.274  24.365  0.00  0.00    +0.059 A 
ATOM     10  C   UNL A   1     -27.310   2.314  25.024  0.00  0.00    +0.005 A 
ENDROOT
BRANCH   9  11
ATOM     11  C   UNL A   1     -29.243   1.276  23.876  0.00  0.00    +0.297 C 
ATOM     12  N   UNL A   1     -29.858   2.410  23.505  0.00  0.00    -0.102 NA
ATOM     13  O   UNL A   1     -29.775   0.176  23.556  0.00  0.00    -0.264 OA
ENDBRANCH   9  11
BRANCH   2  14
ATOM     14  C   UNL A   1     -22.337   1.481  27.701  0.00  0.00    +0.346 C 
ATOM     15  O   UNL A   1     -21.595   2.227  27.863  0.00  0.00    -0.244 OA
BRANCH  14  16
ATOM     16  O   UNL A   1     -22.266   0.267  28.230  0.00  0.00    -0.421 OA
BRANCH  16  17
ATOM     17  C   UNL A   1     -22.765  -0.238  29.149  0.00  0.00    +0.149 A 
ATOM     18  C   UNL A   1     -22.833   0.279  30.317  0.00  0.00    +0.038 A 
ATOM     19  C   UNL A   1     -23.541  -0.276  31.449  0.00  0.00    +0.003 A 
ATOM     20  C   UNL A   1     -24.117  -1.543  31.260  0.00  0.00    +0.000 A 
ATOM     21  C   UNL A   1     -23.506  -1.574  28.952  0.00  0.00    +0.038 A 
ATOM     22  C   UNL A   1     -24.139  -2.160  30.040  0.00  0.00    +0.003 A 
ENDBRANCH  16  17
ENDBRANCH  14  16
ENDBRANCH   2  14
TORSDOF 4
ENDMDL
ENDMDL
