MODEL 1994
MODEL 1
REMARK VINA RESULT:    -6.802      0.000      0.000
REMARK INTER + INTRA:         -14.803
REMARK INTER:                 -10.381
REMARK INTRA:                  -4.421
REMARK UNBOUND:                -4.421
REMARK  Name = No_1994-gen_results/8p0m/2024-11-26-14-13-15/
REMARK  9 active torsions:
REMARK  status: ('A' for Active; 'I' for Inactive)
REMARK    1  A    between atoms: C_2  and  C_8
REMARK    2  A    between atoms: C_8  and  C_9
REMARK    3  A    between atoms: C_8  and  C_18
REMARK    4  A    between atoms: C_12  and  C_15
REMARK    5  A    between atoms: C_18  and  C_20
REMARK    6  A    between atoms: C_22  and  C_25
REMARK    7  A    between atoms: C_25  and  O_26
REMARK    8  A    between atoms: O_26  and  C_27
REMARK    9  A    between atoms: C_27  and  C_28
REMARK                            x       y       z     vdW  Elec       q    Type
REMARK                         _______ _______ _______ _____ _____    ______ ____
ROOT
ATOM      1  C   UNL A   1     -31.415 -10.189   9.832  0.00  0.00    +0.058 C 
ENDROOT
BRANCH   1   3
ATOM      2  C   UNL A   1     -30.304  -8.030   9.755  0.00  0.00    -0.001 A 
ATOM      3  C   UNL A   1     -31.329  -8.634   9.976  0.00  0.00    -0.017 A 
ATOM      4  C   UNL A   1     -32.476  -8.084  10.521  0.00  0.00    -0.001 A 
ATOM      5  C   UNL A   1     -32.450  -6.689  10.815  0.00  0.00    +0.042 A 
ATOM      6  C   UNL A   1     -31.349  -6.019  10.418  0.00  0.00    +0.196 A 
ATOM      7  C   UNL A   1     -30.329  -6.635   9.818  0.00  0.00    +0.042 A 
ATOM      8  O   UNL A   1     -31.367  -4.675  10.639  0.00  0.00    -0.287 OA
ENDBRANCH   1   3
BRANCH   1   9
ATOM      9  C   UNL A   1     -30.983 -11.009  10.953  0.00  0.00    +0.000 A 
ATOM     10  C   UNL A   1     -31.524 -11.220  11.769  0.00  0.00    -0.001 A 
ATOM     11  C   UNL A   1     -31.007 -12.077  12.960  0.00  0.00    +0.020 A 
ATOM     12  C   UNL A   1     -29.606 -11.629  10.672  0.00  0.00    +0.078 A 
ATOM     13  N   UNL A   1     -29.073 -12.326  11.709  0.00  0.00    -0.244 NA
ATOM     14  C   UNL A   1     -29.766 -12.619  12.796  0.00  0.00    +0.099 A 
BRANCH  12  15
ATOM     15  C   UNL A   1     -28.786 -11.456   9.509  0.00  0.00    +0.017 A 
ATOM     16  C   UNL A   1     -27.807 -10.508   9.439  0.00  0.00    +0.002 A 
ATOM     17  C   UNL A   1     -27.037 -10.274   8.336  0.00  0.00    +0.000 A 
ATOM     18  C   UNL A   1     -28.738 -12.351   8.451  0.00  0.00    +0.002 A 
ATOM     19  C   UNL A   1     -28.000 -12.131   7.373  0.00  0.00    +0.000 A 
ATOM     20  C   UNL A   1     -27.111 -11.071   7.342  0.00  0.00    +0.000 A 
ENDBRANCH  12  15
ENDBRANCH   1   9
BRANCH   1  21
ATOM     21  C   UNL A   1     -32.067 -10.700   8.711  0.00  0.00    +0.072 C 
ATOM     22  C   UNL A   1     -31.656 -10.263   7.541  0.00  0.00    +0.015 C 
BRANCH  21  23
ATOM     23  C   UNL A   1     -33.502 -10.840   8.795  0.00  0.00    -0.089 C 
ATOM     24  C   UNL A   1     -33.859 -12.234   8.806  0.00  0.00    -0.059 C 
BRANCH  24  25
ATOM     25  C   UNL A   1     -34.423 -12.814   9.896  0.00  0.00    +0.218 C 
BRANCH  25  26
ATOM     26  O   UNL A   1     -33.704 -13.697  10.557  0.00  0.00    -0.335 OA
BRANCH  26  27
ATOM     27  C   UNL A   1     -33.361 -14.818  10.518  0.00  0.00    +0.170 C 
BRANCH  27  28
ATOM     28  C   UNL A   1     -31.958 -15.152  10.092  0.00  0.00    +0.007 A 
ATOM     29  C   UNL A   1     -31.683 -15.343   8.779  0.00  0.00    -0.002 A 
ATOM     30  C   UNL A   1     -30.467 -15.753   8.292  0.00  0.00    -0.000 A 
ATOM     31  C   UNL A   1     -29.429 -15.958   9.241  0.00  0.00    -0.000 A 
ATOM     32  C   UNL A   1     -29.630 -15.745  10.602  0.00  0.00    -0.000 A 
ATOM     33  C   UNL A   1     -30.892 -15.411  11.081  0.00  0.00    -0.002 A 
ENDBRANCH  27  28
ENDBRANCH  26  27
ENDBRANCH  25  26
ENDBRANCH  24  25
ENDBRANCH  21  23
ENDBRANCH   1  21
TORSDOF 9
ENDMDL
ENDMDL
