REMARK  Name = No_1994-gen_results/8p0m/2024-11-26-14-13-15/
REMARK  9 active torsions:
REMARK  status: ('A' for Active; 'I' for Inactive)
REMARK    1  A    between atoms: C_2  and  C_8
REMARK    2  A    between atoms: C_8  and  C_9
REMARK    3  A    between atoms: C_8  and  C_18
REMARK    4  A    between atoms: C_12  and  C_15
REMARK    5  A    between atoms: C_18  and  C_20
REMARK    6  A    between atoms: C_22  and  C_25
REMARK    7  A    between atoms: C_25  and  O_26
REMARK    8  A    between atoms: O_26  and  C_27
REMARK    9  A    between atoms: C_27  and  C_28
REMARK                            x       y       z     vdW  Elec       q    Type
REMARK                         _______ _______ _______ _____ _____    ______ ____
ROOT
ATOM      1  C   UNL A   1     -25.719  -0.221  29.401  0.00  0.00    +0.058 C 
ENDROOT
BRANCH   1   3
ATOM      2  C   UNL A   1     -28.016  -0.814  28.878  0.00  0.00    -0.001 A 
ATOM      3  C   UNL A   1     -27.064  -0.119  28.608  0.00  0.00    -0.017 A 
ATOM      4  C   UNL A   1     -26.972   0.714  27.506  0.00  0.00    -0.001 A 
ATOM      5  C   UNL A   1     -28.105   0.774  26.642  0.00  0.00    +0.042 A 
ATOM      6  C   UNL A   1     -29.201   0.104  27.053  0.00  0.00    +0.196 A 
ATOM      7  C   UNL A   1     -29.210  -0.603  28.185  0.00  0.00    +0.042 A 
ATOM      8  O   UNL A   1     -30.299   0.228  26.257  0.00  0.00    -0.287 OA
ENDBRANCH   1   3
BRANCH   1   9
ATOM      9  C   UNL A   1     -25.250   0.957  30.113  0.00  0.00    +0.000 A 
ATOM     10  C   UNL A   1     -25.517   1.228  31.040  0.00  0.00    -0.001 A 
ATOM     11  C   UNL A   1     -25.012   2.517  31.750  0.00  0.00    +0.020 A 
ATOM     12  C   UNL A   1     -24.173   1.690  29.299  0.00  0.00    +0.078 A 
ATOM     13  N   UNL A   1     -23.751   2.863  29.838  0.00  0.00    -0.244 NA
ATOM     14  C   UNL A   1     -24.088   3.243  31.059  0.00  0.00    +0.099 A 
BRANCH  12  15
ATOM     15  C   UNL A   1     -23.664   1.343  28.005  0.00  0.00    +0.017 A 
ATOM     16  C   UNL A   1     -23.404   2.279  27.047  0.00  0.00    +0.002 A 
ATOM     17  C   UNL A   1     -22.967   1.992  25.785  0.00  0.00    +0.000 A 
ATOM     18  C   UNL A   1     -23.174   0.089  27.671  0.00  0.00    +0.002 A 
ATOM     19  C   UNL A   1     -22.754  -0.203  26.450  0.00  0.00    +0.000 A 
ATOM     20  C   UNL A   1     -22.630   0.795  25.499  0.00  0.00    +0.000 A 
ENDBRANCH  12  15
ENDBRANCH   1   9
BRANCH   1  21
ATOM     21  C   UNL A   1     -25.138  -1.481  29.530  0.00  0.00    +0.072 C 
ATOM     22  C   UNL A   1     -23.858  -1.511  29.830  0.00  0.00    +0.015 C 
BRANCH  21  23
ATOM     23  C   UNL A   1     -25.520  -2.481  28.560  0.00  0.00    -0.089 C 
ATOM     24  C   UNL A   1     -24.878  -3.732  28.866  0.00  0.00    -0.059 C 
BRANCH  24  25
ATOM     25  C   UNL A   1     -25.592  -4.819  29.255  0.00  0.00    +0.218 C 
BRANCH  25  26
ATOM     26  O   UNL A   1     -26.812  -4.617  29.707  0.00  0.00    -0.335 OA
BRANCH  26  27
ATOM     27  C   UNL A   1     -27.391  -4.187  30.632  0.00  0.00    +0.170 C 
BRANCH  27  28
ATOM     28  C   UNL A   1     -28.852  -4.497  30.805  0.00  0.00    +0.007 A 
ATOM     29  C   UNL A   1     -29.576  -4.933  29.746  0.00  0.00    -0.002 A 
ATOM     30  C   UNL A   1     -30.932  -5.144  29.766  0.00  0.00    -0.000 A 
ATOM     31  C   UNL A   1     -31.602  -4.912  30.998  0.00  0.00    -0.000 A 
ATOM     32  C   UNL A   1     -30.916  -4.499  32.137  0.00  0.00    -0.000 A 
ATOM     33  C   UNL A   1     -29.557  -4.211  32.072  0.00  0.00    -0.002 A 
ENDBRANCH  27  28
ENDBRANCH  26  27
ENDBRANCH  25  26
ENDBRANCH  24  25
ENDBRANCH  21  23
ENDBRANCH   1  21
TORSDOF 9
