REMARK  Name = No_1995-gen_results/8p0m/2024-11-26-14-13-15/
REMARK  6 active torsions:
REMARK  status: ('A' for Active; 'I' for Inactive)
REMARK    1  A    between atoms: C_2  and  C_13
REMARK    2  A    between atoms: C_9  and  C_11
REMARK    3  A    between atoms: C_21  and  S_27
REMARK    4  A    between atoms: S_27  and  C_28
REMARK    5  A    between atoms: C_28  and  C_29
REMARK    6  A    between atoms: C_28  and  C_31
REMARK                            x       y       z     vdW  Elec       q    Type
REMARK                         _______ _______ _______ _____ _____    ______ ____
ROOT
ATOM      1  C   UNL A   1     -30.069  -0.871  29.873  0.00  0.00    +0.249 C 
ATOM      2  O   UNL A   1     -30.520  -0.289  28.984  0.00  0.00    -0.270 OA
ATOM      3  N   UNL A   1     -30.755  -1.498  30.847  0.00  0.00    -0.277 N 
ATOM      4  C   UNL A   1     -30.284  -2.235  31.924  0.00  0.00    +0.094 C 
ATOM      5  C   UNL A   1     -32.218  -1.467  30.661  0.00  0.00    +0.082 C 
ATOM      6  C   UNL A   1     -32.789  -2.544  30.738  0.00  0.00    +0.047 C 
ATOM      7  C   UNL A   1     -31.078  -3.501  32.152  0.00  0.00    +0.022 C 
ATOM      8  C   UNL A   1     -32.410  -3.477  31.791  0.00  0.00    +0.006 C 
ATOM      9  C   UNL A   1     -34.187  -2.808  30.174  0.00  0.00    +0.123 C 
ATOM     10  N   UNL A   1     -34.900  -1.993  29.862  0.00  0.00    -0.298 N 
ATOM     11  C   UNL A   1     -34.746  -0.762  30.066  0.00  0.00    +0.057 C 
ATOM     12  C   UNL A   1     -33.589   0.055  30.193  0.00  0.00    -0.009 C 
ATOM     13  C   UNL A   1     -32.532  -0.159  30.363  0.00  0.00    +0.047 C 
ATOM     14  C   UNL A   1     -36.263  -2.482  29.413  0.00  0.00    +0.113 C 
ENDROOT
BRANCH   1  16
ATOM     15  C   UNL A   1     -28.016  -0.814  28.878  0.00  0.00    +0.004 A 
ATOM     16  C   UNL A   1     -28.469  -0.785  29.829  0.00  0.00    +0.054 A 
ATOM     17  C   UNL A   1     -26.504  -0.778  28.877  0.00  0.00    +0.000 A 
ATOM     18  C   UNL A   1     -25.654  -0.660  27.719  0.00  0.00    +0.001 A 
ATOM     19  C   UNL A   1     -27.918  -0.937  31.182  0.00  0.00    +0.004 A 
ATOM     20  C   UNL A   1     -26.542  -0.940  31.261  0.00  0.00    +0.000 A 
ATOM     21  C   UNL A   1     -25.783  -0.893  30.120  0.00  0.00    +0.001 A 
ATOM     22  C   UNL A   1     -24.310  -0.301  27.853  0.00  0.00    +0.010 A 
ATOM     23  C   UNL A   1     -23.667  -0.460  29.099  0.00  0.00    +0.068 A 
ATOM     24  C   UNL A   1     -24.370  -0.664  30.203  0.00  0.00    +0.010 A 
BRANCH  23  25
ATOM     25  C   UNL A   1     -22.195  -0.229  29.131  0.00  0.00    +0.100 C 
ATOM     26  N   UNL A   1     -21.288   0.567  28.772  0.00  0.00    -0.191 NA
ENDBRANCH  23  25
ENDBRANCH   1  16
BRANCH   9  27
ATOM     27  S   UNL A   1     -34.252  -4.315  29.298  0.00  0.00    -0.114 S 
BRANCH  27  28
ATOM     28  C   UNL A   1     -33.964  -4.367  28.011  0.00  0.00    +0.114 C 
BRANCH  28  29
ATOM     29  C   UNL A   1     -33.254  -5.350  27.431  0.00  0.00    +0.218 C 
ATOM     30  O   UNL A   1     -32.754  -5.028  26.403  0.00  0.00    -0.287 OA
ENDBRANCH  28  29
BRANCH  28  31
ATOM     31  C   UNL A   1     -34.319  -3.274  27.058  0.00  0.00    +0.019 C 
ATOM     32  C   UNL A   1     -33.624  -3.219  25.885  0.00  0.00    +0.001 C 
ENDBRANCH  28  31
ENDBRANCH  27  28
ENDBRANCH   9  27
TORSDOF 6
