MODEL 1995
MODEL 1
REMARK VINA RESULT:    -7.351      0.000      0.000
REMARK INTER + INTRA:         -11.200
REMARK INTER:                  -9.930
REMARK INTRA:                  -1.271
REMARK UNBOUND:                -1.271
REMARK  Name = No_1995-gen_results/8p0m/2024-11-26-14-13-15/
REMARK  6 active torsions:
REMARK  status: ('A' for Active; 'I' for Inactive)
REMARK    1  A    between atoms: C_2  and  C_13
REMARK    2  A    between atoms: C_9  and  C_11
REMARK    3  A    between atoms: C_21  and  S_27
REMARK    4  A    between atoms: S_27  and  C_28
REMARK    5  A    between atoms: C_28  and  C_29
REMARK    6  A    between atoms: C_28  and  C_31
REMARK                            x       y       z     vdW  Elec       q    Type
REMARK                         _______ _______ _______ _____ _____    ______ ____
ROOT
ATOM      1  C   UNL A   1     -31.214 -14.432  26.108  0.00  0.00    +0.249 C 
ATOM      2  O   UNL A   1     -32.338 -14.172  26.141  0.00  0.00    -0.270 OA
ATOM      3  N   UNL A   1     -30.593 -15.172  25.171  0.00  0.00    -0.277 N 
ATOM      4  C   UNL A   1     -29.250 -15.500  25.053  0.00  0.00    +0.094 C 
ATOM      5  C   UNL A   1     -31.473 -15.598  24.067  0.00  0.00    +0.082 C 
ATOM      6  C   UNL A   1     -31.064 -15.369  22.939  0.00  0.00    +0.047 C 
ATOM      7  C   UNL A   1     -28.748 -15.387  23.631  0.00  0.00    +0.022 C 
ATOM      8  C   UNL A   1     -29.664 -15.620  22.625  0.00  0.00    +0.006 C 
ATOM      9  C   UNL A   1     -31.962 -15.331  21.700  0.00  0.00    +0.123 C 
ATOM     10  N   UNL A   1     -33.012 -15.740  21.675  0.00  0.00    -0.298 N 
ATOM     11  C   UNL A   1     -33.557 -16.424  22.578  0.00  0.00    +0.057 C 
ATOM     12  C   UNL A   1     -33.384 -16.468  23.989  0.00  0.00    -0.009 C 
ATOM     13  C   UNL A   1     -32.610 -16.098  24.664  0.00  0.00    +0.047 C 
ATOM     14  C   UNL A   1     -33.685 -15.673  20.318  0.00  0.00    +0.113 C 
ENDROOT
BRANCH   1  16
ATOM     15  C   UNL A   1     -30.681 -14.281  28.322  0.00  0.00    +0.004 A 
ATOM     16  C   UNL A   1     -30.474 -13.826  27.395  0.00  0.00    +0.054 A 
ATOM     17  C   UNL A   1     -30.002 -13.654  29.520  0.00  0.00    +0.000 A 
ATOM     18  C   UNL A   1     -30.001 -14.168  30.866  0.00  0.00    +0.001 A 
ATOM     19  C   UNL A   1     -29.823 -12.555  27.050  0.00  0.00    +0.004 A 
ATOM     20  C   UNL A   1     -29.202 -11.908  28.097  0.00  0.00    +0.000 A 
ATOM     21  C   UNL A   1     -29.291 -12.409  29.371  0.00  0.00    +0.001 A 
ATOM     22  C   UNL A   1     -29.079 -13.703  31.808  0.00  0.00    +0.010 A 
ATOM     23  C   UNL A   1     -28.437 -12.464  31.601  0.00  0.00    +0.068 A 
ATOM     24  C   UNL A   1     -28.465 -11.876  30.415  0.00  0.00    +0.010 A 
BRANCH  23  25
ATOM     25  C   UNL A   1     -27.604 -11.943  32.722  0.00  0.00    +0.100 C 
ATOM     26  N   UNL A   1     -26.876 -12.291  33.688  0.00  0.00    -0.191 NA
ENDBRANCH  23  25
ENDBRANCH   1  16
BRANCH   9  27
ATOM     27  S   UNL A   1     -31.611 -13.948  20.696  0.00  0.00    -0.114 S 
BRANCH  27  28
ATOM     28  C   UNL A   1     -31.512 -12.738  21.214  0.00  0.00    +0.114 C 
BRANCH  28  29
ATOM     29  C   UNL A   1     -32.449 -12.165  21.989  0.00  0.00    +0.218 C 
ATOM     30  O   UNL A   1     -33.549 -12.269  21.555  0.00  0.00    -0.287 OA
ENDBRANCH  28  29
BRANCH  28  31
ATOM     31  C   UNL A   1     -30.374 -11.821  20.913  0.00  0.00    +0.019 C 
ATOM     32  C   UNL A   1     -29.258 -12.373  20.354  0.00  0.00    +0.001 C 
ENDBRANCH  28  31
ENDBRANCH  27  28
ENDBRANCH   9  27
TORSDOF 6
ENDMDL
ENDMDL
