MODEL 1996
MODEL 1
REMARK VINA RESULT:    -5.958      0.000      0.000
REMARK INTER + INTRA:          -7.827
REMARK INTER:                  -7.352
REMARK INTRA:                  -0.476
REMARK UNBOUND:                -0.476
REMARK  Name = No_1996-gen_results/8p0m/2024-11-26-14-13-15/
REMARK  4 active torsions:
REMARK  status: ('A' for Active; 'I' for Inactive)
REMARK    1  A    between atoms: C_2  and  C_5
REMARK    2  A    between atoms: C_4  and  C_10
REMARK    3  A    between atoms: C_11  and  C_20
REMARK    4  A    between atoms: C_15  and  N_16
REMARK                            x       y       z     vdW  Elec       q    Type
REMARK                         _______ _______ _______ _____ _____    ______ ____
ROOT
ATOM      1  C   UNL A   1     -24.232   0.682  27.409  0.00  0.00    +0.020 A 
ATOM      2  C   UNL A   1     -23.157   1.566  26.934  0.00  0.00    +0.084 A 
ATOM      3  C   UNL A   1     -21.847   1.237  27.328  0.00  0.00    +0.049 A 
ATOM      4  C   UNL A   1     -21.648   0.343  28.381  0.00  0.00    +0.197 A 
ATOM      5  C   UNL A   1     -22.688  -0.397  28.858  0.00  0.00    +0.057 A 
ATOM      6  C   UNL A   1     -23.965  -0.275  28.345  0.00  0.00    +0.051 A 
ATOM      7  O   UNL A   1     -20.448   0.256  28.960  0.00  0.00    -0.286 OA
ENDROOT
BRANCH   1  11
ATOM      8  C   UNL A   1     -26.537  -0.106  24.530  0.00  0.00    +0.007 A 
ATOM      9  C   UNL A   1     -27.320   0.570  24.727  0.00  0.00    +0.080 A 
ATOM     10  C   UNL A   1     -25.402  -0.093  25.467  0.00  0.00    +0.000 A 
ATOM     11  C   UNL A   1     -25.448   0.701  26.650  0.00  0.00    +0.001 A 
ATOM     12  C   UNL A   1     -26.591   1.463  26.781  0.00  0.00    +0.000 A 
ATOM     13  C   UNL A   1     -27.596   1.425  25.875  0.00  0.00    +0.007 A 
BRANCH   9  14
ATOM     14  C   UNL A   1     -28.536   0.566  23.784  0.00  0.00    +0.388 C 
ATOM     15  O   UNL A   1     -29.027   1.704  23.397  0.00  0.00    -0.241 OA
ATOM     16  O   UNL A   1     -28.916  -0.524  23.329  0.00  0.00    -0.241 OA
ENDBRANCH   9  14
ENDBRANCH   1  11
BRANCH   6  17
ATOM     17  N   UNL A   1     -24.929  -1.054  28.781  0.00  0.00    -0.304 N 
ATOM     18  C   UNL A   1     -25.867  -0.691  29.649  0.00  0.00    +0.112 C 
ATOM     19  C   UNL A   1     -24.985  -2.447  28.421  0.00  0.00    +0.112 C 
ENDBRANCH   6  17
BRANCH   2  20
ATOM     20  C   UNL A   1     -23.290   2.559  25.785  0.00  0.00    +0.388 C 
ATOM     21  O   UNL A   1     -22.625   2.482  24.792  0.00  0.00    -0.241 OA
ATOM     22  O   UNL A   1     -24.082   3.612  26.095  0.00  0.00    -0.241 OA
ENDBRANCH   2  20
TORSDOF 4
ENDMDL
ENDMDL
