REMARK  Name = No_1996-gen_results/8p0m/2024-11-26-14-13-15/
REMARK  4 active torsions:
REMARK  status: ('A' for Active; 'I' for Inactive)
REMARK    1  A    between atoms: C_2  and  C_5
REMARK    2  A    between atoms: C_4  and  C_10
REMARK    3  A    between atoms: C_11  and  C_20
REMARK    4  A    between atoms: C_15  and  N_16
REMARK                            x       y       z     vdW  Elec       q    Type
REMARK                         _______ _______ _______ _____ _____    ______ ____
ROOT
ATOM      1  C   UNL A   1     -24.383  -0.979  29.875  0.00  0.00    +0.020 A 
ATOM      2  C   UNL A   1     -23.737   0.306  30.179  0.00  0.00    +0.084 A 
ATOM      3  C   UNL A   1     -22.487   0.544  29.579  0.00  0.00    +0.049 A 
ATOM      4  C   UNL A   1     -21.773  -0.521  29.028  0.00  0.00    +0.197 A 
ATOM      5  C   UNL A   1     -22.377  -1.728  28.842  0.00  0.00    +0.057 A 
ATOM      6  C   UNL A   1     -23.690  -1.950  29.210  0.00  0.00    +0.051 A 
ATOM      7  O   UNL A   1     -20.479  -0.372  28.736  0.00  0.00    -0.286 OA
ENDROOT
BRANCH   1  11
ATOM      8  C   UNL A   1     -28.016  -0.814  28.878  0.00  0.00    +0.007 A 
ATOM      9  C   UNL A   1     -28.469  -0.785  29.829  0.00  0.00    +0.080 A 
ATOM     10  C   UNL A   1     -26.546  -0.876  28.850  0.00  0.00    +0.000 A 
ATOM     11  C   UNL A   1     -25.804  -1.032  30.057  0.00  0.00    +0.001 A 
ATOM     12  C   UNL A   1     -26.575  -1.056  31.201  0.00  0.00    +0.000 A 
ATOM     13  C   UNL A   1     -27.925  -0.974  31.168  0.00  0.00    +0.007 A 
BRANCH   9  14
ATOM     14  C   UNL A   1     -30.006  -0.746  29.898  0.00  0.00    +0.388 C 
ATOM     15  O   UNL A   1     -30.571   0.058  30.747  0.00  0.00    -0.241 OA
ATOM     16  O   UNL A   1     -30.643  -1.390  29.049  0.00  0.00    -0.241 OA
ENDBRANCH   9  14
ENDBRANCH   1  11
BRANCH   6  17
ATOM     17  N   UNL A   1     -24.262  -3.105  28.953  0.00  0.00    -0.304 N 
ATOM     18  C   UNL A   1     -23.894  -4.269  29.475  0.00  0.00    +0.112 C 
ATOM     19  C   UNL A   1     -25.304  -3.219  27.966  0.00  0.00    +0.112 C 
ENDBRANCH   6  17
BRANCH   2  20
ATOM     20  C   UNL A   1     -24.447   1.520  30.769  0.00  0.00    +0.388 C 
ATOM     21  O   UNL A   1     -24.500   2.571  30.198  0.00  0.00    -0.241 OA
ATOM     22  O   UNL A   1     -24.828   1.327  32.053  0.00  0.00    -0.241 OA
ENDBRANCH   2  20
TORSDOF 4
