MODEL 1997
MODEL 1
REMARK VINA RESULT:    -9.389      0.000      0.000
REMARK INTER + INTRA:         -16.611
REMARK INTER:                 -13.779
REMARK INTRA:                  -2.831
REMARK UNBOUND:                -2.831
REMARK  Name = No_1997-gen_results/8p0m/2024-11-26-14-13-15/
REMARK  8 active torsions:
REMARK  status: ('A' for Active; 'I' for Inactive)
REMARK    1  A    between atoms: C_1  and  C_2
REMARK    2  A    between atoms: C_4  and  C_11
REMARK    3  A    between atoms: C_11  and  C_13
REMARK    4  A    between atoms: C_13  and  C_14
REMARK    5  A    between atoms: C_18  and  C_20
REMARK    6  A    between atoms: C_20  and  C_21
REMARK    7  A    between atoms: C_20  and  C_27
REMARK    8  A    between atoms: C_27  and  C_28
REMARK                            x       y       z     vdW  Elec       q    Type
REMARK                         _______ _______ _______ _____ _____    ______ ____
ROOT
ATOM      1  C   UNL A   1     -24.376   1.026  27.104  0.00  0.00    -0.022 A 
ATOM      2  C   UNL A   1     -23.107   1.516  26.998  0.00  0.00    -0.004 A 
ATOM      3  C   UNL A   1     -22.086   1.253  27.908  0.00  0.00    -0.001 A 
ATOM      4  C   UNL A   1     -22.336   0.304  28.893  0.00  0.00    -0.004 A 
ATOM      5  C   UNL A   1     -23.596  -0.303  28.968  0.00  0.00    -0.018 A 
ATOM      6  C   UNL A   1     -24.553   0.073  28.103  0.00  0.00    -0.008 A 
ENDROOT
BRANCH   1   7
ATOM      7  C   UNL A   1     -25.330   1.402  26.271  0.00  0.00    +0.031 C 
BRANCH   7   8
ATOM      8  C   UNL A   1     -25.817   0.676  25.164  0.00  0.00    +0.027 C 
ATOM      9  C   UNL A   1     -24.954  -0.008  24.300  0.00  0.00    +0.005 C 
BRANCH   8  12
ATOM     10  C   UNL A   1     -29.517  -0.031  24.237  0.00  0.00    +0.071 A 
ATOM     11  C   UNL A   1     -28.064  -0.236  24.304  0.00  0.00    -0.000 A 
ATOM     12  C   UNL A   1     -27.166   0.849  24.744  0.00  0.00    -0.022 A 
ATOM     13  C   UNL A   1     -27.558   2.178  24.469  0.00  0.00    -0.004 A 
ATOM     14  C   UNL A   1     -28.866   2.434  23.985  0.00  0.00    -0.000 A 
ATOM     15  C   UNL A   1     -29.728   1.416  23.785  0.00  0.00    +0.004 A 
BRANCH  10  16
ATOM     16  C   UNL A   1     -30.031  -0.822  23.768  0.00  0.00    +0.419 C 
ATOM     17  F   UNL A   1     -31.069  -0.359  22.942  0.00  0.00    -0.166 F 
ATOM     18  F   UNL A   1     -29.605  -1.846  23.015  0.00  0.00    -0.166 F 
ATOM     19  F   UNL A   1     -30.876  -1.461  24.730  0.00  0.00    -0.166 F 
ENDBRANCH  10  16
ENDBRANCH   8  12
ENDBRANCH   7   8
ENDBRANCH   1   7
BRANCH   5  20
ATOM     20  C   UNL A   1     -23.781  -1.354  30.003  0.00  0.00    +0.049 C 
BRANCH  20  21
ATOM     21  C   UNL A   1     -24.406  -2.515  29.663  0.00  0.00    -0.018 A 
ATOM     22  C   UNL A   1     -23.682  -3.527  28.968  0.00  0.00    -0.004 A 
ATOM     23  C   UNL A   1     -24.313  -4.740  28.680  0.00  0.00    -0.000 A 
ATOM     24  C   UNL A   1     -25.638  -4.954  29.111  0.00  0.00    -0.000 A 
ATOM     25  C   UNL A   1     -26.341  -3.973  29.817  0.00  0.00    -0.000 A 
ATOM     26  C   UNL A   1     -25.751  -2.827  30.113  0.00  0.00    -0.004 A 
ENDBRANCH  20  21
BRANCH  20  27
ATOM     27  C   UNL A   1     -23.267  -1.095  31.253  0.00  0.00    +0.035 C 
BRANCH  27  28
ATOM     28  C   UNL A   1     -23.903  -0.846  32.234  0.00  0.00    -0.021 A 
ATOM     29  C   UNL A   1     -23.736  -1.329  33.456  0.00  0.00    -0.004 A 
ATOM     30  C   UNL A   1     -24.573  -0.975  34.609  0.00  0.00    -0.000 A 
ATOM     31  C   UNL A   1     -25.419   0.069  34.406  0.00  0.00    -0.000 A 
ATOM     32  C   UNL A   1     -25.636   0.630  33.179  0.00  0.00    -0.000 A 
ATOM     33  C   UNL A   1     -24.949   0.216  32.128  0.00  0.00    -0.004 A 
ENDBRANCH  27  28
ENDBRANCH  20  27
ENDBRANCH   5  20
TORSDOF 8
ENDMDL
ENDMDL
