MODEL 1998
MODEL 1
REMARK VINA RESULT:    -7.260      0.000      0.000
REMARK INTER + INTRA:         -13.389
REMARK INTER:                 -11.504
REMARK INTRA:                  -1.885
REMARK UNBOUND:                -1.885
REMARK  Name = No_1998-gen_results/8p0m/2024-11-26-14-13-15/
REMARK  10 active torsions:
REMARK  status: ('A' for Active; 'I' for Inactive)
REMARK    1  A    between atoms: C_2  and  C_18
REMARK    2  A    between atoms: C_3  and  O_7
REMARK    3  A    between atoms: C_6  and  C_14
REMARK    4  A    between atoms: O_7  and  C_8
REMARK    5  A    between atoms: N_16  and  C_17
REMARK    6  A    between atoms: C_17  and  C_21
REMARK    7  A    between atoms: C_17  and  C_28
REMARK    8  A    between atoms: C_21  and  C_22
REMARK    9  A    between atoms: C_29  and  C_30
REMARK   10  A    between atoms: C_31  and  C_32
REMARK                            x       y       z     vdW  Elec       q    Type
REMARK                         _______ _______ _______ _____ _____    ______ ____
ROOT
ATOM      1  C   UNL A   1     -24.651   0.232  27.148  0.00  0.00    +0.265 C 
ATOM      2  O   UNL A   1     -23.639   0.677  26.615  0.00  0.00    -0.268 OA
ATOM      3  N   UNL A   1     -24.558  -0.486  28.238  0.00  0.00    -0.199 NA
ENDROOT
BRANCH   1   9
ATOM      4  C   UNL A   1     -27.191   0.548  27.333  0.00  0.00    +0.014 A 
ATOM      5  C   UNL A   1     -28.263   0.800  26.833  0.00  0.00    +0.114 A 
ATOM      6  C   UNL A   1     -28.455   0.965  25.462  0.00  0.00    +0.145 A 
ATOM      7  C   UNL A   1     -27.310   0.891  24.575  0.00  0.00    +0.037 A 
ATOM      8  C   UNL A   1     -26.092   0.618  25.195  0.00  0.00    +0.008 A 
ATOM      9  C   UNL A   1     -25.998   0.488  26.504  0.00  0.00    +0.056 A 
BRANCH   5  10
ATOM     10  C   UNL A   1     -29.543   0.834  27.615  0.00  0.00    +0.391 C 
ATOM     11  O   UNL A   1     -29.985   1.626  28.239  0.00  0.00    -0.240 OA
ATOM     12  O   UNL A   1     -29.915  -0.448  27.805  0.00  0.00    -0.240 OA
ENDBRANCH   5  10
BRANCH   6  13
ATOM     13  O   UNL A   1     -29.647   1.273  24.850  0.00  0.00    -0.478 OA
BRANCH  13  14
ATOM     14  C   UNL A   1     -30.405   0.416  24.177  0.00  0.00    +0.152 C 
ATOM     15  C   UNL A   1     -31.658   0.037  24.772  0.00  0.00    +0.008 C 
ATOM     16  C   UNL A   1     -32.008  -1.322  24.791  0.00  0.00    -0.027 C 
ATOM     17  C   UNL A   1     -31.569  -1.737  23.721  0.00  0.00    +0.030 C 
ATOM     18  C   UNL A   1     -29.915  -0.952  23.753  0.00  0.00    +0.049 C 
ATOM     19  C   UNL A   1     -30.888   1.262  22.832  0.00  0.00    +0.048 C 
ENDBRANCH  13  14
ENDBRANCH   6  13
ENDBRANCH   1   9
BRANCH   3  20
ATOM     20  C   UNL A   1     -23.277  -0.755  28.869  0.00  0.00    +0.122 C 
BRANCH  20  21
ATOM     21  C   UNL A   1     -23.381  -2.324  29.017  0.00  0.00    -0.005 C 
ATOM     22  C   UNL A   1     -24.369  -2.995  28.597  0.00  0.00    -0.003 C 
BRANCH  22  23
ATOM     23  C   UNL A   1     -24.465  -4.323  28.868  0.00  0.00    -0.000 C 
ATOM     24  C   UNL A   1     -25.640  -4.890  29.546  0.00  0.00    -0.000 C 
BRANCH  24  25
ATOM     25  C   UNL A   1     -26.689  -4.035  29.884  0.00  0.00    -0.000 C 
ATOM     26  C   UNL A   1     -27.904  -4.560  30.271  0.00  0.00    -0.000 C 
ENDBRANCH  24  25
ENDBRANCH  22  23
ENDBRANCH  20  21
BRANCH  20  27
ATOM     27  C   UNL A   1     -22.936  -0.178  29.873  0.00  0.00    +0.052 C 
BRANCH  27  28
ATOM     28  C   UNL A   1     -23.716  -0.377  30.969  0.00  0.00    -0.020 A 
ATOM     29  C   UNL A   1     -24.896   0.258  31.199  0.00  0.00    -0.004 A 
ATOM     30  C   UNL A   1     -25.467   0.204  32.555  0.00  0.00    -0.000 A 
ATOM     31  C   UNL A   1     -24.887  -0.523  33.472  0.00  0.00    -0.000 A 
ATOM     32  C   UNL A   1     -23.721  -1.216  33.313  0.00  0.00    -0.000 A 
ATOM     33  C   UNL A   1     -23.085  -1.066  32.116  0.00  0.00    -0.004 A 
ENDBRANCH  27  28
ENDBRANCH  20  27
ENDBRANCH   3  20
TORSDOF 10
ENDMDL
ENDMDL
