REMARK  Name = No_1999-gen_results/8p0m/2024-11-26-14-13-15/
REMARK  8 active torsions:
REMARK  status: ('A' for Active; 'I' for Inactive)
REMARK    1  A    between atoms: C_1  and  C_2
REMARK    2  A    between atoms: C_14  and  N_15
REMARK    3  A    between atoms: N_15  and  C_19
REMARK    4  A    between atoms: C_19  and  C_20
REMARK    5  A    between atoms: C_20  and  C_21
REMARK    6  A    between atoms: C_24  and  C_27
REMARK    7  A    between atoms: C_27  and  O_29
REMARK    8  A    between atoms: O_29  and  C_30
REMARK                            x       y       z     vdW  Elec       q    Type
REMARK                         _______ _______ _______ _____ _____    ______ ____
ROOT
ATOM      1  N   UNL A   1     -22.977  -1.104  30.054  0.00  0.00    -0.195 NA
ENDROOT
BRANCH   1  12
ATOM      2  C   UNL A   1     -27.064  -0.119  28.608  0.00  0.00    +0.043 A 
ATOM      3  C   UNL A   1     -25.792  -0.430  29.076  0.00  0.00    -0.000 A 
ATOM      4  C   UNL A   1     -24.546   0.349  28.823  0.00  0.00    +0.015 A 
ATOM      5  C   UNL A   1     -24.659   1.420  27.888  0.00  0.00    +0.021 A 
ATOM      6  C   UNL A   1     -25.947   1.681  27.379  0.00  0.00    +0.003 A 
ATOM      7  C   UNL A   1     -27.044   0.974  27.687  0.00  0.00    +0.001 A 
ATOM      8  C   UNL A   1     -23.455   2.145  27.599  0.00  0.00    +0.136 A 
ATOM      9  N   UNL A   1     -23.445   3.141  26.840  0.00  0.00    -0.239 NA
ATOM     10  C   UNL A   1     -22.144   1.658  28.017  0.00  0.00    +0.284 C 
ATOM     11  N   UNL A   1     -21.974   0.745  28.881  0.00  0.00    -0.180 NA
ATOM     12  C   UNL A   1     -23.164  -0.075  29.247  0.00  0.00    +0.191 C 
ATOM     13  C   UNL A   1     -24.562   3.406  26.048  0.00  0.00    +0.099 A 
ATOM     14  C   UNL A   1     -25.854   2.858  26.434  0.00  0.00    +0.021 A 
ATOM     15  O   UNL A   1     -21.136   2.421  27.784  0.00  0.00    -0.267 OA
BRANCH   2  16
ATOM     16  C   UNL A   1     -28.016  -0.814  28.878  0.00  0.00    +0.341 C 
ATOM     17  F   UNL A   1     -28.995  -0.603  28.173  0.00  0.00    -0.193 F 
ATOM     18  F   UNL A   1     -28.412  -0.616  30.243  0.00  0.00    -0.193 F 
ENDBRANCH   2  16
ENDBRANCH   1  12
BRANCH   1  19
ATOM     19  C   UNL A   1     -23.095  -1.027  31.411  0.00  0.00    +0.096 C 
BRANCH  19  20
ATOM     20  C   UNL A   1     -24.455  -0.862  32.018  0.00  0.00    +0.045 C 
BRANCH  20  21
ATOM     21  C   UNL A   1     -24.682   0.446  32.670  0.00  0.00    -0.021 A 
ATOM     22  C   UNL A   1     -26.031   0.638  33.166  0.00  0.00    -0.004 A 
ATOM     23  C   UNL A   1     -26.493   1.931  33.296  0.00  0.00    +0.006 A 
ATOM     24  C   UNL A   1     -25.719   3.052  32.864  0.00  0.00    +0.076 A 
ATOM     25  C   UNL A   1     -24.559   2.778  32.104  0.00  0.00    +0.006 A 
ATOM     26  C   UNL A   1     -24.167   1.573  31.974  0.00  0.00    -0.004 A 
BRANCH  24  27
ATOM     27  C   UNL A   1     -26.320   4.431  32.962  0.00  0.00    +0.346 C 
ATOM     28  O   UNL A   1     -27.115   4.728  33.720  0.00  0.00    -0.244 OA
BRANCH  27  29
ATOM     29  O   UNL A   1     -25.451   5.370  32.517  0.00  0.00    -0.421 OA
BRANCH  29  30
ATOM     30  C   UNL A   1     -26.011   6.593  32.190  0.00  0.00    +0.149 A 
ATOM     31  C   UNL A   1     -26.575   7.284  32.861  0.00  0.00    +0.038 A 
ATOM     32  C   UNL A   1     -25.597   6.912  30.782  0.00  0.00    +0.038 A 
ATOM     33  C   UNL A   1     -26.138   8.045  30.141  0.00  0.00    +0.003 A 
ATOM     34  C   UNL A   1     -27.116   8.601  32.340  0.00  0.00    +0.003 A 
ATOM     35  C   UNL A   1     -26.840   8.930  31.018  0.00  0.00    +0.000 A 
ENDBRANCH  29  30
ENDBRANCH  27  29
ENDBRANCH  24  27
ENDBRANCH  20  21
ENDBRANCH  19  20
ENDBRANCH   1  19
TORSDOF 8
