MODEL 199
MODEL 1
REMARK VINA RESULT:    -7.667      0.000      0.000
REMARK INTER + INTRA:         -10.825
REMARK INTER:                  -9.460
REMARK INTRA:                  -1.365
REMARK UNBOUND:                -1.365
REMARK  Name = No_199-gen_results/8p0m/2024-11-26-14-13-15/
REMARK  4 active torsions:
REMARK  status: ('A' for Active; 'I' for Inactive)
REMARK    1  A    between atoms: C_5  and  C_11
REMARK    2  A    between atoms: C_10  and  C_15
REMARK    3  A    between atoms: C_10  and  C_16
REMARK    4  A    between atoms: C_16  and  C_17
REMARK                            x       y       z     vdW  Elec       q    Type
REMARK                         _______ _______ _______ _____ _____    ______ ____
ROOT
ATOM      1  C   UNL A   1     -24.843   1.706  30.025  0.00  0.00    +0.000 C 
ATOM      2  C   UNL A   1     -24.988   1.215  28.929  0.00  0.00    +0.000 C 
ATOM      3  C   UNL A   1     -24.502   0.091  28.486  0.00  0.00    +0.004 C 
ATOM      4  C   UNL A   1     -24.709  -0.482  27.133  0.00  0.00    +0.009 C 
ATOM      5  C   UNL A   1     -25.558   0.253  26.259  0.00  0.00    +0.095 C 
ATOM      6  C   UNL A   1     -26.120   1.407  26.741  0.00  0.00    +0.009 C 
ATOM      7  C   UNL A   1     -25.918   1.888  27.990  0.00  0.00    +0.000 C 
ATOM      8  C   UNL A   1     -24.784   0.695  31.172  0.00  0.00    +0.000 C 
ATOM      9  C   UNL A   1     -23.892  -0.312  30.944  0.00  0.00    +0.004 C 
ATOM     10  C   UNL A   1     -24.117  -0.925  29.550  0.00  0.00    +0.025 C 
ENDROOT
BRANCH  10  11
ATOM     11  C   UNL A   1     -24.861  -2.200  29.562  0.00  0.00    -0.022 A 
ATOM     12  C   UNL A   1     -25.872  -2.540  29.732  0.00  0.00    -0.004 A 
ATOM     13  C   UNL A   1     -23.936  -3.356  29.022  0.00  0.00    -0.004 A 
ATOM     14  C   UNL A   1     -26.498  -3.848  29.746  0.00  0.00    -0.000 A 
ATOM     15  C   UNL A   1     -25.683  -4.868  29.266  0.00  0.00    -0.000 A 
ATOM     16  C   UNL A   1     -24.389  -4.604  29.000  0.00  0.00    -0.000 A 
ENDBRANCH  10  11
BRANCH   5  17
ATOM     17  C   UNL A   1     -25.762  -0.115  24.872  0.00  0.00    +0.398 C 
ATOM     18  F   UNL A   1     -25.040   0.302  24.016  0.00  0.00    -0.170 F 
ATOM     19  F   UNL A   1     -25.603  -1.571  24.768  0.00  0.00    -0.170 F 
ATOM     20  F   UNL A   1     -27.095  -0.042  24.493  0.00  0.00    -0.170 F 
ENDBRANCH   5  17
BRANCH  10  21
ATOM     21  C   UNL A   1     -22.599  -1.239  28.973  0.00  0.00    +0.053 C 
BRANCH  21  22
ATOM     22  C   UNL A   1     -21.669  -0.383  29.433  0.00  0.00    +0.096 C 
ATOM     23  N   UNL A   1     -20.867   0.023  28.574  0.00  0.00    -0.151 NA
ENDBRANCH  21  22
ENDBRANCH  10  21
TORSDOF 4
ENDMDL
ENDMDL
