MODEL 19
MODEL 1
REMARK VINA RESULT:    -5.509      0.000      0.000
REMARK INTER + INTRA:          -6.418
REMARK INTER:                  -6.153
REMARK INTRA:                  -0.265
REMARK UNBOUND:                -0.265
REMARK  Name = No_19-gen_results/8p0m/2024-11-26-14-13-15/
REMARK  2 active torsions:
REMARK  status: ('A' for Active; 'I' for Inactive)
REMARK    1  A    between atoms: C_4  and  C_7
REMARK    2  A    between atoms: C_7  and  C_8
REMARK                            x       y       z     vdW  Elec       q    Type
REMARK                         _______ _______ _______ _____ _____    ______ ____
ROOT
ATOM      1  C   UNL A   1     -24.207  -5.002  28.630  0.00  0.00    -0.000 A 
ATOM      2  C   UNL A   1     -25.140  -5.309  29.012  0.00  0.00    -0.000 A 
ATOM      3  C   UNL A   1     -23.896  -3.566  28.727  0.00  0.00    -0.004 A 
ATOM      4  C   UNL A   1     -24.765  -2.683  29.431  0.00  0.00    -0.018 A 
ATOM      5  C   UNL A   1     -25.795  -3.127  29.736  0.00  0.00    -0.004 A 
ATOM      6  C   UNL A   1     -26.185  -4.466  29.700  0.00  0.00    -0.000 A 
ENDROOT
BRANCH   4   7
ATOM      7  C   UNL A   1     -24.358  -1.255  29.489  0.00  0.00    +0.052 C 
BRANCH   7   8
ATOM      8  C   UNL A   1     -23.250  -0.805  28.754  0.00  0.00    -0.026 C 
ATOM      9  C   UNL A   1     -22.071  -0.433  29.356  0.00  0.00    -0.030 C 
ATOM     10  C   UNL A   1     -20.949  -0.128  28.578  0.00  0.00    +0.030 C 
ENDBRANCH   7   8
ENDBRANCH   4   7
TORSDOF 2
ENDMDL
ENDMDL
