MODEL 1
MODEL 1
REMARK VINA RESULT:    -4.411      0.000      0.000
REMARK INTER + INTRA:          -5.106
REMARK INTER:                  -4.926
REMARK INTRA:                  -0.179
REMARK UNBOUND:                -0.179
REMARK  Name = No_1-gen_results/8p0m/2024-11-26-14-13-15/
REMARK  2 active torsions:
REMARK  status: ('A' for Active; 'I' for Inactive)
REMARK    1  A    between atoms: C_3  and  C_4
REMARK    2  A    between atoms: C_5  and  C_6
REMARK                            x       y       z     vdW  Elec       q    Type
REMARK                         _______ _______ _______ _____ _____    ______ ____
ROOT
ATOM      1  C   UNL A   1     -24.565  -3.268  28.856  0.00  0.00    +0.002 C 
ATOM      2  C   UNL A   1     -23.586  -2.477  28.946  0.00  0.00    -0.000 C 
ENDROOT
BRANCH   1   5
ATOM      3  F   UNL A   1     -25.787  -5.391  29.575  0.00  0.00    -0.202 F 
ATOM      4  C   UNL A   1     -24.863  -5.476  29.022  0.00  0.00    +0.167 C 
ATOM      5  C   UNL A   1     -24.251  -4.771  28.660  0.00  0.00    +0.032 C 
ENDBRANCH   1   5
BRANCH   2   6
ATOM      6  C   UNL A   1     -23.918  -1.034  28.984  0.00  0.00    -0.005 C 
ATOM      7  C   UNL A   1     -22.927  -0.109  28.924  0.00  0.00    -0.026 C 
ATOM      8  C   UNL A   1     -21.619  -0.420  29.003  0.00  0.00    +0.031 C 
ENDBRANCH   2   6
TORSDOF 2
ENDMDL
ENDMDL
