REMARK  Name = No_2-gen_results/8p0m/2024-11-26-14-13-15/
REMARK  14 active torsions:
REMARK  status: ('A' for Active; 'I' for Inactive)
REMARK    1  A    between atoms: C_1  and  C_15
REMARK    2  A    between atoms: C_4  and  C_11
REMARK    3  A    between atoms: C_4  and  C_21
REMARK    4  A    between atoms: C_5  and  C_6
REMARK    5  A    between atoms: C_6  and  O_9
REMARK    6  A    between atoms: O_9  and  P_27
REMARK    7  A    between atoms: C_11  and  C_12
REMARK    8  A    between atoms: C_12  and  C_14
REMARK    9  A    between atoms: C_14  and  C_22
REMARK   10  A    between atoms: C_21  and  C_24
REMARK   11  A    between atoms: C_22  and  O_23
REMARK   12  A    between atoms: O_23  and  C_32
REMARK   13  A    between atoms: C_24  and  C_25
REMARK   14  A    between atoms: C_32  and  C_33
REMARK                            x       y       z     vdW  Elec       q    Type
REMARK                         _______ _______ _______ _____ _____    ______ ____
ROOT
ATOM      1  C   UNL A   1     -28.016  -0.814  28.878  0.00  0.00    +0.023 C 
ATOM      2  C   UNL A   1     -28.469  -0.785  29.829  0.00  0.00    +0.013 C 
ATOM      3  C   UNL A   1     -26.504  -0.778  28.877  0.00  0.00    +0.007 C 
ATOM      4  C   UNL A   1     -25.831  -1.681  29.685  0.00  0.00    +0.033 C 
ATOM      5  C   UNL A   1     -28.149  -1.885  30.903  0.00  0.00    +0.091 C 
ATOM      6  C   UNL A   1     -26.552  -1.697  31.041  0.00  0.00    +0.011 C 
ENDROOT
BRANCH   1   7
ATOM      7  C   UNL A   1     -28.371   0.539  28.109  0.00  0.00    -0.022 A 
ATOM      8  C   UNL A   1     -27.571   1.540  28.160  0.00  0.00    -0.004 A 
ATOM      9  C   UNL A   1     -29.482   0.485  27.196  0.00  0.00    -0.004 A 
ATOM     10  C   UNL A   1     -29.737   1.482  26.337  0.00  0.00    -0.000 A 
ATOM     11  C   UNL A   1     -27.883   2.719  27.337  0.00  0.00    -0.000 A 
ATOM     12  C   UNL A   1     -28.948   2.668  26.453  0.00  0.00    -0.000 A 
ENDBRANCH   1   7
BRANCH   5  13
ATOM     13  C   UNL A   1     -28.930  -2.083  32.036  0.00  0.00    +0.373 C 
ATOM     14  F   UNL A   1     -28.983  -3.375  32.298  0.00  0.00    -0.174 F 
ATOM     15  F   UNL A   1     -28.438  -1.474  33.107  0.00  0.00    -0.174 F 
BRANCH  13  16
ATOM     16  O   UNL A   1     -30.252  -1.625  31.862  0.00  0.00    -0.217 OA
BRANCH  16  17
ATOM     17  P   UNL A   1     -31.541  -2.355  32.184  0.00  0.00    +0.536 P 
ATOM     18  O   UNL A   1     -31.595  -2.901  33.267  0.00  0.00    -0.114 OA
ATOM     19  O   UNL A   1     -32.584  -1.220  32.081  0.00  0.00    -0.114 OA
ATOM     20  O   UNL A   1     -31.719  -3.106  30.812  0.00  0.00    -0.222 OA
ENDBRANCH  16  17
ENDBRANCH  13  16
ENDBRANCH   5  13
BRANCH   4  21
ATOM     21  C   UNL A   1     -25.966  -3.118  29.027  0.00  0.00    +0.155 C 
ATOM     22  O   UNL A   1     -24.842  -3.187  28.177  0.00  0.00    -0.223 OA
BRANCH  21  23
ATOM     23  C   UNL A   1     -25.758  -4.058  30.060  0.00  0.00    +0.068 C 
BRANCH  23  24
ATOM     24  C   UNL A   1     -26.406  -5.148  29.531  0.00  0.00    +0.185 C 
ATOM     25  O   UNL A   1     -27.246  -4.917  28.754  0.00  0.00    -0.220 OA
ENDBRANCH  23  24
ENDBRANCH  21  23
ENDBRANCH   4  21
BRANCH   4  26
ATOM     26  C   UNL A   1     -24.359  -1.444  29.870  0.00  0.00    +0.025 C 
BRANCH  26  27
ATOM     27  C   UNL A   1     -23.887  -0.211  29.481  0.00  0.00    -0.042 C 
ATOM     28  C   UNL A   1     -22.619  -0.154  28.742  0.00  0.00    -0.009 C 
BRANCH  27  29
ATOM     29  C   UNL A   1     -23.695   0.777  30.666  0.00  0.00    +0.054 C 
BRANCH  29  30
ATOM     30  C   UNL A   1     -23.619   2.176  30.202  0.00  0.00    +0.147 C 
BRANCH  30  31
ATOM     31  O   UNL A   1     -24.547   2.654  29.523  0.00  0.00    -0.351 OA
BRANCH  31  32
ATOM     32  C   UNL A   1     -24.284   3.224  28.263  0.00  0.00    +0.137 C 
ATOM     33  C   UNL A   1     -24.770   4.428  27.953  0.00  0.00    +0.037 C 
BRANCH  32  34
ATOM     34  C   UNL A   1     -24.136   2.321  27.245  0.00  0.00    +0.003 C 
ATOM     35  C   UNL A   1     -24.455   2.677  26.234  0.00  0.00    -0.002 C 
ENDBRANCH  32  34
ENDBRANCH  31  32
ENDBRANCH  30  31
ENDBRANCH  29  30
ENDBRANCH  27  29
ENDBRANCH  26  27
ENDBRANCH   4  26
TORSDOF 14
