REMARK  Name = No_200-gen_results/8p0m/2024-11-26-14-13-15/
REMARK  3 active torsions:
REMARK  status: ('A' for Active; 'I' for Inactive)
REMARK    1  A    between atoms: C_10  and  C_11
REMARK    2  A    between atoms: C_12  and  C_13
REMARK    3  A    between atoms: C_13  and  O_15
REMARK                            x       y       z     vdW  Elec       q    Type
REMARK                         _______ _______ _______ _____ _____    ______ ____
ROOT
ATOM      1  C   UNL A   1     -28.016  -0.814  28.878  0.00  0.00    -0.004 A 
ATOM      2  C   UNL A   1     -28.469  -0.785  29.829  0.00  0.00    -0.000 A 
ATOM      3  C   UNL A   1     -27.136   0.236  28.535  0.00  0.00    -0.022 A 
ATOM      4  C   UNL A   1     -26.335   0.290  27.284  0.00  0.00    +0.051 C 
ATOM      5  C   UNL A   1     -28.279   0.030  30.694  0.00  0.00    -0.000 A 
ATOM      6  C   UNL A   1     -27.458   1.155  30.662  0.00  0.00    -0.004 A 
ATOM      7  C   UNL A   1     -26.786   1.237  29.497  0.00  0.00    -0.021 A 
ATOM      8  C   UNL A   1     -24.995   0.389  27.488  0.00  0.00    -0.025 C 
ATOM      9  C   UNL A   1     -24.456   1.352  28.371  0.00  0.00    +0.008 C 
ATOM     10  C   UNL A   1     -24.986   1.987  29.188  0.00  0.00    +0.149 C 
ATOM     11  C   UNL A   1     -25.811   2.119  29.582  0.00  0.00    +0.083 C 
ATOM     12  O   UNL A   1     -25.152   1.523  28.855  0.00  0.00    -0.347 OA
ATOM     13  C   UNL A   1     -24.604   0.265  29.452  0.00  0.00    +0.167 C 
ENDROOT
BRANCH  10  14
ATOM     14  C   UNL A   1     -25.476   2.828  30.148  0.00  0.00    +0.224 C 
ATOM     15  F   UNL A   1     -25.157   1.667  30.548  0.00  0.00    -0.231 F 
ENDBRANCH  10  14
BRANCH  11  16
ATOM     16  C   UNL A   1     -26.529   3.279  28.411  0.00  0.00    +0.149 C 
BRANCH  16  17
ATOM     17  O   UNL A   1     -26.522   3.096  28.922  0.00  0.00    -0.351 OA
ATOM     18  C   UNL A   1     -27.508   3.732  30.051  0.00  0.00    +0.174 C 
ENDBRANCH  16  17
ENDBRANCH  11  16
TORSDOF 3
