REMARK  Name = No_2000-gen_results/8p0m/2024-11-26-14-13-15/
REMARK  6 active torsions:
REMARK  status: ('A' for Active; 'I' for Inactive)
REMARK    1  A    between atoms: C_2  and  C_7
REMARK    2  A    between atoms: C_4  and  C_18
REMARK    3  A    between atoms: C_7  and  C_8
REMARK    4  A    between atoms: C_8  and  C_10
REMARK    5  A    between atoms: C_10  and  C_11
REMARK    6  A    between atoms: C_23  and  C_24
REMARK                            x       y       z     vdW  Elec       q    Type
REMARK                         _______ _______ _______ _____ _____    ______ ____
ROOT
ATOM      1  C   UNL A   1     -28.016  -0.814  28.878  0.00  0.00    -0.004 A 
ATOM      2  C   UNL A   1     -27.064  -0.119  28.608  0.00  0.00    -0.022 A 
ATOM      3  C   UNL A   1     -26.929   1.171  29.008  0.00  0.00    -0.004 A 
ATOM      4  C   UNL A   1     -27.956   1.741  29.784  0.00  0.00    -0.000 A 
ATOM      5  C   UNL A   1     -29.057  -0.327  29.747  0.00  0.00    -0.000 A 
ATOM      6  C   UNL A   1     -28.983   0.972  30.152  0.00  0.00    -0.000 A 
ENDROOT
BRANCH   4   7
ATOM      7  C   UNL A   1     -27.865   3.194  30.262  0.00  0.00    -0.000 A 
ATOM      8  C   UNL A   1     -28.906   3.873  30.596  0.00  0.00    +0.000 A 
ATOM      9  C   UNL A   1     -26.533   3.771  30.328  0.00  0.00    +0.000 A 
ATOM     10  C   UNL A   1     -26.470   5.181  30.104  0.00  0.00    +0.007 A 
ATOM     11  C   UNL A   1     -28.801   5.313  30.634  0.00  0.00    +0.007 A 
ATOM     12  C   UNL A   1     -27.528   5.957  30.507  0.00  0.00    +0.080 A 
BRANCH  12  13
ATOM     13  C   UNL A   1     -27.387   7.422  30.542  0.00  0.00    +0.388 C 
ATOM     14  O   UNL A   1     -28.061   8.153  31.033  0.00  0.00    -0.241 OA
ATOM     15  O   UNL A   1     -26.077   7.763  30.329  0.00  0.00    -0.241 OA
ENDBRANCH  12  13
ENDBRANCH   4   7
BRANCH   2  16
ATOM     16  C   UNL A   1     -25.881  -0.626  27.794  0.00  0.00    +0.027 C 
BRANCH  16  17
ATOM     17  C   UNL A   1     -24.697  -1.057  28.624  0.00  0.00    +0.008 C 
ATOM     18  C   UNL A   1     -24.643  -2.255  29.104  0.00  0.00    +0.001 C 
BRANCH  17  19
ATOM     19  C   UNL A   1     -23.623  -0.151  28.789  0.00  0.00    +0.023 C 
ATOM     20  C   UNL A   1     -22.526  -0.581  29.674  0.00  0.00    +0.005 C 
BRANCH  19  21
ATOM     21  C   UNL A   1     -23.409   1.160  28.309  0.00  0.00    -0.022 A 
ATOM     22  C   UNL A   1     -24.173   2.189  28.494  0.00  0.00    -0.004 A 
ATOM     23  C   UNL A   1     -24.072   3.426  27.806  0.00  0.00    -0.000 A 
ATOM     24  C   UNL A   1     -23.626   3.217  26.433  0.00  0.00    -0.000 A 
ATOM     25  C   UNL A   1     -22.902   2.124  26.063  0.00  0.00    -0.000 A 
ATOM     26  C   UNL A   1     -22.817   1.060  26.927  0.00  0.00    -0.004 A 
ENDBRANCH  19  21
ENDBRANCH  17  19
ENDBRANCH  16  17
ENDBRANCH   2  16
TORSDOF 6
