MODEL 2000
MODEL 1
REMARK VINA RESULT:    -7.909      0.000      0.000
REMARK INTER + INTRA:         -12.737
REMARK INTER:                 -10.684
REMARK INTRA:                  -2.053
REMARK UNBOUND:                -2.053
REMARK  Name = No_2000-gen_results/8p0m/2024-11-26-14-13-15/
REMARK  6 active torsions:
REMARK  status: ('A' for Active; 'I' for Inactive)
REMARK    1  A    between atoms: C_2  and  C_7
REMARK    2  A    between atoms: C_4  and  C_18
REMARK    3  A    between atoms: C_7  and  C_8
REMARK    4  A    between atoms: C_8  and  C_10
REMARK    5  A    between atoms: C_10  and  C_11
REMARK    6  A    between atoms: C_23  and  C_24
REMARK                            x       y       z     vdW  Elec       q    Type
REMARK                         _______ _______ _______ _____ _____    ______ ____
ROOT
ATOM      1  C   UNL A   1     -21.961   1.696  27.335  0.00  0.00    -0.004 A 
ATOM      2  C   UNL A   1     -22.569   0.860  27.962  0.00  0.00    -0.022 A 
ATOM      3  C   UNL A   1     -23.784   0.374  27.599  0.00  0.00    -0.004 A 
ATOM      4  C   UNL A   1     -24.378   0.871  26.424  0.00  0.00    -0.000 A 
ATOM      5  C   UNL A   1     -22.464   2.178  26.074  0.00  0.00    -0.000 A 
ATOM      6  C   UNL A   1     -23.694   1.743  25.679  0.00  0.00    -0.000 A 
ENDROOT
BRANCH   4   7
ATOM      7  C   UNL A   1     -25.750   0.367  25.964  0.00  0.00    -0.000 A 
ATOM      8  C   UNL A   1     -25.991   0.054  24.739  0.00  0.00    +0.000 A 
ATOM      9  C   UNL A   1     -26.773   0.251  26.989  0.00  0.00    +0.000 A 
ATOM     10  C   UNL A   1     -28.113   0.451  26.534  0.00  0.00    +0.007 A 
ATOM     11  C   UNL A   1     -27.367  -0.010  24.307  0.00  0.00    +0.007 A 
ATOM     12  C   UNL A   1     -28.436   0.068  25.256  0.00  0.00    +0.080 A 
BRANCH  12  13
ATOM     13  C   UNL A   1     -29.850   0.005  24.849  0.00  0.00    +0.388 C 
ATOM     14  O   UNL A   1     -30.265   0.148  23.830  0.00  0.00    -0.241 OA
ATOM     15  O   UNL A   1     -30.558  -0.735  25.759  0.00  0.00    -0.241 OA
ENDBRANCH  12  13
ENDBRANCH   4   7
BRANCH   2  16
ATOM     16  C   UNL A   1     -22.023   0.231  29.237  0.00  0.00    +0.027 C 
BRANCH  16  17
ATOM     17  C   UNL A   1     -22.965   0.300  30.414  0.00  0.00    +0.008 C 
ATOM     18  C   UNL A   1     -23.488   1.429  30.761  0.00  0.00    +0.001 C 
BRANCH  17  19
ATOM     19  C   UNL A   1     -23.321  -0.904  31.065  0.00  0.00    +0.023 C 
ATOM     20  C   UNL A   1     -22.765  -1.115  32.414  0.00  0.00    +0.005 C 
BRANCH  19  21
ATOM     21  C   UNL A   1     -24.079  -2.019  30.645  0.00  0.00    -0.022 A 
ATOM     22  C   UNL A   1     -23.896  -2.723  29.574  0.00  0.00    -0.004 A 
ATOM     23  C   UNL A   1     -24.807  -3.675  29.046  0.00  0.00    -0.000 A 
ATOM     24  C   UNL A   1     -26.184  -3.264  29.297  0.00  0.00    -0.000 A 
ATOM     25  C   UNL A   1     -26.519  -2.438  30.327  0.00  0.00    -0.000 A 
ATOM     26  C   UNL A   1     -25.523  -1.755  30.982  0.00  0.00    -0.004 A 
ENDBRANCH  19  21
ENDBRANCH  17  19
ENDBRANCH  16  17
ENDBRANCH   2  16
TORSDOF 6
ENDMDL
ENDMDL
