MODEL 2001
MODEL 1
REMARK VINA RESULT:    -7.927      0.000      0.000
REMARK INTER + INTRA:         -11.158
REMARK INTER:                 -10.708
REMARK INTRA:                  -0.450
REMARK UNBOUND:                -0.450
REMARK  Name = No_2001-gen_results/8p0m/2024-11-26-14-13-15/
REMARK  6 active torsions:
REMARK  status: ('A' for Active; 'I' for Inactive)
REMARK    1  A    between atoms: C_2  and  C_7
REMARK    2  A    between atoms: C_10  and  C_11
REMARK    3  A    between atoms: N_13  and  C_14
REMARK    4  A    between atoms: C_17  and  C_20
REMARK    5  A    between atoms: N_22  and  C_24
REMARK    6  A    between atoms: C_28  and  C_30
REMARK                            x       y       z     vdW  Elec       q    Type
REMARK                         _______ _______ _______ _____ _____    ______ ____
ROOT
ATOM      1  C   UNL A   1     -27.973  -8.183  36.105  0.00  0.00    +0.074 A 
ATOM      2  C   UNL A   1     -27.550  -8.078  37.072  0.00  0.00    +0.021 A 
ATOM      3  C   UNL A   1     -27.405  -6.817  37.826  0.00  0.00    +0.057 A 
ATOM      4  C   UNL A   1     -28.699  -7.000  35.503  0.00  0.00    +0.017 A 
ATOM      5  C   UNL A   1     -28.623  -5.792  36.101  0.00  0.00    +0.002 A 
ATOM      6  C   UNL A   1     -28.005  -5.763  37.310  0.00  0.00    +0.005 A 
ENDROOT
BRANCH   1   9
ATOM      7  C   UNL A   1     -27.228 -10.210  34.815  0.00  0.00    +0.325 C 
ATOM      8  O   UNL A   1     -26.062  -9.764  34.888  0.00  0.00    -0.263 OA
ATOM      9  N   UNL A   1     -28.210  -9.277  35.296  0.00  0.00    -0.172 NA
BRANCH   7  13
ATOM     10  C   UNL A   1     -28.298 -11.705  31.858  0.00  0.00    +0.272 C 
ATOM     11  O   UNL A   1     -28.086 -12.787  32.000  0.00  0.00    -0.268 OA
ATOM     12  N   UNL A   1     -28.219 -10.767  32.874  0.00  0.00    -0.133 NA
ATOM     13  C   UNL A   1     -27.553 -11.141  34.089  0.00  0.00    +0.327 C 
ATOM     14  O   UNL A   1     -27.572 -12.332  34.359  0.00  0.00    -0.263 OA
BRANCH  10  16
ATOM     15  C   UNL A   1     -28.749 -11.863  29.628  0.00  0.00    +0.005 A 
ATOM     16  C   UNL A   1     -29.074 -11.360  30.495  0.00  0.00    +0.056 A 
ATOM     17  C   UNL A   1     -29.488 -11.509  28.356  0.00  0.00    +0.000 A 
ATOM     18  C   UNL A   1     -30.434 -10.462  28.374  0.00  0.00    +0.000 A 
ATOM     19  C   UNL A   1     -29.989 -10.230  30.776  0.00  0.00    +0.005 A 
ATOM     20  C   UNL A   1     -30.682  -9.873  29.628  0.00  0.00    +0.000 A 
ENDBRANCH  10  16
ENDBRANCH   7  13
ENDBRANCH   1   9
BRANCH   3  21
ATOM     21  C   UNL A   1     -26.701  -6.751  39.152  0.00  0.00    +0.269 C 
ATOM     22  N   UNL A   1     -27.106  -7.408  40.118  0.00  0.00    -0.175 NA
ATOM     23  O   UNL A   1     -25.675  -6.084  39.199  0.00  0.00    -0.268 OA
BRANCH  22  24
ATOM     24  C   UNL A   1     -26.452  -7.444  41.413  0.00  0.00    +0.074 A 
ATOM     25  C   UNL A   1     -26.810  -6.566  42.200  0.00  0.00    +0.017 A 
ATOM     26  C   UNL A   1     -26.277  -6.481  43.578  0.00  0.00    +0.001 A 
ATOM     27  C   UNL A   1     -25.313  -7.494  43.891  0.00  0.00    +0.000 A 
ATOM     28  C   UNL A   1     -24.988  -8.422  42.923  0.00  0.00    +0.001 A 
ATOM     29  C   UNL A   1     -25.579  -8.398  41.663  0.00  0.00    +0.017 A 
BRANCH  28  30
ATOM     30  C   UNL A   1     -24.000  -9.493  43.214  0.00  0.00    -0.004 C 
ATOM     31  C   UNL A   1     -24.379 -10.619  43.791  0.00  0.00    -0.026 C 
ATOM     32  C   UNL A   1     -25.825 -10.800  43.908  0.00  0.00    +0.031 C 
ENDBRANCH  28  30
ENDBRANCH  22  24
ENDBRANCH   3  21
TORSDOF 6
ENDMDL
ENDMDL
