REMARK  Name = No_2001-gen_results/8p0m/2024-11-26-14-13-15/
REMARK  6 active torsions:
REMARK  status: ('A' for Active; 'I' for Inactive)
REMARK    1  A    between atoms: C_2  and  C_7
REMARK    2  A    between atoms: C_10  and  C_11
REMARK    3  A    between atoms: N_13  and  C_14
REMARK    4  A    between atoms: C_17  and  C_20
REMARK    5  A    between atoms: N_22  and  C_24
REMARK    6  A    between atoms: C_28  and  C_30
REMARK                            x       y       z     vdW  Elec       q    Type
REMARK                         _______ _______ _______ _____ _____    ______ ____
ROOT
ATOM      1  C   UNL A   1     -32.495  -3.071  33.995  0.00  0.00    +0.074 A 
ATOM      2  C   UNL A   1     -32.527  -2.800  35.020  0.00  0.00    +0.021 A 
ATOM      3  C   UNL A   1     -33.064  -3.624  36.121  0.00  0.00    +0.057 A 
ATOM      4  C   UNL A   1     -32.814  -4.500  33.616  0.00  0.00    +0.017 A 
ATOM      5  C   UNL A   1     -33.325  -5.340  34.541  0.00  0.00    +0.002 A 
ATOM      6  C   UNL A   1     -33.377  -4.867  35.813  0.00  0.00    +0.005 A 
ENDROOT
BRANCH   1   9
ATOM      7  C   UNL A   1     -32.716  -1.528  32.020  0.00  0.00    +0.325 C 
ATOM      8  O   UNL A   1     -33.956  -1.610  32.161  0.00  0.00    -0.263 OA
ATOM      9  N   UNL A   1     -32.000  -2.439  32.870  0.00  0.00    -0.172 NA
BRANCH   7  13
ATOM     10  C   UNL A   1     -30.074  -0.836  29.861  0.00  0.00    +0.272 C 
ATOM     11  O   UNL A   1     -30.561  -0.442  28.942  0.00  0.00    -0.268 OA
ATOM     12  N   UNL A   1     -30.743  -1.043  31.056  0.00  0.00    -0.133 NA
ATOM     13  C   UNL A   1     -32.178  -1.035  31.037  0.00  0.00    +0.327 C 
ATOM     14  O   UNL A   1     -32.693  -0.360  30.159  0.00  0.00    -0.263 OA
BRANCH  10  16
ATOM     15  C   UNL A   1     -28.016  -0.814  28.878  0.00  0.00    +0.005 A 
ATOM     16  C   UNL A   1     -28.469  -0.785  29.829  0.00  0.00    +0.056 A 
ATOM     17  C   UNL A   1     -26.504  -0.778  28.877  0.00  0.00    +0.000 A 
ATOM     18  C   UNL A   1     -25.810  -0.853  30.103  0.00  0.00    +0.000 A 
ATOM     19  C   UNL A   1     -27.991  -0.892  31.226  0.00  0.00    +0.005 A 
ATOM     20  C   UNL A   1     -26.604  -0.868  31.265  0.00  0.00    +0.000 A 
ENDBRANCH  10  16
ENDBRANCH   7  13
ENDBRANCH   1   9
BRANCH   3  21
ATOM     21  C   UNL A   1     -33.159  -3.115  37.531  0.00  0.00    +0.269 C 
ATOM     22  N   UNL A   1     -32.554  -2.095  37.880  0.00  0.00    -0.175 NA
ATOM     23  O   UNL A   1     -33.920  -3.712  38.283  0.00  0.00    -0.268 OA
BRANCH  22  24
ATOM     24  C   UNL A   1     -32.637  -1.507  39.204  0.00  0.00    +0.074 A 
ATOM     25  C   UNL A   1     -32.087  -0.411  39.321  0.00  0.00    +0.017 A 
ATOM     26  C   UNL A   1     -32.112   0.349  40.590  0.00  0.00    +0.001 A 
ATOM     27  C   UNL A   1     -32.813  -0.314  41.650  0.00  0.00    +0.000 A 
ATOM     28  C   UNL A   1     -33.384  -1.544  41.400  0.00  0.00    +0.001 A 
ATOM     29  C   UNL A   1     -33.300  -2.145  40.147  0.00  0.00    +0.017 A 
BRANCH  28  30
ATOM     30  C   UNL A   1     -34.127  -2.257  42.471  0.00  0.00    -0.004 C 
ATOM     31  C   UNL A   1     -34.092  -1.821  43.718  0.00  0.00    -0.026 C 
ATOM     32  C   UNL A   1     -33.470  -0.511  43.900  0.00  0.00    +0.031 C 
ENDBRANCH  28  30
ENDBRANCH  22  24
ENDBRANCH   3  21
TORSDOF 6
