MODEL 2002
MODEL 1
REMARK VINA RESULT:    -4.272      0.000      0.000
REMARK INTER + INTRA:          -4.272
REMARK INTER:                  -4.272
REMARK INTRA:                   0.000
REMARK UNBOUND:                 0.000
REMARK  Name = No_2002-gen_results/8p0m/2024-11-26-14-13-15/
REMARK  0 active torsions:
REMARK  status: ('A' for Active; 'I' for Inactive)
REMARK                            x       y       z     vdW  Elec       q    Type
REMARK                         _______ _______ _______ _____ _____    ______ ____
ROOT
ATOM      1  C   UNL A   1     -26.069  -4.847  29.645  0.00  0.00    +0.000 A 
ATOM      2  C   UNL A   1     -26.190  -3.646  29.721  0.00  0.00    +0.000 A 
ATOM      3  C   UNL A   1     -25.207  -2.754  29.342  0.00  0.00    +0.000 A 
ATOM      4  C   UNL A   1     -24.002  -3.280  28.797  0.00  0.00    +0.000 A 
ATOM      5  C   UNL A   1     -23.983  -4.615  28.575  0.00  0.00    +0.000 A 
ATOM      6  C   UNL A   1     -24.989  -5.390  28.933  0.00  0.00    +0.000 A 
ENDROOT
TORSDOF 0
ENDMDL
ENDMDL
