REMARK  Name = No_2003-gen_results/8p0m/2024-11-26-14-13-15/
REMARK  0 active torsions:
REMARK  status: ('A' for Active; 'I' for Inactive)
REMARK                            x       y       z     vdW  Elec       q    Type
REMARK                         _______ _______ _______ _____ _____    ______ ____
ROOT
ATOM      1  C   UNL A   1     -28.016  -0.814  28.878  0.00  0.00    +0.019 A 
ATOM      2  C   UNL A   1     -27.064  -0.119  28.608  0.00  0.00    +0.081 A 
ATOM      3  C   UNL A   1     -25.792  -0.430  29.076  0.00  0.00    +0.018 A 
ATOM      4  C   UNL A   1     -25.576  -1.565  29.936  0.00  0.00    +0.002 A 
ATOM      5  C   UNL A   1     -26.735  -2.300  30.217  0.00  0.00    +0.000 A 
ATOM      6  C   UNL A   1     -27.918  -1.954  29.763  0.00  0.00    +0.002 A 
ATOM      7  N   UNL A   1     -27.106   1.034  27.819  0.00  0.00    -0.244 NA
ATOM      8  C   UNL A   1     -26.512   2.088  27.851  0.00  0.00    +0.099 A 
ATOM      9  C   UNL A   1     -25.110   1.897  28.376  0.00  0.00    +0.021 A 
ATOM     10  C   UNL A   1     -24.779   0.720  29.179  0.00  0.00    +0.003 A 
ENDROOT
TORSDOF 0
