MODEL 2003
MODEL 1
REMARK VINA RESULT:    -5.241      0.000      0.000
REMARK INTER + INTRA:          -5.241
REMARK INTER:                  -5.241
REMARK INTRA:                   0.000
REMARK UNBOUND:                 0.000
REMARK  Name = No_2003-gen_results/8p0m/2024-11-26-14-13-15/
REMARK  0 active torsions:
REMARK  status: ('A' for Active; 'I' for Inactive)
REMARK                            x       y       z     vdW  Elec       q    Type
REMARK                         _______ _______ _______ _____ _____    ______ ____
ROOT
ATOM      1  C   UNL A   1     -26.300  -3.480  29.865  0.00  0.00    +0.019 A 
ATOM      2  C   UNL A   1     -25.522  -2.611  29.545  0.00  0.00    +0.081 A 
ATOM      3  C   UNL A   1     -24.343  -2.915  28.872  0.00  0.00    +0.018 A 
ATOM      4  C   UNL A   1     -23.990  -4.279  28.574  0.00  0.00    +0.002 A 
ATOM      5  C   UNL A   1     -24.935  -5.222  29.000  0.00  0.00    +0.000 A 
ATOM      6  C   UNL A   1     -26.026  -4.884  29.649  0.00  0.00    +0.002 A 
ATOM      7  N   UNL A   1     -25.693  -1.246  29.789  0.00  0.00    -0.244 NA
ATOM      8  C   UNL A   1     -24.932  -0.345  30.058  0.00  0.00    +0.099 A 
ATOM      9  C   UNL A   1     -23.588  -0.567  29.408  0.00  0.00    +0.021 A 
ATOM     10  C   UNL A   1     -23.188  -1.910  28.986  0.00  0.00    +0.003 A 
ENDROOT
TORSDOF 0
ENDMDL
ENDMDL
