REMARK  Name = No_2004-gen_results/8p0m/2024-11-26-14-13-15/
REMARK  0 active torsions:
REMARK  status: ('A' for Active; 'I' for Inactive)
REMARK                            x       y       z     vdW  Elec       q    Type
REMARK                         _______ _______ _______ _____ _____    ______ ____
ROOT
ATOM      1  O   UNL A   1     -28.123  -1.335  28.487  0.00  0.00    -0.269 OA
ATOM      2  C   UNL A   1     -28.521  -0.436  29.078  0.00  0.00    +0.265 C 
ATOM      3  C   UNL A   1     -29.698   0.051  28.976  0.00  0.00    +0.089 C 
ATOM      4  N   UNL A   1     -27.474   0.343  29.791  0.00  0.00    -0.202 NA
ATOM      5  C   UNL A   1     -27.812   1.453  30.589  0.00  0.00    +0.116 C 
ATOM      6  C   UNL A   1     -30.622  -0.388  28.206  0.00  0.00    +0.279 C 
ATOM      7  C   UNL A   1     -29.120   1.829  30.473  0.00  0.00    +0.028 C 
ATOM      8  C   UNL A   1     -30.037   1.284  29.746  0.00  0.00    +0.038 C 
ATOM      9  F   UNL A   1     -30.064  -0.762  27.071  0.00  0.00    -0.172 F 
ATOM     10  F   UNL A   1     -31.056  -1.567  28.699  0.00  0.00    -0.172 F 
ENDROOT
TORSDOF 0
