MODEL 2004
MODEL 1
REMARK VINA RESULT:    -4.641      0.000      0.000
REMARK INTER + INTRA:          -4.641
REMARK INTER:                  -4.641
REMARK INTRA:                   0.000
REMARK UNBOUND:                 0.000
REMARK  Name = No_2004-gen_results/8p0m/2024-11-26-14-13-15/
REMARK  0 active torsions:
REMARK  status: ('A' for Active; 'I' for Inactive)
REMARK                            x       y       z     vdW  Elec       q    Type
REMARK                         _______ _______ _______ _____ _____    ______ ____
ROOT
ATOM      1  O   UNL A   1     -25.864  -1.200  29.821  0.00  0.00    -0.269 OA
ATOM      2  C   UNL A   1     -25.598  -2.307  29.684  0.00  0.00    +0.265 C 
ATOM      3  C   UNL A   1     -24.480  -2.749  29.249  0.00  0.00    +0.089 C 
ATOM      4  N   UNL A   1     -26.757  -3.234  29.774  0.00  0.00    -0.202 NA
ATOM      5  C   UNL A   1     -26.584  -4.627  29.665  0.00  0.00    +0.116 C 
ATOM      6  C   UNL A   1     -23.479  -2.030  28.903  0.00  0.00    +0.279 C 
ATOM      7  C   UNL A   1     -25.323  -4.990  29.285  0.00  0.00    +0.028 C 
ATOM      8  C   UNL A   1     -24.318  -4.218  29.039  0.00  0.00    +0.038 C 
ATOM      9  F   UNL A   1     -23.939  -0.956  28.292  0.00  0.00    -0.172 F 
ATOM     10  F   UNL A   1     -22.936  -1.499  30.019  0.00  0.00    -0.172 F 
ENDROOT
TORSDOF 0
ENDMDL
ENDMDL
