REMARK  Name = No_2005-gen_results/8p0m/2024-11-26-14-13-15/
REMARK  0 active torsions:
REMARK  status: ('A' for Active; 'I' for Inactive)
REMARK                            x       y       z     vdW  Elec       q    Type
REMARK                         _______ _______ _______ _____ _____    ______ ____
ROOT
ATOM      1  C   UNL A   1     -28.016  -0.814  28.878  0.00  0.00    +0.015 A 
ATOM      2  C   UNL A   1     -28.469  -0.785  29.829  0.00  0.00    +0.099 A 
ATOM      3  C   UNL A   1     -28.196   0.348  28.055  0.00  0.00    -0.018 A 
ATOM      4  C   UNL A   1     -27.442   0.510  26.795  0.00  0.00    +0.047 C 
ATOM      5  C   UNL A   1     -26.169  -0.079  26.679  0.00  0.00    +0.106 C 
ATOM      6  C   UNL A   1     -25.731  -0.961  27.688  0.00  0.00    -0.007 A 
ATOM      7  C   UNL A   1     -26.504  -1.222  28.758  0.00  0.00    -0.002 A 
ATOM      8  N   UNL A   1     -29.616  -0.357  30.142  0.00  0.00    -0.242 NA
ATOM      9  C   UNL A   1     -29.447   0.862  28.147  0.00  0.00    +0.017 A 
ATOM     10  C   UNL A   1     -30.160   0.579  29.291  0.00  0.00    +0.099 A 
ATOM     11  C   UNL A   1     -25.907  -2.247  29.703  0.00  0.00    -0.000 A 
ATOM     12  C   UNL A   1     -24.676  -2.778  29.437  0.00  0.00    -0.000 A 
ATOM     13  C   UNL A   1     -23.807  -2.221  28.520  0.00  0.00    -0.000 A 
ATOM     14  C   UNL A   1     -24.310  -1.335  27.594  0.00  0.00    -0.003 A 
ATOM     15 CL   UNL A   1     -25.242   0.301  25.316  0.00  0.00    -0.110 Cl
ENDROOT
TORSDOF 0
