MODEL 2005
MODEL 1
REMARK VINA RESULT:    -6.270      0.000      0.000
REMARK INTER + INTRA:          -6.270
REMARK INTER:                  -6.270
REMARK INTRA:                   0.000
REMARK UNBOUND:                 0.000
REMARK  Name = No_2005-gen_results/8p0m/2024-11-26-14-13-15/
REMARK  0 active torsions:
REMARK  status: ('A' for Active; 'I' for Inactive)
REMARK                            x       y       z     vdW  Elec       q    Type
REMARK                         _______ _______ _______ _____ _____    ______ ____
ROOT
ATOM      1  C   UNL A   1     -25.141  -0.790  30.072  0.00  0.00    +0.015 A 
ATOM      2  C   UNL A   1     -25.291  -0.025  30.782  0.00  0.00    +0.099 A 
ATOM      3  C   UNL A   1     -23.778  -1.164  29.822  0.00  0.00    -0.018 A 
ATOM      4  C   UNL A   1     -23.455  -2.355  29.010  0.00  0.00    +0.047 C 
ATOM      5  C   UNL A   1     -24.355  -3.436  28.993  0.00  0.00    +0.106 C 
ATOM      6  C   UNL A   1     -25.621  -3.280  29.594  0.00  0.00    -0.007 A 
ATOM      7  C   UNL A   1     -25.960  -2.124  30.194  0.00  0.00    -0.002 A 
ATOM      8  N   UNL A   1     -24.641   1.048  30.932  0.00  0.00    -0.242 NA
ATOM      9  C   UNL A   1     -22.943  -0.096  29.791  0.00  0.00    +0.017 A 
ATOM     10  C   UNL A   1     -23.347   1.037  30.462  0.00  0.00    +0.099 A 
ATOM     11  C   UNL A   1     -27.383  -2.108  30.720  0.00  0.00    -0.000 A 
ATOM     12  C   UNL A   1     -28.167  -3.220  30.588  0.00  0.00    -0.000 A 
ATOM     13  C   UNL A   1     -27.651  -4.461  30.274  0.00  0.00    -0.000 A 
ATOM     14  C   UNL A   1     -26.389  -4.529  29.729  0.00  0.00    -0.003 A 
ATOM     15 CL   UNL A   1     -23.862  -4.865  28.233  0.00  0.00    -0.110 Cl
ENDROOT
TORSDOF 0
ENDMDL
ENDMDL
