MODEL 2006
MODEL 1
REMARK VINA RESULT:    -6.317      0.000      0.000
REMARK INTER + INTRA:          -6.317
REMARK INTER:                  -6.317
REMARK INTRA:                   0.000
REMARK UNBOUND:                 0.000
REMARK  Name = No_2006-gen_results/8p0m/2024-11-26-14-13-15/
REMARK  0 active torsions:
REMARK  status: ('A' for Active; 'I' for Inactive)
REMARK                            x       y       z     vdW  Elec       q    Type
REMARK                         _______ _______ _______ _____ _____    ______ ____
ROOT
ATOM      1  C   UNL A   1     -27.181 -12.333  32.140  0.00  0.00    +0.000 A 
ATOM      2  C   UNL A   1     -26.951 -12.028  33.122  0.00  0.00    +0.000 A 
ATOM      3  C   UNL A   1     -28.328 -11.781  31.529  0.00  0.00    +0.001 A 
ATOM      4  C   UNL A   1     -28.730 -12.019  30.118  0.00  0.00    +0.000 A 
ATOM      5  C   UNL A   1     -27.638 -11.099  34.037  0.00  0.00    +0.000 A 
ATOM      6  C   UNL A   1     -28.785 -10.515  33.500  0.00  0.00    +0.001 A 
ATOM      7  C   UNL A   1     -29.137 -10.801  32.220  0.00  0.00    +0.011 A 
ATOM      8  C   UNL A   1     -29.329 -11.453  29.341  0.00  0.00    +0.004 A 
ATOM      9  C   UNL A   1     -30.060 -10.236  29.934  0.00  0.00    +0.030 A 
ATOM     10  C   UNL A   1     -29.958  -9.957  31.318  0.00  0.00    +0.059 A 
ATOM     11  C   UNL A   1     -31.011  -9.468  29.037  0.00  0.00    +0.100 A 
ATOM     12  N   UNL A   1     -31.004  -9.734  27.722  0.00  0.00    -0.242 NA
ATOM     13  C   UNL A   1     -30.450 -10.885  27.230  0.00  0.00    +0.099 A 
ATOM     14  C   UNL A   1     -29.597 -11.668  27.983  0.00  0.00    +0.021 A 
ATOM     15 CL   UNL A   1     -30.067  -8.344  31.722  0.00  0.00    -0.082 Cl
ENDROOT
TORSDOF 0
ENDMDL
ENDMDL
