REMARK  Name = No_2007-gen_results/8p0m/2024-11-26-14-13-15/
REMARK  2 active torsions:
REMARK  status: ('A' for Active; 'I' for Inactive)
REMARK    1  A    between atoms: C_2  and  C_11
REMARK    2  A    between atoms: C_3  and  C_7
REMARK                            x       y       z     vdW  Elec       q    Type
REMARK                         _______ _______ _______ _____ _____    ______ ____
ROOT
ATOM      1  C   UNL A   1     -28.016  -0.814  28.878  0.00  0.00    +0.010 A 
ATOM      2  C   UNL A   1     -28.469  -0.785  29.829  0.00  0.00    +0.080 A 
ATOM      3  C   UNL A   1     -27.136   0.236  28.535  0.00  0.00    +0.072 A 
ATOM      4  C   UNL A   1     -26.875   1.282  29.398  0.00  0.00    +0.004 A 
ATOM      5  C   UNL A   1     -28.361   0.199  30.924  0.00  0.00    +0.007 A 
ATOM      6  C   UNL A   1     -27.528   1.223  30.636  0.00  0.00    +0.000 A 
ENDROOT
BRANCH   3   7
ATOM      7  C   UNL A   1     -26.399   0.295  27.228  0.00  0.00    +0.419 C 
ATOM      8  F   UNL A   1     -25.436  -0.307  27.269  0.00  0.00    -0.166 F 
ATOM      9  F   UNL A   1     -26.088   1.593  26.841  0.00  0.00    -0.166 F 
ATOM     10  F   UNL A   1     -27.253  -0.099  26.188  0.00  0.00    -0.166 F 
ENDBRANCH   3   7
BRANCH   2  11
ATOM     11  C   UNL A   1     -29.397  -2.002  30.329  0.00  0.00    +0.388 C 
ATOM     12  O   UNL A   1     -29.766  -1.993  31.531  0.00  0.00    -0.241 OA
ATOM     13  O   UNL A   1     -29.530  -2.978  29.611  0.00  0.00    -0.241 OA
ENDBRANCH   2  11
TORSDOF 2
