MODEL 2007
MODEL 1
REMARK VINA RESULT:    -5.834      0.000      0.000
REMARK INTER + INTRA:          -6.796
REMARK INTER:                  -6.516
REMARK INTRA:                  -0.280
REMARK UNBOUND:                -0.280
REMARK  Name = No_2007-gen_results/8p0m/2024-11-26-14-13-15/
REMARK  2 active torsions:
REMARK  status: ('A' for Active; 'I' for Inactive)
REMARK    1  A    between atoms: C_2  and  C_11
REMARK    2  A    between atoms: C_3  and  C_7
REMARK                            x       y       z     vdW  Elec       q    Type
REMARK                         _______ _______ _______ _____ _____    ______ ____
ROOT
ATOM      1  C   UNL A   1     -28.407 -11.848  31.158  0.00  0.00    +0.010 A 
ATOM      2  C   UNL A   1     -28.282 -11.544  32.159  0.00  0.00    +0.080 A 
ATOM      3  C   UNL A   1     -29.299 -11.108  30.351  0.00  0.00    +0.072 A 
ATOM      4  C   UNL A   1     -30.002 -10.026  30.842  0.00  0.00    +0.004 A 
ATOM      5  C   UNL A   1     -28.899 -10.440  32.921  0.00  0.00    +0.007 A 
ATOM      6  C   UNL A   1     -29.761  -9.705  32.184  0.00  0.00    +0.000 A 
ENDROOT
BRANCH   3   7
ATOM      7  C   UNL A   1     -29.540 -11.414  28.901  0.00  0.00    +0.419 C 
ATOM      8  F   UNL A   1     -28.576 -11.705  28.374  0.00  0.00    -0.166 F 
ATOM      9  F   UNL A   1     -30.112 -10.351  28.212  0.00  0.00    -0.166 F 
ATOM     10  F   UNL A   1     -30.547 -12.383  28.786  0.00  0.00    -0.166 F 
ENDBRANCH   3   7
BRANCH   2  11
ATOM     11  C   UNL A   1     -27.203 -12.273  33.106  0.00  0.00    +0.388 C 
ATOM     12  O   UNL A   1     -26.350 -13.012  32.550  0.00  0.00    -0.241 OA
ATOM     13  O   UNL A   1     -27.372 -12.263  34.313  0.00  0.00    -0.241 OA
ENDBRANCH   2  11
TORSDOF 2
ENDMDL
ENDMDL
