REMARK  Name = No_2008-gen_results/8p0m/2024-11-26-14-13-15/
REMARK  2 active torsions:
REMARK  status: ('A' for Active; 'I' for Inactive)
REMARK    1  A    between atoms: C_4  and  N_6
REMARK    2  A    between atoms: N_6  and  C_9
REMARK                            x       y       z     vdW  Elec       q    Type
REMARK                         _______ _______ _______ _____ _____    ______ ____
ROOT
ATOM      1  C   UNL A   1     -28.016  -0.814  28.878  0.00  0.00    +0.123 C 
ATOM      2  C   UNL A   1     -28.469  -0.785  29.829  0.00  0.00    +0.048 C 
ATOM      3  N   UNL A   1     -26.608  -0.945  28.857  0.00  0.00    -0.194 NA
ATOM      4  C   UNL A   1     -26.040  -1.569  29.926  0.00  0.00    +0.165 C 
ATOM      5  C   UNL A   1     -30.029  -0.584  29.947  0.00  0.00    +0.126 C 
ATOM      6  C   UNL A   1     -27.901  -1.267  31.154  0.00  0.00    +0.038 C 
ATOM      7  C   UNL A   1     -26.420  -1.269  31.269  0.00  0.00    +0.045 C 
ATOM      8  O   UNL A   1     -30.712  -1.095  30.626  0.00  0.00    -0.232 OA
ENDROOT
BRANCH   4   9
ATOM      9  N   UNL A   1     -24.600  -1.747  29.953  0.00  0.00    -0.222 NA
BRANCH   9  10
ATOM     10  C   UNL A   1     -23.731  -0.869  29.430  0.00  0.00    +0.067 A 
ATOM     11  C   UNL A   1     -24.001   0.495  29.224  0.00  0.00    +0.016 A 
ATOM     12  C   UNL A   1     -23.040   1.319  28.678  0.00  0.00    +0.001 A 
ATOM     13  C   UNL A   1     -21.729   0.875  28.408  0.00  0.00    +0.000 A 
ATOM     14  C   UNL A   1     -22.343  -1.261  29.103  0.00  0.00    +0.016 A 
ATOM     15  C   UNL A   1     -21.412  -0.389  28.706  0.00  0.00    +0.001 A 
ENDBRANCH   9  10
ENDBRANCH   4   9
TORSDOF 2
