MODEL 2008
MODEL 1
REMARK VINA RESULT:    -5.878      0.000      0.000
REMARK INTER + INTRA:          -6.881
REMARK INTER:                  -6.565
REMARK INTRA:                  -0.316
REMARK UNBOUND:                -0.316
REMARK  Name = No_2008-gen_results/8p0m/2024-11-26-14-13-15/
REMARK  2 active torsions:
REMARK  status: ('A' for Active; 'I' for Inactive)
REMARK    1  A    between atoms: C_4  and  N_6
REMARK    2  A    between atoms: N_6  and  C_9
REMARK                            x       y       z     vdW  Elec       q    Type
REMARK                         _______ _______ _______ _____ _____    ______ ____
ROOT
ATOM      1  C   UNL A   1     -26.029  -2.691  29.502  0.00  0.00    +0.123 C 
ATOM      2  C   UNL A   1     -25.227  -3.373  29.451  0.00  0.00    +0.048 C 
ATOM      3  N   UNL A   1     -25.686  -1.319  29.531  0.00  0.00    -0.194 NA
ATOM      4  C   UNL A   1     -24.507  -0.976  28.941  0.00  0.00    +0.165 C 
ATOM      5  C   UNL A   1     -25.515  -4.923  29.472  0.00  0.00    +0.126 C 
ATOM      6  C   UNL A   1     -23.800  -3.111  28.994  0.00  0.00    +0.038 C 
ATOM      7  C   UNL A   1     -23.307  -1.719  29.155  0.00  0.00    +0.045 C 
ATOM      8  O   UNL A   1     -25.036  -5.693  28.866  0.00  0.00    -0.232 OA
ENDROOT
BRANCH   4   9
ATOM      9  N   UNL A   1     -24.110   0.420  28.925  0.00  0.00    -0.222 NA
BRANCH   9  10
ATOM     10  C   UNL A   1     -23.665   1.055  27.830  0.00  0.00    +0.067 A 
ATOM     11  C   UNL A   1     -22.326   1.419  27.607  0.00  0.00    +0.016 A 
ATOM     12  C   UNL A   1     -21.967   2.072  26.447  0.00  0.00    +0.001 A 
ATOM     13  C   UNL A   1     -22.881   2.304  25.397  0.00  0.00    +0.000 A 
ATOM     14  C   UNL A   1     -24.564   1.351  26.694  0.00  0.00    +0.016 A 
ATOM     15  C   UNL A   1     -24.134   1.862  25.536  0.00  0.00    +0.001 A 
ENDBRANCH   9  10
ENDBRANCH   4   9
TORSDOF 2
ENDMDL
ENDMDL
