MODEL 2009
MODEL 1
REMARK VINA RESULT:    -7.044      0.000      0.000
REMARK INTER + INTRA:          -8.650
REMARK INTER:                  -8.279
REMARK INTRA:                  -0.371
REMARK UNBOUND:                -0.371
REMARK  Name = No_2009-gen_results/8p0m/2024-11-26-14-13-15/
REMARK  3 active torsions:
REMARK  status: ('A' for Active; 'I' for Inactive)
REMARK    1  A    between atoms: C_1  and  C_9
REMARK    2  A    between atoms: C_5  and  O_7
REMARK    3  A    between atoms: O_7  and  C_13
REMARK                            x       y       z     vdW  Elec       q    Type
REMARK                         _______ _______ _______ _____ _____    ______ ____
ROOT
ATOM      1  C   UNL A   1     -24.856   0.532  26.659  0.00  0.00    +0.111 C 
ATOM      2  C   UNL A   1     -23.806   1.125  26.570  0.00  0.00    +0.054 C 
ATOM      3  C   UNL A   1     -22.770   1.052  27.485  0.00  0.00    +0.222 C 
ATOM      4  C   UNL A   1     -22.951   0.184  28.602  0.00  0.00    +0.222 C 
ATOM      5  C   UNL A   1     -24.054  -0.581  28.595  0.00  0.00    +0.226 C 
ATOM      6  C   UNL A   1     -24.959  -0.476  27.664  0.00  0.00    +0.063 C 
ATOM      7  F   UNL A   1     -21.658   1.813  27.414  0.00  0.00    -0.229 F 
ATOM      8  O   UNL A   1     -21.927   0.102  29.496  0.00  0.00    -0.289 OA
ENDROOT
BRANCH   1   9
ATOM      9  C   UNL A   1     -25.817   0.863  25.522  0.00  0.00    +0.365 C 
ATOM     10  O   UNL A   1     -25.950   0.237  24.538  0.00  0.00    -0.246 OA
ATOM     11  O   UNL A   1     -26.356   2.053  25.580  0.00  0.00    -0.246 OA
ENDBRANCH   1   9
BRANCH   5  12
ATOM     12  O   UNL A   1     -24.179  -1.443  29.651  0.00  0.00    -0.472 OA
BRANCH  12  13
ATOM     13  C   UNL A   1     -24.606  -2.604  29.434  0.00  0.00    +0.139 A 
ATOM     14  C   UNL A   1     -23.823  -3.356  28.846  0.00  0.00    +0.037 A 
ATOM     15  C   UNL A   1     -24.099  -4.760  28.626  0.00  0.00    +0.003 A 
ATOM     16  C   UNL A   1     -25.386  -5.216  29.032  0.00  0.00    +0.000 A 
ATOM     17  C   UNL A   1     -26.232  -4.370  29.680  0.00  0.00    +0.003 A 
ATOM     18  C   UNL A   1     -25.881  -3.074  29.952  0.00  0.00    +0.037 A 
ENDBRANCH  12  13
ENDBRANCH   5  12
TORSDOF 3
ENDMDL
ENDMDL
