REMARK  Name = No_2009-gen_results/8p0m/2024-11-26-14-13-15/
REMARK  3 active torsions:
REMARK  status: ('A' for Active; 'I' for Inactive)
REMARK    1  A    between atoms: C_1  and  C_9
REMARK    2  A    between atoms: C_5  and  O_7
REMARK    3  A    between atoms: O_7  and  C_13
REMARK                            x       y       z     vdW  Elec       q    Type
REMARK                         _______ _______ _______ _____ _____    ______ ____
ROOT
ATOM      1  C   UNL A   1     -28.016  -0.814  28.878  0.00  0.00    +0.111 C 
ATOM      2  C   UNL A   1     -27.064  -0.119  28.608  0.00  0.00    +0.054 C 
ATOM      3  C   UNL A   1     -26.972   0.714  27.506  0.00  0.00    +0.222 C 
ATOM      4  C   UNL A   1     -28.105   0.774  26.642  0.00  0.00    +0.222 C 
ATOM      5  C   UNL A   1     -29.204   0.118  27.048  0.00  0.00    +0.226 C 
ATOM      6  C   UNL A   1     -29.213  -0.609  28.128  0.00  0.00    +0.063 C 
ATOM      7  F   UNL A   1     -25.852   1.389  27.174  0.00  0.00    -0.229 F 
ATOM      8  O   UNL A   1     -28.020   1.602  25.565  0.00  0.00    -0.289 OA
ENDROOT
BRANCH   1   9
ATOM      9  C   UNL A   1     -27.792  -1.660  30.126  0.00  0.00    +0.365 C 
ATOM     10  O   UNL A   1     -26.837  -2.306  30.349  0.00  0.00    -0.246 OA
ATOM     11  O   UNL A   1     -28.848  -1.830  30.879  0.00  0.00    -0.246 OA
ENDBRANCH   1   9
BRANCH   5  12
ATOM     12  O   UNL A   1     -30.294   0.234  26.228  0.00  0.00    -0.472 OA
BRANCH  12  13
ATOM     13  C   UNL A   1     -31.393   0.577  26.730  0.00  0.00    +0.139 A 
ATOM     14  C   UNL A   1     -32.347  -0.164  26.475  0.00  0.00    +0.037 A 
ATOM     15  C   UNL A   1     -33.655   0.008  27.070  0.00  0.00    +0.003 A 
ATOM     16  C   UNL A   1     -33.822   1.158  27.894  0.00  0.00    +0.000 A 
ATOM     17  C   UNL A   1     -32.756   1.960  28.163  0.00  0.00    +0.003 A 
ATOM     18  C   UNL A   1     -31.513   1.695  27.652  0.00  0.00    +0.037 A 
ENDBRANCH  12  13
ENDBRANCH   5  12
TORSDOF 3
