MODEL 200
MODEL 1
REMARK VINA RESULT:    -6.661      0.000      0.000
REMARK INTER + INTRA:          -2.742
REMARK INTER:                  -6.856
REMARK INTRA:                   4.114
REMARK UNBOUND:                 4.114
REMARK  Name = No_200-gen_results/8p0m/2024-11-26-14-13-15/
REMARK  3 active torsions:
REMARK  status: ('A' for Active; 'I' for Inactive)
REMARK    1  A    between atoms: C_10  and  C_11
REMARK    2  A    between atoms: C_12  and  C_13
REMARK    3  A    between atoms: C_13  and  O_15
REMARK                            x       y       z     vdW  Elec       q    Type
REMARK                         _______ _______ _______ _____ _____    ______ ____
ROOT
ATOM      1  C   UNL A   1     -26.337  -4.158  29.690  0.00  0.00    -0.004 A 
ATOM      2  C   UNL A   1     -25.667  -4.866  29.288  0.00  0.00    -0.000 A 
ATOM      3  C   UNL A   1     -25.881  -2.830  29.837  0.00  0.00    -0.022 A 
ATOM      4  C   UNL A   1     -26.728  -1.692  30.283  0.00  0.00    +0.051 C 
ATOM      5  C   UNL A   1     -24.553  -4.656  28.884  0.00  0.00    -0.000 A 
ATOM      6  C   UNL A   1     -23.844  -3.457  28.875  0.00  0.00    -0.004 A 
ATOM      7  C   UNL A   1     -24.594  -2.442  29.345  0.00  0.00    -0.021 A 
ATOM      8  C   UNL A   1     -26.783  -0.662  29.399  0.00  0.00    -0.025 C 
ATOM      9  C   UNL A   1     -25.608  -0.113  28.838  0.00  0.00    +0.008 C 
ATOM     10  C   UNL A   1     -24.527  -0.541  28.816  0.00  0.00    +0.149 C 
ATOM     11  C   UNL A   1     -24.035  -1.281  29.067  0.00  0.00    +0.083 C 
ATOM     12  O   UNL A   1     -25.056  -0.767  28.966  0.00  0.00    -0.347 OA
ATOM     13  C   UNL A   1     -25.795  -1.161  27.725  0.00  0.00    +0.167 C 
ENDROOT
BRANCH  10  14
ATOM     14  C   UNL A   1     -23.208  -0.894  28.750  0.00  0.00    +0.224 C 
ATOM     15  F   UNL A   1     -23.586  -0.028  27.903  0.00  0.00    -0.231 F 
ENDBRANCH  10  14
BRANCH  11  16
ATOM     16  C   UNL A   1     -23.681  -0.850  30.776  0.00  0.00    +0.149 C 
BRANCH  16  17
ATOM     17  O   UNL A   1     -23.478  -0.970  30.287  0.00  0.00    -0.351 OA
ATOM     18  C   UNL A   1     -21.909  -0.701  29.943  0.00  0.00    +0.174 C 
ENDBRANCH  16  17
ENDBRANCH  11  16
TORSDOF 3
ENDMDL
ENDMDL
