REMARK  Name = No_201-gen_results/8p0m/2024-11-26-14-13-15/
REMARK  8 active torsions:
REMARK  status: ('A' for Active; 'I' for Inactive)
REMARK    1  A    between atoms: C_2  and  C_11
REMARK    2  A    between atoms: C_3  and  C_4
REMARK    3  A    between atoms: C_11  and  O_12
REMARK    4  A    between atoms: O_12  and  C_14
REMARK    5  A    between atoms: C_14  and  C_15
REMARK    6  A    between atoms: C_15  and  C_16
REMARK    7  A    between atoms: C_16  and  C_17
REMARK    8  A    between atoms: N_24  and  C_25
REMARK                            x       y       z     vdW  Elec       q    Type
REMARK                         _______ _______ _______ _____ _____    ______ ____
ROOT
ATOM      1  O   UNL A   1     -30.619  -0.269  29.085  0.00  0.00    -0.385 OA
ENDROOT
BRANCH   1   2
ATOM      2  C   UNL A   1     -30.052  -0.814  29.890  0.00  0.00    +0.348 C 
ATOM      3  O   UNL A   1     -30.681  -1.400  30.885  0.00  0.00    -0.244 OA
BRANCH   2   5
ATOM      4  C   UNL A   1     -28.016  -0.814  28.878  0.00  0.00    +0.010 A 
ATOM      5  C   UNL A   1     -28.469  -0.785  29.829  0.00  0.00    +0.076 A 
ATOM      6  C   UNL A   1     -26.504  -0.778  28.877  0.00  0.00    +0.072 A 
ATOM      7  C   UNL A   1     -27.918  -0.937  31.182  0.00  0.00    +0.006 A 
ATOM      8  C   UNL A   1     -26.542  -0.940  31.261  0.00  0.00    +0.000 A 
ATOM      9  C   UNL A   1     -25.783  -0.893  30.120  0.00  0.00    +0.004 A 
BRANCH   6  10
ATOM     10  C   UNL A   1     -25.654  -0.660  27.719  0.00  0.00    +0.419 C 
ATOM     11  F   UNL A   1     -24.529  -1.224  27.784  0.00  0.00    -0.166 F 
ATOM     12  F   UNL A   1     -25.414   0.686  27.421  0.00  0.00    -0.166 F 
ATOM     13  F   UNL A   1     -26.328  -1.005  26.554  0.00  0.00    -0.166 F 
ENDBRANCH   6  10
ENDBRANCH   2   5
ENDBRANCH   1   2
BRANCH   1  14
ATOM     14  C   UNL A   1     -31.880  -0.615  28.513  0.00  0.00    +0.362 C 
ATOM     15  O   UNL A   1     -32.161  -1.768  28.396  0.00  0.00    -0.243 OA
BRANCH  14  16
ATOM     16  C   UNL A   1     -32.492   0.539  27.895  0.00  0.00    +0.139 C 
ATOM     17  N   UNL A   1     -33.605   0.278  27.250  0.00  0.00    -0.241 NA
BRANCH  17  18
ATOM     18  C   UNL A   1     -33.765  -0.389  26.184  0.00  0.00    +0.099 C 
ATOM     19  C   UNL A   1     -34.476  -1.107  26.008  0.00  0.00    +0.022 C 
ENDBRANCH  17  18
BRANCH  16  20
ATOM     20  C   UNL A   1     -31.984   1.743  28.046  0.00  0.00    +0.079 C 
BRANCH  20  21
ATOM     21  C   UNL A   1     -31.544   2.327  27.028  0.00  0.00    -0.016 A 
ATOM     22  C   UNL A   1     -30.614   2.579  26.691  0.00  0.00    -0.004 A 
ATOM     23  C   UNL A   1     -30.156   3.196  25.410  0.00  0.00    -0.000 A 
ATOM     24  C   UNL A   1     -31.157   3.628  24.590  0.00  0.00    -0.000 A 
ATOM     25  C   UNL A   1     -32.424   3.436  24.937  0.00  0.00    -0.000 A 
ATOM     26  C   UNL A   1     -32.703   2.823  26.115  0.00  0.00    -0.004 A 
ENDBRANCH  20  21
ENDBRANCH  16  20
ENDBRANCH  14  16
ENDBRANCH   1  14
TORSDOF 8
