MODEL 2010
MODEL 1
REMARK VINA RESULT:    -4.296      0.000      0.000
REMARK INTER + INTRA:          -4.296
REMARK INTER:                  -4.296
REMARK INTRA:                   0.000
REMARK UNBOUND:                 0.000
REMARK  Name = No_2010-gen_results/8p0m/2024-11-26-14-13-15/
REMARK  0 active torsions:
REMARK  status: ('A' for Active; 'I' for Inactive)
REMARK                            x       y       z     vdW  Elec       q    Type
REMARK                         _______ _______ _______ _____ _____    ______ ____
ROOT
ATOM      1  C   UNL A   1     -24.952  -5.376  28.973  0.00  0.00    +0.000 A 
ATOM      2  C   UNL A   1     -24.192  -4.684  28.741  0.00  0.00    +0.000 A 
ATOM      3  C   UNL A   1     -26.127  -4.768  29.597  0.00  0.00    +0.000 A 
ATOM      4  C   UNL A   1     -26.214  -3.418  29.829  0.00  0.00    +0.000 A 
ATOM      5  C   UNL A   1     -24.012  -3.237  28.865  0.00  0.00    +0.000 A 
ATOM      6  C   UNL A   1     -25.145  -2.639  29.468  0.00  0.00    +0.000 A 
ENDROOT
TORSDOF 0
ENDMDL
ENDMDL
