REMARK  Name = No_2011-gen_results/8p0m/2024-11-26-14-13-15/
REMARK  0 active torsions:
REMARK  status: ('A' for Active; 'I' for Inactive)
REMARK                            x       y       z     vdW  Elec       q    Type
REMARK                         _______ _______ _______ _____ _____    ______ ____
ROOT
ATOM      1  C   UNL A   1     -28.016  -0.814  28.878  0.00  0.00    +0.033 A 
ATOM      2  C   UNL A   1     -28.469  -0.785  29.829  0.00  0.00    +0.047 A 
ATOM      3  C   UNL A   1     -28.196   0.348  28.055  0.00  0.00    +0.143 A 
ATOM      4  C   UNL A   1     -29.019   1.350  28.378  0.00  0.00    +0.063 A 
ATOM      5  C   UNL A   1     -29.411   0.180  30.378  0.00  0.00    +0.223 A 
ATOM      6  C   UNL A   1     -29.606   1.250  29.619  0.00  0.00    +0.181 A 
ATOM      7  F   UNL A   1     -27.535   0.338  26.848  0.00  0.00    -0.204 F 
ATOM      8  O   UNL A   1     -29.950  -0.003  31.654  0.00  0.00    -0.284 OA
ATOM      9  F   UNL A   1     -30.434   2.208  30.001  0.00  0.00    -0.201 F 
ENDROOT
TORSDOF 0
