MODEL 2011
MODEL 1
REMARK VINA RESULT:    -5.551      0.000      0.000
REMARK INTER + INTRA:          -5.551
REMARK INTER:                  -5.551
REMARK INTRA:                   0.000
REMARK UNBOUND:                 0.000
REMARK  Name = No_2011-gen_results/8p0m/2024-11-26-14-13-15/
REMARK  0 active torsions:
REMARK  status: ('A' for Active; 'I' for Inactive)
REMARK                            x       y       z     vdW  Elec       q    Type
REMARK                         _______ _______ _______ _____ _____    ______ ____
ROOT
ATOM      1  C   UNL A   1      -8.024 -10.779  18.719  0.00  0.00    +0.033 A 
ATOM      2  C   UNL A   1      -8.882 -10.837  18.111  0.00  0.00    +0.047 A 
ATOM      3  C   UNL A   1      -8.126  -9.944  19.882  0.00  0.00    +0.143 A 
ATOM      4  C   UNL A   1      -9.171  -9.145  20.117  0.00  0.00    +0.063 A 
ATOM      5  C   UNL A   1     -10.109 -10.053  18.162  0.00  0.00    +0.223 A 
ATOM      6  C   UNL A   1     -10.209  -9.259  19.220  0.00  0.00    +0.181 A 
ATOM      7  F   UNL A   1      -7.031  -9.937  20.715  0.00  0.00    -0.204 F 
ATOM      8  O   UNL A   1     -11.112 -10.245  17.209  0.00  0.00    -0.284 OA
ATOM      9  F   UNL A   1     -11.275  -8.495  19.393  0.00  0.00    -0.201 F 
ENDROOT
TORSDOF 0
ENDMDL
ENDMDL
