MODEL 2012
MODEL 1
REMARK VINA RESULT:    -4.940      0.000      0.000
REMARK INTER + INTRA:          -5.327
REMARK INTER:                  -5.229
REMARK INTRA:                  -0.098
REMARK UNBOUND:                -0.098
REMARK  Name = No_2012-gen_results/8p0m/2024-11-26-14-13-15/
REMARK  1 active torsions:
REMARK  status: ('A' for Active; 'I' for Inactive)
REMARK    1  A    between atoms: C_3  and  C_4
REMARK                            x       y       z     vdW  Elec       q    Type
REMARK                         _______ _______ _______ _____ _____    ______ ____
ROOT
ATOM      1  C   UNL A   1     -25.861  -2.517  29.698  0.00  0.00    -0.000 A 
ATOM      2  C   UNL A   1     -26.460  -3.361  29.899  0.00  0.00    -0.000 A 
ATOM      3  C   UNL A   1     -24.498  -2.778  29.208  0.00  0.00    -0.000 A 
ATOM      4  C   UNL A   1     -26.271  -4.798  29.588  0.00  0.00    -0.000 A 
ATOM      5  C   UNL A   1     -25.006  -5.127  29.112  0.00  0.00    -0.000 A 
ATOM      6  C   UNL A   1     -24.071  -4.142  28.875  0.00  0.00    -0.000 A 
ENDROOT
BRANCH   3   7
ATOM      7  C   UNL A   1     -23.437  -1.805  29.001  0.00  0.00    -0.005 C 
ATOM      8  C   UNL A   1     -23.122  -0.846  30.001  0.00  0.00    -0.026 C 
ATOM      9  C   UNL A   1     -23.304  -1.242  31.355  0.00  0.00    +0.031 C 
ENDBRANCH   3   7
TORSDOF 1
ENDMDL
ENDMDL
