MODEL 2013
MODEL 1
REMARK VINA RESULT:    -6.944      0.000      0.000
REMARK INTER + INTRA:         -14.354
REMARK INTER:                 -10.598
REMARK INTRA:                  -3.757
REMARK UNBOUND:                -3.757
REMARK  Name = No_2013-gen_results/8p0m/2024-11-26-14-13-15/
REMARK  9 active torsions:
REMARK  status: ('A' for Active; 'I' for Inactive)
REMARK    1  A    between atoms: C_2  and  C_3
REMARK    2  A    between atoms: C_3  and  C_5
REMARK    3  A    between atoms: C_5  and  C_11
REMARK    4  A    between atoms: C_5  and  N_17
REMARK    5  A    between atoms: C_9  and  C_32
REMARK    6  A    between atoms: C_24  and  C_34
REMARK    7  A    between atoms: C_25  and  C_26
REMARK    8  A    between atoms: C_27  and  C_28
REMARK    9  A    between atoms: C_29  and  C_30
REMARK                            x       y       z     vdW  Elec       q    Type
REMARK                         _______ _______ _______ _____ _____    ______ ____
ROOT
ATOM      1  C   UNL A   1     -23.936  -1.603  30.180  0.00  0.00    +0.105 C 
ENDROOT
BRANCH   1   2
ATOM      2  N   UNL A   1     -23.102  -0.852  29.202  0.00  0.00    -0.300 N 
ATOM      3  C   UNL A   1     -21.955  -0.206  29.594  0.00  0.00    +0.060 C 
ATOM      4  C   UNL A   1     -21.231   0.382  28.528  0.00  0.00    +0.021 C 
ATOM      5  C   UNL A   1     -23.704   0.029  28.235  0.00  0.00    +0.127 C 
ATOM      6  C   UNL A   1     -22.472   0.851  27.611  0.00  0.00    +0.161 C 
ATOM      7  O   UNL A   1     -22.620   2.227  27.692  0.00  0.00    -0.345 OA
ATOM      8  C   UNL A   1     -23.469   2.786  26.828  0.00  0.00    +0.166 C 
ATOM      9  C   UNL A   1     -24.685   2.147  26.718  0.00  0.00    -0.001 C 
ATOM     10  C   UNL A   1     -24.715   0.747  27.133  0.00  0.00    -0.006 C 
BRANCH  10  11
ATOM     11  C   UNL A   1     -26.140   0.172  27.479  0.00  0.00    -0.003 C 
ATOM     12  C   UNL A   1     -26.657   0.589  28.737  0.00  0.00    -0.000 C 
BRANCH  12  13
ATOM     13  C   UNL A   1     -28.058   0.211  28.907  0.00  0.00    -0.000 C 
ATOM     14  C   UNL A   1     -28.365  -0.391  29.989  0.00  0.00    -0.000 C 
BRANCH  14  15
ATOM     15  C   UNL A   1     -29.594  -0.948  30.051  0.00  0.00    -0.000 C 
ATOM     16  C   UNL A   1     -29.754  -2.087  30.929  0.00  0.00    +0.000 C 
ENDBRANCH  14  15
ENDBRANCH  12  13
ENDBRANCH  10  11
BRANCH   9  17
ATOM     17  C   UNL A   1     -25.757   2.658  25.924  0.00  0.00    +0.119 C 
ATOM     18 CL   UNL A   1     -26.919   3.642  26.501  0.00  0.00    -0.109 Cl
ENDBRANCH   9  17
ENDBRANCH   1   2
BRANCH   1  19
ATOM     19  C   UNL A   1     -24.590  -2.708  29.544  0.00  0.00    -0.004 A 
ATOM     20  C   UNL A   1     -23.944  -3.530  28.725  0.00  0.00    -0.003 A 
ATOM     21  C   UNL A   1     -24.262  -4.889  28.866  0.00  0.00    -0.000 A 
ATOM     22  C   UNL A   1     -25.477  -5.369  29.131  0.00  0.00    -0.000 A 
ATOM     23  C   UNL A   1     -26.295  -4.297  29.669  0.00  0.00    -0.000 A 
ATOM     24  C   UNL A   1     -25.874  -3.100  30.017  0.00  0.00    -0.003 A 
ENDBRANCH   1  19
BRANCH   1  25
ATOM     25  C   UNL A   1     -24.663  -0.883  30.935  0.00  0.00    +0.110 C 
BRANCH  25  27
ATOM     26  O   UNL A   1     -23.780  -1.541  32.802  0.00  0.00    -0.275 OA
ATOM     27  C   UNL A   1     -24.295  -0.669  32.264  0.00  0.00    +0.228 C 
ATOM     28  N   UNL A   1     -24.904   0.351  32.961  0.00  0.00    -0.280 N 
ATOM     29  C   UNL A   1     -25.676   1.364  32.441  0.00  0.00    +0.093 C 
ATOM     30  C   UNL A   1     -26.746   1.498  32.568  0.00  0.00    +0.022 C 
ATOM     31  C   UNL A   1     -27.634   0.678  33.507  0.00  0.00    +0.004 C 
ATOM     32  C   UNL A   1     -27.202  -0.266  34.126  0.00  0.00    +0.020 C 
ATOM     33  C   UNL A   1     -25.308  -0.217  34.260  0.00  0.00    +0.093 C 
BRANCH  32  34
ATOM     34  C   UNL A   1     -27.712  -1.150  35.112  0.00  0.00    +0.002 C 
ATOM     35  C   UNL A   1     -29.024  -1.011  35.436  0.00  0.00    +0.000 C 
ENDBRANCH  32  34
ENDBRANCH  25  27
ENDBRANCH   1  25
TORSDOF 9
ENDMDL
ENDMDL
