REMARK  Name = No_2013-gen_results/8p0m/2024-11-26-14-13-15/
REMARK  9 active torsions:
REMARK  status: ('A' for Active; 'I' for Inactive)
REMARK    1  A    between atoms: C_2  and  C_3
REMARK    2  A    between atoms: C_3  and  C_5
REMARK    3  A    between atoms: C_5  and  C_11
REMARK    4  A    between atoms: C_5  and  N_17
REMARK    5  A    between atoms: C_9  and  C_32
REMARK    6  A    between atoms: C_24  and  C_34
REMARK    7  A    between atoms: C_25  and  C_26
REMARK    8  A    between atoms: C_27  and  C_28
REMARK    9  A    between atoms: C_29  and  C_30
REMARK                            x       y       z     vdW  Elec       q    Type
REMARK                         _______ _______ _______ _____ _____    ______ ____
ROOT
ATOM      1  C   UNL A   1     -26.953  -0.647  30.764  0.00  0.00    +0.105 C 
ENDROOT
BRANCH   1   2
ATOM      2  N   UNL A   1     -26.541  -0.065  32.070  0.00  0.00    -0.300 N 
ATOM      3  C   UNL A   1     -27.260  -0.307  33.216  0.00  0.00    +0.060 C 
ATOM      4  C   UNL A   1     -26.684   0.244  34.386  0.00  0.00    +0.021 C 
ATOM      5  C   UNL A   1     -26.143   1.315  32.176  0.00  0.00    +0.127 C 
ATOM      6  C   UNL A   1     -26.087   1.603  33.756  0.00  0.00    +0.161 C 
ATOM      7  O   UNL A   1     -26.861   2.683  34.154  0.00  0.00    -0.345 OA
ATOM      8  C   UNL A   1     -26.373   3.895  33.886  0.00  0.00    +0.166 C 
ATOM      9  C   UNL A   1     -25.896   4.054  32.603  0.00  0.00    -0.001 C 
ATOM     10  C   UNL A   1     -25.527   2.830  31.898  0.00  0.00    -0.006 C 
BRANCH  10  11
ATOM     11  C   UNL A   1     -25.463   2.944  30.328  0.00  0.00    -0.003 C 
ATOM     12  C   UNL A   1     -26.602   3.554  29.733  0.00  0.00    -0.000 C 
BRANCH  12  13
ATOM     13  C   UNL A   1     -26.396   3.833  28.313  0.00  0.00    -0.000 C 
ATOM     14  C   UNL A   1     -25.224   4.192  27.961  0.00  0.00    -0.000 C 
BRANCH  14  15
ATOM     15  C   UNL A   1     -25.084   4.675  26.707  0.00  0.00    -0.000 C 
ATOM     16  C   UNL A   1     -23.766   5.134  26.325  0.00  0.00    +0.000 C 
ENDBRANCH  14  15
ENDBRANCH  12  13
ENDBRANCH  10  11
BRANCH   9  17
ATOM     17  C   UNL A   1     -25.434   5.310  32.101  0.00  0.00    +0.119 C 
ATOM     18 CL   UNL A   1     -24.447   6.306  32.928  0.00  0.00    -0.109 Cl
ENDBRANCH   9  17
ENDBRANCH   1   2
BRANCH   1  19
ATOM     19  C   UNL A   1     -25.841  -1.277  30.117  0.00  0.00    -0.004 A 
ATOM     20  C   UNL A   1     -25.147  -0.668  29.162  0.00  0.00    -0.003 A 
ATOM     21  C   UNL A   1     -23.757  -0.848  29.223  0.00  0.00    -0.000 A 
ATOM     22  C   UNL A   1     -23.145  -1.975  29.585  0.00  0.00    -0.000 A 
ATOM     23  C   UNL A   1     -24.091  -2.810  30.303  0.00  0.00    -0.000 A 
ATOM     24  C   UNL A   1     -25.294  -2.454  30.700  0.00  0.00    -0.003 A 
ENDBRANCH   1  19
BRANCH   1  25
ATOM     25  C   UNL A   1     -27.666   0.113  30.035  0.00  0.00    +0.110 C 
BRANCH  25  27
ATOM     26  O   UNL A   1     -28.123  -1.335  28.487  0.00  0.00    -0.275 OA
ATOM     27  C   UNL A   1     -28.521  -0.436  29.078  0.00  0.00    +0.228 C 
ATOM     28  N   UNL A   1     -29.566   0.330  28.610  0.00  0.00    -0.280 N 
ATOM     29  C   UNL A   1     -30.033   1.509  29.144  0.00  0.00    +0.093 C 
ATOM     30  C   UNL A   1     -29.950   2.500  28.708  0.00  0.00    +0.022 C 
ATOM     31  C   UNL A   1     -29.439   2.804  27.297  0.00  0.00    +0.004 C 
ATOM     32  C   UNL A   1     -28.994   1.937  26.582  0.00  0.00    +0.020 C 
ATOM     33  C   UNL A   1     -29.546   0.207  27.141  0.00  0.00    +0.093 C 
BRANCH  32  34
ATOM     34  C   UNL A   1     -28.538   1.865  25.240  0.00  0.00    +0.002 C 
ATOM     35  C   UNL A   1     -27.518   1.004  24.988  0.00  0.00    +0.000 C 
ENDBRANCH  32  34
ENDBRANCH  25  27
ENDBRANCH   1  25
TORSDOF 9
