MODEL 2014
MODEL 1
REMARK VINA RESULT:    -5.721      0.000      0.000
REMARK INTER + INTRA:          -6.728
REMARK INTER:                  -6.390
REMARK INTRA:                  -0.338
REMARK UNBOUND:                -0.338
REMARK  Name = No_2014-gen_results/8p0m/2024-11-26-14-13-15/
REMARK  2 active torsions:
REMARK  status: ('A' for Active; 'I' for Inactive)
REMARK    1  A    between atoms: C_6  and  C_8
REMARK    2  A    between atoms: C_9  and  C_10
REMARK                            x       y       z     vdW  Elec       q    Type
REMARK                         _______ _______ _______ _____ _____    ______ ____
ROOT
ATOM      1  C   UNL A   1     -22.841   1.156  27.615  0.00  0.00    +0.030 A 
ATOM      2  C   UNL A   1     -21.643   1.125  27.771  0.00  0.00    +0.140 A 
ATOM      3  C   UNL A   1     -20.998   0.187  28.509  0.00  0.00    +0.030 A 
ATOM      4  C   UNL A   1     -21.765  -0.814  29.135  0.00  0.00    +0.002 A 
ATOM      5  C   UNL A   1     -23.678   0.111  28.146  0.00  0.00    +0.002 A 
ATOM      6  C   UNL A   1     -23.082  -0.840  28.921  0.00  0.00    +0.000 A 
ATOM      7  F   UNL A   1     -20.830   2.048  27.195  0.00  0.00    -0.204 F 
ENDROOT
BRANCH   6   8
ATOM      8  C   UNL A   1     -23.941  -1.896  29.516  0.00  0.00    -0.000 C 
ATOM      9  C   UNL A   1     -24.189  -2.889  28.753  0.00  0.00    -0.000 C 
BRANCH   9  10
ATOM     10  C   UNL A   1     -25.053  -3.948  29.192  0.00  0.00    -0.005 C 
ATOM     11  C   UNL A   1     -26.300  -3.580  29.699  0.00  0.00    -0.026 C 
ATOM     12  C   UNL A   1     -27.189  -4.523  30.136  0.00  0.00    +0.031 C 
ENDBRANCH   9  10
ENDBRANCH   6   8
TORSDOF 2
ENDMDL
ENDMDL
