MODEL 2015
MODEL 1
REMARK VINA RESULT:    -4.258      0.000      0.000
REMARK INTER + INTRA:          -4.258
REMARK INTER:                  -4.258
REMARK INTRA:                   0.000
REMARK UNBOUND:                 0.000
REMARK  Name = No_2015-gen_results/8p0m/2024-11-26-14-13-15/
REMARK  0 active torsions:
REMARK  status: ('A' for Active; 'I' for Inactive)
REMARK                            x       y       z     vdW  Elec       q    Type
REMARK                         _______ _______ _______ _____ _____    ______ ____
ROOT
ATOM      1  C   UNL A   1     -25.000  -5.367  29.034  0.00  0.00    +0.000 A 
ATOM      2  C   UNL A   1     -25.833  -4.911  29.490  0.00  0.00    +0.000 A 
ATOM      3  C   UNL A   1     -23.984  -4.415  28.585  0.00  0.00    +0.000 A 
ATOM      4  C   UNL A   1     -24.119  -3.062  28.770  0.00  0.00    +0.000 A 
ATOM      5  C   UNL A   1     -26.236  -3.543  29.818  0.00  0.00    +0.000 A 
ATOM      6  C   UNL A   1     -25.260  -2.614  29.387  0.00  0.00    +0.000 A 
ENDROOT
TORSDOF 0
ENDMDL
ENDMDL
