MODEL 2016
MODEL 1
REMARK VINA RESULT:    -4.781      0.000      0.000
REMARK INTER + INTRA:          -4.781
REMARK INTER:                  -4.781
REMARK INTRA:                   0.000
REMARK UNBOUND:                 0.000
REMARK  Name = No_2016-gen_results/8p0m/2024-11-26-14-13-15/
REMARK  0 active torsions:
REMARK  status: ('A' for Active; 'I' for Inactive)
REMARK                            x       y       z     vdW  Elec       q    Type
REMARK                         _______ _______ _______ _____ _____    ______ ____
ROOT
ATOM      1  C   UNL A   1     -10.310  -9.046  19.657  0.00  0.00    -0.000 A 
ATOM      2  C   UNL A   1      -9.440  -9.199  20.231  0.00  0.00    -0.004 A 
ATOM      3  C   UNL A   1     -10.311  -9.785  18.388  0.00  0.00    -0.000 A 
ATOM      4  C   UNL A   1      -9.236 -10.430  17.934  0.00  0.00    -0.000 A 
ATOM      5  C   UNL A   1      -8.169  -9.821  19.950  0.00  0.00    -0.022 A 
ATOM      6  C   UNL A   1      -7.037  -9.853  20.815  0.00  0.00    +0.031 C 
ATOM      7  C   UNL A   1      -8.193 -10.468  18.754  0.00  0.00    -0.004 A 
ENDROOT
TORSDOF 0
ENDMDL
ENDMDL
