REMARK  Name = No_2017-gen_results/8p0m/2024-11-26-14-13-15/
REMARK  9 active torsions:
REMARK  status: ('A' for Active; 'I' for Inactive)
REMARK    1  A    between atoms: C_2  and  C_8
REMARK    2  A    between atoms: C_4  and  C_20
REMARK    3  A    between atoms: C_12  and  C_13
REMARK    4  A    between atoms: C_20  and  C_21
REMARK    5  A    between atoms: C_21  and  C_22
REMARK    6  A    between atoms: C_22  and  C_23
REMARK    7  A    between atoms: C_26  and  C_30
REMARK    8  A    between atoms: C_30  and  O_32
REMARK    9  A    between atoms: O_32  and  C_33
REMARK                            x       y       z     vdW  Elec       q    Type
REMARK                         _______ _______ _______ _____ _____    ______ ____
ROOT
ATOM      1  C   UNL A   1     -28.016  -0.814  28.878  0.00  0.00    +0.005 A 
ATOM      2  C   UNL A   1     -27.064  -0.119  28.608  0.00  0.00    +0.079 A 
ATOM      3  C   UNL A   1     -25.765  -0.390  29.036  0.00  0.00    +0.002 A 
ATOM      4  C   UNL A   1     -25.530  -1.530  29.901  0.00  0.00    -0.022 A 
ATOM      5  C   UNL A   1     -26.689  -2.289  30.181  0.00  0.00    -0.005 A 
ATOM      6  C   UNL A   1     -26.499  -3.481  30.920  0.00  0.00    -0.002 C 
ATOM      7  C   UNL A   1     -27.925  -1.992  29.687  0.00  0.00    +0.013 A 
ATOM      8  C   UNL A   1     -27.678  -4.410  30.458  0.00  0.00    +0.012 C 
ATOM      9  C   UNL A   1     -28.683  -3.399  30.053  0.00  0.00    +0.182 C 
ATOM     10  O   UNL A   1     -29.368  -3.814  28.977  0.00  0.00    -0.212 OA
ENDROOT
BRANCH   9  11
ATOM     11  C   UNL A   1     -29.769  -3.079  31.055  0.00  0.00    +0.013 A 
ATOM     12  C   UNL A   1     -30.544  -3.957  31.336  0.00  0.00    -0.001 A 
ATOM     13  C   UNL A   1     -31.657  -3.744  32.276  0.00  0.00    -0.000 A 
ATOM     14  C   UNL A   1     -31.800  -2.422  32.786  0.00  0.00    -0.000 A 
ATOM     15  C   UNL A   1     -29.997  -1.749  31.698  0.00  0.00    -0.001 A 
ATOM     16  C   UNL A   1     -30.940  -1.447  32.474  0.00  0.00    -0.000 A 
ENDBRANCH   9  11
BRANCH   2  17
ATOM     17  C   UNL A   1     -27.131   1.170  27.786  0.00  0.00    +0.388 C 
ATOM     18  O   UNL A   1     -26.413   1.411  26.933  0.00  0.00    -0.241 OA
ATOM     19  O   UNL A   1     -28.162   1.898  27.999  0.00  0.00    -0.241 OA
ENDBRANCH   2  17
BRANCH   4  20
ATOM     20  C   UNL A   1     -24.153  -1.765  30.326  0.00  0.00    +0.027 C 
BRANCH  20  21
ATOM     21  C   UNL A   1     -23.559  -0.650  31.244  0.00  0.00    +0.009 C 
BRANCH  21  22
ATOM     22  C   UNL A   1     -24.305  -0.157  32.179  0.00  0.00    +0.023 C 
ATOM     23  C   UNL A   1     -24.588  -0.924  33.381  0.00  0.00    +0.005 C 
BRANCH  22  24
ATOM     24  C   UNL A   1     -24.963   1.163  32.124  0.00  0.00    -0.022 A 
ATOM     25  C   UNL A   1     -24.648   2.060  31.036  0.00  0.00    -0.004 A 
ATOM     26  C   UNL A   1     -25.298   3.323  30.947  0.00  0.00    +0.006 A 
ATOM     27  C   UNL A   1     -26.125   3.518  31.515  0.00  0.00    +0.076 A 
ATOM     28  C   UNL A   1     -26.074   1.568  32.882  0.00  0.00    -0.004 A 
ATOM     29  C   UNL A   1     -26.680   2.787  32.644  0.00  0.00    +0.006 A 
BRANCH  27  30
ATOM     30  C   UNL A   1     -26.956   4.935  31.376  0.00  0.00    +0.346 C 
ATOM     31  O   UNL A   1     -27.629   5.397  32.052  0.00  0.00    -0.244 OA
BRANCH  30  32
ATOM     32  O   UNL A   1     -26.933   5.326  30.018  0.00  0.00    -0.418 OA
BRANCH  32  33
ATOM     33  C   UNL A   1     -27.342   6.432  29.655  0.00  0.00    +0.178 C 
ATOM     34  C   UNL A   1     -27.034   6.715  28.411  0.00  0.00    +0.015 C 
ATOM     35  C   UNL A   1     -26.067   5.907  27.845  0.00  0.00    +0.034 C 
ENDBRANCH  32  33
ENDBRANCH  30  32
ENDBRANCH  27  30
ENDBRANCH  22  24
ENDBRANCH  21  22
ENDBRANCH  20  21
ENDBRANCH   4  20
TORSDOF 9
