MODEL 2017
MODEL 1
REMARK VINA RESULT:    -7.129      0.000      0.000
REMARK INTER + INTRA:         -15.150
REMARK INTER:                 -10.880
REMARK INTRA:                  -4.270
REMARK UNBOUND:                -4.270
REMARK  Name = No_2017-gen_results/8p0m/2024-11-26-14-13-15/
REMARK  9 active torsions:
REMARK  status: ('A' for Active; 'I' for Inactive)
REMARK    1  A    between atoms: C_2  and  C_8
REMARK    2  A    between atoms: C_4  and  C_20
REMARK    3  A    between atoms: C_12  and  C_13
REMARK    4  A    between atoms: C_20  and  C_21
REMARK    5  A    between atoms: C_21  and  C_22
REMARK    6  A    between atoms: C_22  and  C_23
REMARK    7  A    between atoms: C_26  and  C_30
REMARK    8  A    between atoms: C_30  and  O_32
REMARK    9  A    between atoms: O_32  and  C_33
REMARK                            x       y       z     vdW  Elec       q    Type
REMARK                         _______ _______ _______ _____ _____    ______ ____
ROOT
ATOM      1  C   UNL A   1     -29.277 -15.657  10.391  0.00  0.00    +0.005 A 
ATOM      2  C   UNL A   1     -30.000 -15.422  11.332  0.00  0.00    +0.079 A 
ATOM      3  C   UNL A   1     -31.380 -15.256  11.221  0.00  0.00    +0.002 A 
ATOM      4  C   UNL A   1     -31.994 -15.305   9.909  0.00  0.00    -0.022 A 
ATOM      5  C   UNL A   1     -31.087 -15.573   8.858  0.00  0.00    -0.005 A 
ATOM      6  C   UNL A   1     -31.648 -15.752   7.571  0.00  0.00    -0.002 C 
ATOM      7  C   UNL A   1     -29.751 -15.773   9.045  0.00  0.00    +0.013 A 
ATOM      8  C   UNL A   1     -30.633 -16.703   6.840  0.00  0.00    +0.012 C 
ATOM      9  C   UNL A   1     -29.383 -16.382   7.568  0.00  0.00    +0.182 C 
ATOM     10  O   UNL A   1     -28.631 -17.481   7.729  0.00  0.00    -0.212 OA
ENDROOT
BRANCH   9  11
ATOM     11  C   UNL A   1     -28.437 -15.408   6.902  0.00  0.00    +0.013 A 
ATOM     12  C   UNL A   1     -27.831 -15.793   5.936  0.00  0.00    -0.001 A 
ATOM     13  C   UNL A   1     -26.862 -14.938   5.230  0.00  0.00    -0.000 A 
ATOM     14  C   UNL A   1     -26.640 -13.649   5.794  0.00  0.00    -0.000 A 
ATOM     15  C   UNL A   1     -28.152 -14.016   7.365  0.00  0.00    -0.001 A 
ATOM     16  C   UNL A   1     -27.314 -13.221   6.867  0.00  0.00    -0.000 A 
ENDBRANCH   9  11
BRANCH   2  17
ATOM     17  C   UNL A   1     -29.523 -15.245  12.775  0.00  0.00    +0.388 C 
ATOM     18  O   UNL A   1     -28.720 -15.896  13.257  0.00  0.00    -0.241 OA
ATOM     19  O   UNL A   1     -29.960 -14.198  13.368  0.00  0.00    -0.241 OA
ENDBRANCH   2  17
BRANCH   4  20
ATOM     20  C   UNL A   1     -33.441 -15.118   9.848  0.00  0.00    +0.027 C 
BRANCH  20  21
ATOM     21  C   UNL A   1     -33.959 -13.834  10.571  0.00  0.00    +0.009 C 
BRANCH  21  22
ATOM     22  C   UNL A   1     -33.808 -12.691   9.984  0.00  0.00    +0.023 C 
ATOM     23  C   UNL A   1     -34.961 -11.955   9.492  0.00  0.00    +0.005 C 
BRANCH  22  24
ATOM     24  C   UNL A   1     -32.508 -12.046   9.718  0.00  0.00    -0.022 A 
ATOM     25  C   UNL A   1     -31.651 -11.707  10.831  0.00  0.00    -0.004 A 
ATOM     26  C   UNL A   1     -30.378 -11.116  10.592  0.00  0.00    +0.006 A 
ATOM     27  C   UNL A   1     -29.978 -11.118   9.652  0.00  0.00    +0.076 A 
ATOM     28  C   UNL A   1     -31.873 -11.943   8.469  0.00  0.00    -0.004 A 
ATOM     29  C   UNL A   1     -30.594 -11.431   8.371  0.00  0.00    +0.006 A 
BRANCH  27  30
ATOM     30  C   UNL A   1     -28.470 -10.522   9.352  0.00  0.00    +0.346 C 
ATOM     31  O   UNL A   1     -27.520 -10.917   9.606  0.00  0.00    -0.244 OA
BRANCH  30  32
ATOM     32  O   UNL A   1     -28.600  -9.161   8.993  0.00  0.00    -0.418 OA
BRANCH  32  33
ATOM     33  C   UNL A   1     -27.660  -8.369   9.105  0.00  0.00    +0.178 C 
ATOM     34  C   UNL A   1     -28.024  -7.199   9.576  0.00  0.00    +0.015 C 
ATOM     35  C   UNL A   1     -29.383  -6.953   9.560  0.00  0.00    +0.034 C 
ENDBRANCH  32  33
ENDBRANCH  30  32
ENDBRANCH  27  30
ENDBRANCH  22  24
ENDBRANCH  21  22
ENDBRANCH  20  21
ENDBRANCH   4  20
TORSDOF 9
ENDMDL
ENDMDL
