REMARK  Name = No_2018-gen_results/8p0m/2024-11-26-14-13-15/
REMARK  3 active torsions:
REMARK  status: ('A' for Active; 'I' for Inactive)
REMARK    1  A    between atoms: C_2  and  C_14
REMARK    2  A    between atoms: C_3  and  C_4
REMARK    3  A    between atoms: C_4  and  C_8
REMARK                            x       y       z     vdW  Elec       q    Type
REMARK                         _______ _______ _______ _____ _____    ______ ____
ROOT
ATOM      1  C   UNL A   1     -28.016  -0.814  28.878  0.00  0.00    +0.010 A 
ATOM      2  C   UNL A   1     -28.469  -0.785  29.829  0.00  0.00    +0.080 A 
ATOM      3  C   UNL A   1     -26.504  -0.778  28.877  0.00  0.00    +0.039 A 
ATOM      4  C   UNL A   1     -27.918  -0.937  31.182  0.00  0.00    +0.007 A 
ATOM      5  C   UNL A   1     -26.542  -0.940  31.261  0.00  0.00    +0.000 A 
ATOM      6  C   UNL A   1     -25.783  -0.893  30.120  0.00  0.00    +0.003 A 
ENDROOT
BRANCH   2   7
ATOM      7  C   UNL A   1     -30.056  -0.737  29.829  0.00  0.00    +0.388 C 
ATOM      8  O   UNL A   1     -30.768  -1.495  30.285  0.00  0.00    -0.241 OA
ATOM      9  O   UNL A   1     -30.529   0.282  29.163  0.00  0.00    -0.241 OA
ENDBRANCH   2   7
BRANCH   3  10
ATOM     10  C   UNL A   1     -25.654  -0.660  27.719  0.00  0.00    +0.196 C 
ATOM     11  O   UNL A   1     -24.675  -1.465  27.641  0.00  0.00    -0.287 OA
BRANCH  10  12
ATOM     12  C   UNL A   1     -25.926   0.282  26.744  0.00  0.00    +0.039 A 
ATOM     13  C   UNL A   1     -25.626   1.472  26.819  0.00  0.00    +0.003 A 
ATOM     14  C   UNL A   1     -25.939   2.392  25.741  0.00  0.00    +0.001 A 
ATOM     15  C   UNL A   1     -26.752   1.928  24.742  0.00  0.00    +0.007 A 
ATOM     16  C   UNL A   1     -26.784  -0.017  25.616  0.00  0.00    +0.010 A 
ATOM     17  C   UNL A   1     -27.128   0.743  24.687  0.00  0.00    +0.035 A 
ATOM     18 BR   UNL A   1     -28.285   0.010  23.433  0.00  0.00    -0.049 Br
ENDBRANCH  10  12
ENDBRANCH   3  10
TORSDOF 3
