MODEL 2019
MODEL 1
REMARK VINA RESULT:    -6.984      0.000      0.000
REMARK INTER + INTRA:          -9.316
REMARK INTER:                  -8.617
REMARK INTRA:                  -0.699
REMARK UNBOUND:                -0.699
REMARK  Name = No_2019-gen_results/8p0m/2024-11-26-14-13-15/
REMARK  4 active torsions:
REMARK  status: ('A' for Active; 'I' for Inactive)
REMARK    1  A    between atoms: C_3  and  C_4
REMARK    2  A    between atoms: C_6  and  O_13
REMARK    3  A    between atoms: O_13  and  C_14
REMARK    4  A    between atoms: C_14  and  C_15
REMARK                            x       y       z     vdW  Elec       q    Type
REMARK                         _______ _______ _______ _____ _____    ______ ____
ROOT
ATOM      1  C   UNL A   1     -11.732   1.416  33.736  0.00  0.00    +0.037 A 
ATOM      2  C   UNL A   1     -12.759   1.841  34.212  0.00  0.00    +0.003 A 
ATOM      3  C   UNL A   1     -12.781   2.410  35.480  0.00  0.00    +0.000 A 
ATOM      4  C   UNL A   1     -10.519   1.321  34.563  0.00  0.00    +0.139 A 
ATOM      5  C   UNL A   1     -10.438   1.924  35.794  0.00  0.00    +0.037 A 
ATOM      6  C   UNL A   1     -11.600   2.475  36.360  0.00  0.00    +0.003 A 
ENDROOT
BRANCH   3   7
ATOM      7  C   UNL A   1     -13.979   2.958  36.180  0.00  0.00    +0.000 A 
ATOM      8  C   UNL A   1     -15.183   3.412  35.537  0.00  0.00    +0.000 A 
ATOM      9  C   UNL A   1     -16.240   3.823  36.319  0.00  0.00    +0.000 A 
ATOM     10  C   UNL A   1     -16.384   3.691  37.661  0.00  0.00    +0.000 A 
ATOM     11  C   UNL A   1     -14.111   2.819  37.622  0.00  0.00    +0.000 A 
ATOM     12  C   UNL A   1     -15.280   3.197  38.304  0.00  0.00    +0.000 A 
ENDBRANCH   3   7
BRANCH   4  13
ATOM     13  O   UNL A   1      -9.360   0.781  34.068  0.00  0.00    -0.471 OA
BRANCH  13  14
ATOM     14  C   UNL A   1      -8.396   0.369  34.883  0.00  0.00    +0.232 C 
BRANCH  14  15
ATOM     15  C   UNL A   1      -7.632  -0.378  34.722  0.00  0.00    +0.021 A 
ATOM     16  C   UNL A   1      -7.317  -1.333  34.442  0.00  0.00    -0.001 A 
ATOM     17  C   UNL A   1      -6.037  -2.112  34.216  0.00  0.00    -0.000 A 
ATOM     18  C   UNL A   1      -4.944  -1.463  34.766  0.00  0.00    -0.000 A 
ATOM     19  C   UNL A   1      -5.064  -0.203  35.278  0.00  0.00    -0.000 A 
ATOM     20  C   UNL A   1      -6.306   0.409  35.325  0.00  0.00    -0.001 A 
ENDBRANCH  14  15
ENDBRANCH  13  14
ENDBRANCH   4  13
TORSDOF 4
ENDMDL
ENDMDL
