REMARK  Name = No_2019-gen_results/8p0m/2024-11-26-14-13-15/
REMARK  4 active torsions:
REMARK  status: ('A' for Active; 'I' for Inactive)
REMARK    1  A    between atoms: C_3  and  C_4
REMARK    2  A    between atoms: C_6  and  O_13
REMARK    3  A    between atoms: O_13  and  C_14
REMARK    4  A    between atoms: C_14  and  C_15
REMARK                            x       y       z     vdW  Elec       q    Type
REMARK                         _______ _______ _______ _____ _____    ______ ____
ROOT
ATOM      1  C   UNL A   1     -28.016  -0.814  28.878  0.00  0.00    +0.037 A 
ATOM      2  C   UNL A   1     -27.064  -0.119  28.608  0.00  0.00    +0.003 A 
ATOM      3  C   UNL A   1     -25.792  -0.430  29.076  0.00  0.00    +0.000 A 
ATOM      4  C   UNL A   1     -27.882  -1.899  29.863  0.00  0.00    +0.139 A 
ATOM      5  C   UNL A   1     -26.653  -2.314  30.314  0.00  0.00    +0.037 A 
ATOM      6  C   UNL A   1     -25.515  -1.561  29.979  0.00  0.00    +0.003 A 
ENDROOT
BRANCH   3   7
ATOM      7  C   UNL A   1     -24.546   0.349  28.823  0.00  0.00    +0.000 A 
ATOM      8  C   UNL A   1     -23.241   0.022  29.332  0.00  0.00    +0.000 A 
ATOM      9  C   UNL A   1     -22.165   0.794  28.952  0.00  0.00    +0.000 A 
ATOM     10  C   UNL A   1     -22.124   1.748  27.989  0.00  0.00    +0.000 A 
ATOM     11  C   UNL A   1     -24.523   1.378  27.795  0.00  0.00    +0.000 A 
ATOM     12  C   UNL A   1     -23.339   2.042  27.430  0.00  0.00    +0.000 A 
ENDBRANCH   3   7
BRANCH   4  13
ATOM     13  O   UNL A   1     -28.960  -2.658  30.238  0.00  0.00    -0.471 OA
BRANCH  13  14
ATOM     14  C   UNL A   1     -30.099  -2.089  30.613  0.00  0.00    +0.232 C 
BRANCH  14  15
ATOM     15  C   UNL A   1     -30.276  -1.099  31.009  0.00  0.00    +0.021 A 
ATOM     16  C   UNL A   1     -30.862  -0.244  31.133  0.00  0.00    -0.001 A 
ATOM     17  C   UNL A   1     -30.861   1.061  31.904  0.00  0.00    -0.000 A 
ATOM     18  C   UNL A   1     -29.609   1.339  32.428  0.00  0.00    -0.000 A 
ATOM     19  C   UNL A   1     -28.602   0.420  32.360  0.00  0.00    -0.000 A 
ATOM     20  C   UNL A   1     -28.802  -0.776  31.689  0.00  0.00    -0.001 A 
ENDBRANCH  14  15
ENDBRANCH  13  14
ENDBRANCH   4  13
TORSDOF 4
