MODEL 201
MODEL 1
REMARK VINA RESULT:    -7.752      0.000      0.000
REMARK INTER + INTRA:         -12.635
REMARK INTER:                 -11.377
REMARK INTRA:                  -1.258
REMARK UNBOUND:                -1.258
REMARK  Name = No_201-gen_results/8p0m/2024-11-26-14-13-15/
REMARK  8 active torsions:
REMARK  status: ('A' for Active; 'I' for Inactive)
REMARK    1  A    between atoms: C_2  and  C_11
REMARK    2  A    between atoms: C_3  and  C_4
REMARK    3  A    between atoms: C_11  and  O_12
REMARK    4  A    between atoms: O_12  and  C_14
REMARK    5  A    between atoms: C_14  and  C_15
REMARK    6  A    between atoms: C_15  and  C_16
REMARK    7  A    between atoms: C_16  and  C_17
REMARK    8  A    between atoms: N_24  and  C_25
REMARK                            x       y       z     vdW  Elec       q    Type
REMARK                         _______ _______ _______ _____ _____    ______ ____
ROOT
ATOM      1  O   UNL A   1     -22.937   0.162  28.068  0.00  0.00    -0.385 OA
ENDROOT
BRANCH   1   2
ATOM      2  C   UNL A   1     -23.023   1.218  27.686  0.00  0.00    +0.348 C 
ATOM      3  O   UNL A   1     -22.118   2.123  27.985  0.00  0.00    -0.244 OA
BRANCH   2   5
ATOM      4  C   UNL A   1     -24.738   0.847  26.241  0.00  0.00    +0.010 A 
ATOM      5  C   UNL A   1     -24.310   1.597  26.844  0.00  0.00    +0.076 A 
ATOM      6  C   UNL A   1     -25.967   1.261  25.463  0.00  0.00    +0.072 A 
ATOM      7  C   UNL A   1     -24.541   3.046  26.917  0.00  0.00    +0.006 A 
ATOM      8  C   UNL A   1     -25.631   3.506  26.210  0.00  0.00    +0.000 A 
ATOM      9  C   UNL A   1     -26.366   2.646  25.435  0.00  0.00    +0.004 A 
BRANCH   6  10
ATOM     10  C   UNL A   1     -26.818   0.394  24.687  0.00  0.00    +0.419 C 
ATOM     11  F   UNL A   1     -27.269   0.863  23.607  0.00  0.00    -0.166 F 
ATOM     12  F   UNL A   1     -27.923  -0.014  25.442  0.00  0.00    -0.166 F 
ATOM     13  F   UNL A   1     -26.237  -0.853  24.495  0.00  0.00    -0.166 F 
ENDBRANCH   6  10
ENDBRANCH   2   5
ENDBRANCH   1   2
BRANCH   1  14
ATOM     14  C   UNL A   1     -22.772  -0.272  29.417  0.00  0.00    +0.362 C 
ATOM     15  O   UNL A   1     -21.672  -0.321  29.875  0.00  0.00    -0.243 OA
BRANCH  14  16
ATOM     16  C   UNL A   1     -23.993  -0.866  29.913  0.00  0.00    +0.139 C 
ATOM     17  N   UNL A   1     -24.195  -0.690  31.197  0.00  0.00    -0.241 NA
BRANCH  17  18
ATOM     18  C   UNL A   1     -23.551  -1.175  32.175  0.00  0.00    +0.099 C 
ATOM     19  C   UNL A   1     -23.762  -1.057  33.172  0.00  0.00    +0.022 C 
ENDBRANCH  17  18
BRANCH  16  20
ATOM     20  C   UNL A   1     -24.837  -1.466  29.102  0.00  0.00    +0.079 C 
BRANCH  20  21
ATOM     21  C   UNL A   1     -24.736  -2.708  28.962  0.00  0.00    -0.016 A 
ATOM     22  C   UNL A   1     -24.067  -3.326  28.503  0.00  0.00    -0.004 A 
ATOM     23  C   UNL A   1     -23.959  -4.816  28.459  0.00  0.00    -0.000 A 
ATOM     24  C   UNL A   1     -25.010  -5.484  29.015  0.00  0.00    -0.000 A 
ATOM     25  C   UNL A   1     -25.998  -4.805  29.584  0.00  0.00    -0.000 A 
ATOM     26  C   UNL A   1     -25.952  -3.448  29.591  0.00  0.00    -0.004 A 
ENDBRANCH  20  21
ENDBRANCH  16  20
ENDBRANCH  14  16
ENDBRANCH   1  14
TORSDOF 8
ENDMDL
ENDMDL
