REMARK  Name = No_202-gen_results/8p0m/2024-11-26-14-13-15/
REMARK  6 active torsions:
REMARK  status: ('A' for Active; 'I' for Inactive)
REMARK    1  A    between atoms: C_2  and  C_5
REMARK    2  A    between atoms: C_10  and  C_11
REMARK    3  A    between atoms: C_11  and  C_13
REMARK    4  A    between atoms: N_12  and  C_14
REMARK    5  A    between atoms: C_14  and  C_16
REMARK    6  A    between atoms: C_16  and  C_17
REMARK                            x       y       z     vdW  Elec       q    Type
REMARK                         _______ _______ _______ _____ _____    ______ ____
ROOT
ATOM      1  C   UNL A   1     -27.542   0.777  28.635  0.00  0.00    +0.071 A 
ATOM      2  C   UNL A   1     -27.171   1.700  29.429  0.00  0.00    +0.004 A 
ATOM      3  C   UNL A   1     -27.388   0.875  27.265  0.00  0.00    +0.004 A 
ATOM      4  C   UNL A   1     -26.430   2.875  28.985  0.00  0.00    +0.001 A 
ATOM      5  C   UNL A   1     -26.666   2.025  26.688  0.00  0.00    +0.001 A 
ATOM      6  C   UNL A   1     -26.217   3.030  27.604  0.00  0.00    +0.013 A 
ENDROOT
BRANCH   1   8
ATOM      7  F   UNL A   1     -28.073  -1.254  28.532  0.00  0.00    -0.166 F 
ATOM      8  C   UNL A   1     -28.266  -0.421  29.193  0.00  0.00    +0.419 C 
ATOM      9  F   UNL A   1     -29.440  -0.182  29.365  0.00  0.00    -0.166 F 
ATOM     10  F   UNL A   1     -27.696  -0.709  30.432  0.00  0.00    -0.166 F 
ENDBRANCH   1   8
BRANCH   6  11
ATOM     11  C   UNL A   1     -25.514   4.200  27.088  0.00  0.00    +0.054 C 
ATOM     12  N   UNL A   1     -25.589   5.338  27.642  0.00  0.00    -0.274 NA
BRANCH  11  13
ATOM     13  C   UNL A   1     -24.457   4.019  26.048  0.00  0.00    +0.045 C 
ATOM     14  C   UNL A   1     -24.177   2.750  25.525  0.00  0.00    +0.007 C 
ENDBRANCH  11  13
BRANCH  12  15
ATOM     15  C   UNL A   1     -24.919   6.490  27.163  0.00  0.00    +0.130 C 
BRANCH  15  16
ATOM     16  C   UNL A   1     -24.973   7.664  28.040  0.00  0.00    +0.052 C 
BRANCH  16  17
ATOM     17  C   UNL A   1     -25.238   7.406  29.374  0.00  0.00    -0.024 C 
ATOM     18  C   UNL A   1     -25.872   6.313  29.795  0.00  0.00    -0.005 C 
ENDBRANCH  16  17
ENDBRANCH  15  16
ENDBRANCH  12  15
ENDBRANCH   6  11
TORSDOF 6
