REMARK  Name = No_2020-gen_results/8p0m/2024-11-26-14-13-15/
REMARK  5 active torsions:
REMARK  status: ('A' for Active; 'I' for Inactive)
REMARK    1  A    between atoms: C_6  and  O_8
REMARK    2  A    between atoms: O_8  and  C_9
REMARK    3  A    between atoms: C_9  and  C_10
REMARK    4  A    between atoms: C_11  and  C_12
REMARK    5  A    between atoms: C_13  and  C_14
REMARK                            x       y       z     vdW  Elec       q    Type
REMARK                         _______ _______ _______ _____ _____    ______ ____
ROOT
ATOM      1  O   UNL A   1     -30.372   2.209  30.251  0.00  0.00    -0.471 OA
ENDROOT
BRANCH   1   7
ATOM      2  C   UNL A   1     -28.016  -0.814  28.878  0.00  0.00    +0.012 A 
ATOM      3  C   UNL A   1     -28.469  -0.785  29.829  0.00  0.00    +0.004 A 
ATOM      4  C   UNL A   1     -28.182   0.428  28.113  0.00  0.00    +0.061 A 
ATOM      5  C   UNL A   1     -28.984   1.415  28.515  0.00  0.00    +0.048 A 
ATOM      6  C   UNL A   1     -29.380   0.138  30.461  0.00  0.00    +0.037 A 
ATOM      7  C   UNL A   1     -29.541   1.274  29.724  0.00  0.00    +0.140 A 
ATOM      8 CL   UNL A   1     -27.420   0.569  26.514  0.00  0.00    -0.082 Cl
ENDBRANCH   1   7
BRANCH   1   9
ATOM      9  C   UNL A   1     -31.205   2.773  29.690  0.00  0.00    +0.232 C 
BRANCH   9  10
ATOM     10  C   UNL A   1     -31.164   4.109  29.631  0.00  0.00    +0.021 C 
ATOM     11  C   UNL A   1     -30.611   4.867  30.640  0.00  0.00    -0.001 C 
BRANCH  11  12
ATOM     12  C   UNL A   1     -30.333   5.901  30.817  0.00  0.00    -0.000 C 
ATOM     13  C   UNL A   1     -29.680   6.543  31.980  0.00  0.00    -0.000 C 
BRANCH  13  14
ATOM     14  C   UNL A   1     -29.322   5.632  33.006  0.00  0.00    -0.005 C 
ATOM     15  C   UNL A   1     -29.560   4.297  32.845  0.00  0.00    -0.026 C 
ATOM     16  C   UNL A   1     -30.138   3.863  31.721  0.00  0.00    +0.031 C 
ENDBRANCH  13  14
ENDBRANCH  11  12
ENDBRANCH   9  10
ENDBRANCH   1   9
TORSDOF 5
