MODEL 2020
MODEL 1
REMARK VINA RESULT:    -6.747      0.000      0.000
REMARK INTER + INTRA:          -9.449
REMARK INTER:                  -8.720
REMARK INTRA:                  -0.730
REMARK UNBOUND:                -0.730
REMARK  Name = No_2020-gen_results/8p0m/2024-11-26-14-13-15/
REMARK  5 active torsions:
REMARK  status: ('A' for Active; 'I' for Inactive)
REMARK    1  A    between atoms: C_6  and  O_8
REMARK    2  A    between atoms: O_8  and  C_9
REMARK    3  A    between atoms: C_9  and  C_10
REMARK    4  A    between atoms: C_11  and  C_12
REMARK    5  A    between atoms: C_13  and  C_14
REMARK                            x       y       z     vdW  Elec       q    Type
REMARK                         _______ _______ _______ _____ _____    ______ ____
ROOT
ATOM      1  O   UNL A   1     -24.369  -1.327  29.626  0.00  0.00    -0.471 OA
ENDROOT
BRANCH   1   7
ATOM      2  C   UNL A   1     -25.355  -5.256  29.212  0.00  0.00    +0.012 A 
ATOM      3  C   UNL A   1     -24.472  -4.812  28.846  0.00  0.00    +0.004 A 
ATOM      4  C   UNL A   1     -26.307  -4.288  29.773  0.00  0.00    +0.061 A 
ATOM      5  C   UNL A   1     -25.995  -3.005  29.964  0.00  0.00    +0.048 A 
ATOM      6  C   UNL A   1     -23.915  -3.486  28.954  0.00  0.00    +0.037 A 
ATOM      7  C   UNL A   1     -24.804  -2.607  29.500  0.00  0.00    +0.140 A 
ATOM      8 CL   UNL A   1     -27.877  -4.864  30.372  0.00  0.00    -0.082 Cl
ENDBRANCH   1   7
BRANCH   1   9
ATOM      9  C   UNL A   1     -23.708  -0.914  30.473  0.00  0.00    +0.232 C 
BRANCH   9  10
ATOM     10  C   UNL A   1     -22.566  -0.288  30.164  0.00  0.00    +0.021 C 
ATOM     11  C   UNL A   1     -22.185  -0.069  28.858  0.00  0.00    -0.001 C 
BRANCH  11  12
ATOM     12  C   UNL A   1     -21.424   0.486  28.319  0.00  0.00    -0.000 C 
ATOM     13  C   UNL A   1     -21.533   1.662  27.427  0.00  0.00    -0.000 C 
BRANCH  13  14
ATOM     14  C   UNL A   1     -22.853   2.165  27.306  0.00  0.00    -0.005 C 
ATOM     15  C   UNL A   1     -23.362   2.453  26.072  0.00  0.00    -0.026 C 
ATOM     16  C   UNL A   1     -22.603   2.266  24.988  0.00  0.00    +0.031 C 
ENDBRANCH  13  14
ENDBRANCH  11  12
ENDBRANCH   9  10
ENDBRANCH   1   9
TORSDOF 5
ENDMDL
ENDMDL
