MODEL 2021
MODEL 1
REMARK VINA RESULT:    -5.458      0.000      0.000
REMARK INTER + INTRA:          -6.266
REMARK INTER:                  -6.096
REMARK INTRA:                  -0.170
REMARK UNBOUND:                -0.170
REMARK  Name = No_2021-gen_results/8p0m/2024-11-26-14-13-15/
REMARK  2 active torsions:
REMARK  status: ('A' for Active; 'I' for Inactive)
REMARK    1  A    between atoms: C_1  and  C_8
REMARK    2  A    between atoms: C_5  and  C_11
REMARK                            x       y       z     vdW  Elec       q    Type
REMARK                         _______ _______ _______ _____ _____    ______ ____
ROOT
ATOM      1  C   UNL A   1      -6.829   0.234  11.494  0.00  0.00    +0.086 C 
ATOM      2  C   UNL A   1      -7.692   0.778  10.845  0.00  0.00    +0.034 C 
ATOM      3  C   UNL A   1      -7.571   1.158   9.519  0.00  0.00    +0.105 C 
ATOM      4  C   UNL A   1      -8.553   1.880   8.745  0.00  0.00    +0.030 C 
ATOM      5  C   UNL A   1      -9.770   2.245   9.368  0.00  0.00    +0.089 C 
ATOM      6  C   UNL A   1      -9.959   1.881  10.727  0.00  0.00    +0.078 C 
ATOM      7  C   UNL A   1      -8.961   1.226  11.380  0.00  0.00    +0.171 C 
ATOM      8 CL   UNL A   1      -6.144   0.824   8.667  0.00  0.00    -0.110 Cl
ATOM      9  O   UNL A   1      -9.227   0.998  12.673  0.00  0.00    -0.292 OA
ENDROOT
BRANCH   1  10
ATOM     10  C   UNL A   1      -6.560  -1.174  11.074  0.00  0.00    +0.388 C 
ATOM     11  O   UNL A   1      -5.401  -1.467  10.902  0.00  0.00    -0.241 OA
ATOM     12  O   UNL A   1      -7.587  -1.889  10.935  0.00  0.00    -0.241 OA
ENDBRANCH   1  10
BRANCH   5  13
ATOM     13  C   UNL A   1     -10.815   2.926   8.624  0.00  0.00    +0.261 C 
ATOM     14  N   UNL A   1     -10.918   4.231   8.644  0.00  0.00    -0.088 NA
ATOM     15  O   UNL A   1     -11.879   2.265   8.217  0.00  0.00    -0.272 OA
ENDBRANCH   5  13
TORSDOF 2
ENDMDL
ENDMDL
