REMARK  Name = No_2021-gen_results/8p0m/2024-11-26-14-13-15/
REMARK  2 active torsions:
REMARK  status: ('A' for Active; 'I' for Inactive)
REMARK    1  A    between atoms: C_1  and  C_8
REMARK    2  A    between atoms: C_5  and  C_11
REMARK                            x       y       z     vdW  Elec       q    Type
REMARK                         _______ _______ _______ _____ _____    ______ ____
ROOT
ATOM      1  C   UNL A   1     -28.016  -0.814  28.878  0.00  0.00    +0.086 C 
ATOM      2  C   UNL A   1     -27.064  -0.119  28.608  0.00  0.00    +0.034 C 
ATOM      3  C   UNL A   1     -26.972   0.714  27.506  0.00  0.00    +0.105 C 
ATOM      4  C   UNL A   1     -25.820   1.491  27.116  0.00  0.00    +0.030 C 
ATOM      5  C   UNL A   1     -24.656   1.424  27.918  0.00  0.00    +0.089 C 
ATOM      6  C   UNL A   1     -24.685   0.590  29.066  0.00  0.00    +0.078 C 
ATOM      7  C   UNL A   1     -25.810  -0.127  29.334  0.00  0.00    +0.171 C 
ATOM      8 CL   UNL A   1     -28.280   0.852  26.435  0.00  0.00    -0.110 Cl
ATOM      9  O   UNL A   1     -25.694  -0.928  30.401  0.00  0.00    -0.292 OA
ENDROOT
BRANCH   1  10
ATOM     10  C   UNL A   1     -29.218  -0.042  29.313  0.00  0.00    +0.388 C 
ATOM     11  O   UNL A   1     -29.095   0.613  30.320  0.00  0.00    -0.241 OA
ATOM     12  O   UNL A   1     -30.230  -0.181  28.576  0.00  0.00    -0.241 OA
ENDBRANCH   1  10
BRANCH   5  13
ATOM     13  C   UNL A   1     -23.485   2.223  27.603  0.00  0.00    +0.261 C 
ATOM     14  N   UNL A   1     -23.293   2.696  26.398  0.00  0.00    -0.088 NA
ATOM     15  O   UNL A   1     -22.429   2.191  28.389  0.00  0.00    -0.272 OA
ENDBRANCH   5  13
TORSDOF 2
