MODEL 2022
MODEL 1
REMARK VINA RESULT:    -5.479      0.000      0.000
REMARK INTER + INTRA:          -6.236
REMARK INTER:                  -6.119
REMARK INTRA:                  -0.116
REMARK UNBOUND:                -0.116
REMARK  Name = No_2022-gen_results/8p0m/2024-11-26-14-13-15/
REMARK  2 active torsions:
REMARK  status: ('A' for Active; 'I' for Inactive)
REMARK    1  A    between atoms: C_1  and  C_8
REMARK    2  A    between atoms: C_5  and  C_10
REMARK                            x       y       z     vdW  Elec       q    Type
REMARK                         _______ _______ _______ _____ _____    ______ ____
ROOT
ATOM      1  C   UNL A   1     -25.018  -3.109  29.078  0.00  0.00    -0.035 C 
ATOM      2  C   UNL A   1     -24.448  -2.098  28.739  0.00  0.00    -0.049 C 
ATOM      3  C   UNL A   1     -25.040  -1.101  27.966  0.00  0.00    +0.022 C 
ATOM      4  C   UNL A   1     -24.418   0.153  27.498  0.00  0.00    +0.010 C 
ATOM      5  C   UNL A   1     -23.146   0.465  28.067  0.00  0.00    +0.044 C 
ATOM      6  C   UNL A   1     -22.534  -0.489  28.887  0.00  0.00    +0.010 C 
ATOM      7  C   UNL A   1     -23.116  -1.663  29.219  0.00  0.00    +0.022 C 
ENDROOT
BRANCH   1   8
ATOM      8  C   UNL A   1     -24.218  -4.354  28.873  0.00  0.00    +0.025 C 
ATOM      9  C   UNL A   1     -24.974  -5.567  28.984  0.00  0.00    +0.005 C 
ENDBRANCH   1   8
BRANCH   5  10
ATOM     10  C   UNL A   1     -22.557   1.724  27.652  0.00  0.00    +0.095 C 
ATOM     11  N   UNL A   1     -21.273   1.836  27.349  0.00  0.00    -0.151 NA
ENDBRANCH   5  10
TORSDOF 2
ENDMDL
ENDMDL
