REMARK  Name = No_2023-gen_results/8p0m/2024-11-26-14-13-15/
REMARK  7 active torsions:
REMARK  status: ('A' for Active; 'I' for Inactive)
REMARK    1  A    between atoms: C_1  and  C_2
REMARK    2  A    between atoms: C_4  and  C_16
REMARK    3  A    between atoms: C_5  and  C_10
REMARK    4  A    between atoms: C_10  and  C_11
REMARK    5  A    between atoms: C_16  and  O_17
REMARK    6  A    between atoms: O_17  and  C_19
REMARK    7  A    between atoms: C_19  and  C_20
REMARK                            x       y       z     vdW  Elec       q    Type
REMARK                         _______ _______ _______ _____ _____    ______ ____
ROOT
ATOM      1  C   UNL A   1     -27.064  -0.119  28.608  0.00  0.00    +0.044 A 
ATOM      2  C   UNL A   1     -26.929   1.171  29.008  0.00  0.00    +0.007 A 
ATOM      3  C   UNL A   1     -25.770   2.034  28.688  0.00  0.00    +0.072 A 
ATOM      4  C   UNL A   1     -24.714   1.443  27.919  0.00  0.00    -0.008 A 
ATOM      5  C   UNL A   1     -24.859   0.078  27.584  0.00  0.00    -0.004 A 
ATOM      6  C   UNL A   1     -25.965  -0.661  27.916  0.00  0.00    +0.001 A 
ENDROOT
BRANCH   1   7
ATOM      7  C   UNL A   1     -28.016  -0.814  28.878  0.00  0.00    +0.341 C 
ATOM      8  F   UNL A   1     -27.828  -2.037  29.371  0.00  0.00    -0.193 F 
ATOM      9  F   UNL A   1     -29.232  -0.523  28.761  0.00  0.00    -0.193 F 
ENDBRANCH   1   7
BRANCH   4  10
ATOM     10  C   UNL A   1     -23.544   2.145  27.566  0.00  0.00    +0.118 C 
ATOM     11  C   UNL A   1     -23.588   2.773  26.234  0.00  0.00    +0.013 C 
BRANCH  10  12
ATOM     12  C   UNL A   1     -22.383   2.091  28.303  0.00  0.00    +0.401 C 
ATOM     13  F   UNL A   1     -22.486   1.802  29.494  0.00  0.00    -0.170 F 
ATOM     14  F   UNL A   1     -21.649   3.056  28.238  0.00  0.00    -0.170 F 
ATOM     15  F   UNL A   1     -21.658   1.057  27.654  0.00  0.00    -0.170 F 
ENDBRANCH  10  12
ENDBRANCH   4  10
BRANCH   3  16
ATOM     16  C   UNL A   1     -25.715   3.406  29.107  0.00  0.00    +0.348 C 
ATOM     17  O   UNL A   1     -25.415   3.576  30.405  0.00  0.00    -0.244 OA
BRANCH  16  18
ATOM     18  O   UNL A   1     -25.939   4.267  28.373  0.00  0.00    -0.386 OA
BRANCH  18  19
ATOM     19  C   UNL A   1     -25.771   5.635  28.712  0.00  0.00    +0.348 C 
ATOM     20  O   UNL A   1     -24.664   6.053  29.204  0.00  0.00    -0.244 OA
BRANCH  19  21
ATOM     21  C   UNL A   1     -26.868   6.527  28.414  0.00  0.00    +0.076 A 
ATOM     22  C   UNL A   1     -27.946   5.999  28.082  0.00  0.00    +0.009 A 
ATOM     23  C   UNL A   1     -29.102   6.847  27.718  0.00  0.00    +0.030 A 
ATOM     24  C   UNL A   1     -28.908   8.281  27.709  0.00  0.00    +0.140 A 
ATOM     25  C   UNL A   1     -27.651   8.791  28.048  0.00  0.00    +0.030 A 
ATOM     26  C   UNL A   1     -26.588   7.946  28.389  0.00  0.00    +0.009 A 
ATOM     27  F   UNL A   1     -29.899   9.052  27.396  0.00  0.00    -0.204 F 
ENDBRANCH  19  21
ENDBRANCH  18  19
ENDBRANCH  16  18
ENDBRANCH   3  16
TORSDOF 7
