MODEL 2024
MODEL 1
REMARK VINA RESULT:    -5.456      0.000      0.000
REMARK INTER + INTRA:         -12.602
REMARK INTER:                  -8.645
REMARK INTRA:                  -3.957
REMARK UNBOUND:                -3.957
REMARK  Name = No_2024-gen_results/8p0m/2024-11-26-14-13-15/
REMARK  10 active torsions:
REMARK  status: ('A' for Active; 'I' for Inactive)
REMARK    1  A    between atoms: C_3  and  C_7
REMARK    2  A    between atoms: N_8  and  C_10
REMARK    3  A    between atoms: C_10  and  C_11
REMARK    4  A    between atoms: C_11  and  C_13
REMARK    5  A    between atoms: C_12  and  C_14
REMARK    6  A    between atoms: C_14  and  C_16
REMARK    7  A    between atoms: C_16  and  C_17
REMARK    8  A    between atoms: C_18  and  C_19
REMARK    9  A    between atoms: C_24  and  C_25
REMARK   10  A    between atoms: C_26  and  C_27
REMARK                            x       y       z     vdW  Elec       q    Type
REMARK                         _______ _______ _______ _____ _____    ______ ____
ROOT
ATOM      1  C   UNL A   1     -25.245  -1.518  31.125  0.00  0.00    +0.064 C 
ATOM      2  C   UNL A   1     -25.772  -0.659  31.819  0.00  0.00    -0.018 C 
ENDROOT
BRANCH   1   3
ATOM      3  C   UNL A   1     -26.117  -2.491  30.374  0.00  0.00    +0.098 C 
ATOM      4  N   UNL A   1     -26.699  -3.323  29.992  0.00  0.00    -0.191 NA
ENDBRANCH   1   3
BRANCH   1   5
ATOM      5  C   UNL A   1     -23.760  -1.453  30.664  0.00  0.00    +0.152 C 
BRANCH   5   7
ATOM      6  C   UNL A   1     -22.606  -0.692  28.947  0.00  0.00    +0.265 C 
ATOM      7  N   UNL A   1     -23.584  -1.144  29.622  0.00  0.00    -0.196 NA
ATOM      8  O   UNL A   1     -21.454  -1.115  29.014  0.00  0.00    -0.268 OA
BRANCH   6  11
ATOM      9  C   UNL A   1     -22.320   1.534  27.711  0.00  0.00    +0.005 A 
ATOM     10  C   UNL A   1     -22.687   2.191  26.973  0.00  0.00    +0.000 A 
ATOM     11  C   UNL A   1     -23.041   0.343  27.951  0.00  0.00    +0.055 A 
ATOM     12  C   UNL A   1     -24.197   0.037  27.261  0.00  0.00    +0.005 A 
ATOM     13  C   UNL A   1     -23.877   2.103  26.103  0.00  0.00    +0.000 A 
ATOM     14  C   UNL A   1     -24.597   0.977  26.302  0.00  0.00    +0.000 A 
ENDBRANCH   6  11
ENDBRANCH   5   7
ENDBRANCH   1   5
BRANCH   2  15
ATOM     15  C   UNL A   1     -25.006   0.336  32.536  0.00  0.00    +0.031 C 
BRANCH  15  16
ATOM     16  C   UNL A   1     -25.608   1.596  32.792  0.00  0.00    +0.031 C 
BRANCH  16  17
ATOM     17  C   UNL A   1     -25.441   2.595  31.832  0.00  0.00    -0.026 C 
ATOM     18  C   UNL A   1     -24.945   2.185  30.506  0.00  0.00    -0.005 C 
BRANCH  18  19
ATOM     19  C   UNL A   1     -25.789   2.594  29.481  0.00  0.00    -0.000 A 
ATOM     20  C   UNL A   1     -25.629   3.750  28.822  0.00  0.00    -0.000 A 
ATOM     21  C   UNL A   1     -26.534   4.139  27.703  0.00  0.00    -0.000 A 
ATOM     22  C   UNL A   1     -26.874   1.661  29.052  0.00  0.00    -0.000 A 
ATOM     23  C   UNL A   1     -27.880   2.200  28.128  0.00  0.00    -0.000 A 
ATOM     24  C   UNL A   1     -27.662   3.435  27.505  0.00  0.00    -0.000 A 
BRANCH  24  25
ATOM     25  C   UNL A   1     -28.598   3.830  26.417  0.00  0.00    -0.005 C 
ATOM     26  C   UNL A   1     -28.516   3.471  25.155  0.00  0.00    -0.026 C 
BRANCH  26  27
ATOM     27  C   UNL A   1     -27.408   2.686  24.742  0.00  0.00    +0.026 C 
ATOM     28  C   UNL A   1     -27.771   1.198  24.348  0.00  0.00    +0.005 C 
ENDBRANCH  26  27
ENDBRANCH  24  25
ENDBRANCH  18  19
ENDBRANCH  16  17
ENDBRANCH  15  16
ENDBRANCH   2  15
TORSDOF 10
ENDMDL
ENDMDL
