REMARK  Name = No_2024-gen_results/8p0m/2024-11-26-14-13-15/
REMARK  10 active torsions:
REMARK  status: ('A' for Active; 'I' for Inactive)
REMARK    1  A    between atoms: C_3  and  C_7
REMARK    2  A    between atoms: N_8  and  C_10
REMARK    3  A    between atoms: C_10  and  C_11
REMARK    4  A    between atoms: C_11  and  C_13
REMARK    5  A    between atoms: C_12  and  C_14
REMARK    6  A    between atoms: C_14  and  C_16
REMARK    7  A    between atoms: C_16  and  C_17
REMARK    8  A    between atoms: C_18  and  C_19
REMARK    9  A    between atoms: C_24  and  C_25
REMARK   10  A    between atoms: C_26  and  C_27
REMARK                            x       y       z     vdW  Elec       q    Type
REMARK                         _______ _______ _______ _____ _____    ______ ____
ROOT
ATOM      1  C   UNL A   1     -23.583   1.748  27.678  0.00  0.00    +0.064 C 
ATOM      2  C   UNL A   1     -22.425   1.752  28.073  0.00  0.00    -0.018 C 
ENDROOT
BRANCH   1   3
ATOM      3  C   UNL A   1     -24.324   3.055  27.563  0.00  0.00    +0.098 C 
ATOM      4  N   UNL A   1     -25.019   3.888  27.564  0.00  0.00    -0.191 NA
ENDBRANCH   1   3
BRANCH   1   5
ATOM      5  C   UNL A   1     -24.229   0.542  26.935  0.00  0.00    +0.152 C 
BRANCH   5   7
ATOM      6  C   UNL A   1     -26.399   0.295  27.228  0.00  0.00    +0.265 C 
ATOM      7  N   UNL A   1     -25.148   0.129  27.379  0.00  0.00    -0.196 NA
ATOM      8  O   UNL A   1     -26.968   0.387  26.143  0.00  0.00    -0.268 OA
BRANCH   6  11
ATOM      9  C   UNL A   1     -28.016  -0.814  28.878  0.00  0.00    +0.005 A 
ATOM     10  C   UNL A   1     -28.469  -0.785  29.829  0.00  0.00    +0.000 A 
ATOM     11  C   UNL A   1     -27.136   0.236  28.535  0.00  0.00    +0.055 A 
ATOM     12  C   UNL A   1     -26.875   1.282  29.398  0.00  0.00    +0.005 A 
ATOM     13  C   UNL A   1     -28.361   0.199  30.924  0.00  0.00    +0.000 A 
ATOM     14  C   UNL A   1     -27.528   1.223  30.636  0.00  0.00    +0.000 A 
ENDBRANCH   6  11
ENDBRANCH   5   7
ENDBRANCH   1   5
BRANCH   2  15
ATOM     15  C   UNL A   1     -21.634   0.546  28.170  0.00  0.00    +0.031 C 
BRANCH  15  16
ATOM     16  C   UNL A   1     -21.833  -0.304  29.289  0.00  0.00    +0.031 C 
BRANCH  16  17
ATOM     17  C   UNL A   1     -23.128  -0.768  29.521  0.00  0.00    -0.026 C 
ATOM     18  C   UNL A   1     -23.344  -1.609  30.712  0.00  0.00    -0.005 C 
BRANCH  18  19
ATOM     19  C   UNL A   1     -24.343  -1.106  31.536  0.00  0.00    -0.000 A 
ATOM     20  C   UNL A   1     -24.127  -0.138  32.437  0.00  0.00    -0.000 A 
ATOM     21  C   UNL A   1     -25.232   0.401  33.280  0.00  0.00    -0.000 A 
ATOM     22  C   UNL A   1     -25.732  -1.622  31.347  0.00  0.00    -0.000 A 
ATOM     23  C   UNL A   1     -26.720  -1.243  32.366  0.00  0.00    -0.000 A 
ATOM     24  C   UNL A   1     -26.409  -0.249  33.302  0.00  0.00    -0.000 A 
BRANCH  24  25
ATOM     25  C   UNL A   1     -27.513   0.251  34.165  0.00  0.00    -0.005 C 
ATOM     26  C   UNL A   1     -28.628  -0.386  34.445  0.00  0.00    -0.026 C 
BRANCH  26  27
ATOM     27  C   UNL A   1     -28.864  -1.645  33.833  0.00  0.00    +0.026 C 
ATOM     28  C   UNL A   1     -27.904  -1.974  32.620  0.00  0.00    +0.005 C 
ENDBRANCH  26  27
ENDBRANCH  24  25
ENDBRANCH  18  19
ENDBRANCH  16  17
ENDBRANCH  15  16
ENDBRANCH   2  15
TORSDOF 10
