MODEL 2025
MODEL 1
REMARK VINA RESULT:    -6.338      0.000      0.000
REMARK INTER + INTRA:         -12.173
REMARK INTER:                 -10.043
REMARK INTRA:                  -2.130
REMARK UNBOUND:                -2.130
REMARK  Name = No_2025-gen_results/8p0m/2024-11-26-14-13-15/
REMARK  10 active torsions:
REMARK  status: ('A' for Active; 'I' for Inactive)
REMARK    1  A    between atoms: C_1  and  C_2
REMARK    2  A    between atoms: C_1  and  C_8
REMARK    3  A    between atoms: C_3  and  N_22
REMARK    4  A    between atoms: C_5  and  C_12
REMARK    5  A    between atoms: N_10  and  C_15
REMARK    6  A    between atoms: C_11  and  N_34
REMARK    7  A    between atoms: C_15  and  C_18
REMARK    8  A    between atoms: C_18  and  C_19
REMARK    9  A    between atoms: C_18  and  N_31
REMARK   10  A    between atoms: C_23  and  C_25
REMARK                            x       y       z     vdW  Elec       q    Type
REMARK                         _______ _______ _______ _____ _____    ______ ____
ROOT
ATOM      1  C   UNL A   1     -29.875 -11.136  28.360  0.00  0.00    -0.004 A 
ATOM      2  C   UNL A   1     -30.300 -10.883  27.067  0.00  0.00    +0.070 A 
ATOM      3  C   UNL A   1     -31.121  -9.776  26.639  0.00  0.00    +0.023 A 
ATOM      4  C   UNL A   1     -31.557  -8.842  27.609  0.00  0.00    +0.081 A 
ATOM      5  C   UNL A   1     -31.158  -9.046  28.955  0.00  0.00    +0.006 A 
ATOM      6  C   UNL A   1     -30.358 -10.104  29.255  0.00  0.00    -0.003 A 
ENDROOT
BRANCH   4   7
ATOM      7  C   UNL A   1     -32.403  -7.717  27.253  0.00  0.00    +0.388 C 
ATOM      8  O   UNL A   1     -32.088  -7.062  26.224  0.00  0.00    -0.241 OA
ATOM      9  O   UNL A   1     -33.373  -7.382  28.021  0.00  0.00    -0.241 OA
ENDBRANCH   4   7
BRANCH   2  10
ATOM     10  N   UNL A   1     -29.933 -11.724  26.034  0.00  0.00    -0.176 NA
ATOM     11  C   UNL A   1     -30.783 -12.670  25.586  0.00  0.00    +0.269 C 
ATOM     12  O   UNL A   1     -31.910 -12.712  25.972  0.00  0.00    -0.268 OA
BRANCH  11  13
ATOM     13  C   UNL A   1     -30.141 -13.749  24.808  0.00  0.00    +0.055 A 
ATOM     14  C   UNL A   1     -29.427 -14.593  25.432  0.00  0.00    +0.005 A 
ATOM     15  C   UNL A   1     -28.723 -15.689  24.726  0.00  0.00    +0.000 A 
ATOM     16  C   UNL A   1     -28.860 -15.693  23.339  0.00  0.00    +0.000 A 
ATOM     17  C   UNL A   1     -29.626 -14.716  22.683  0.00  0.00    +0.000 A 
ATOM     18  C   UNL A   1     -30.242 -13.748  23.412  0.00  0.00    +0.005 A 
ENDBRANCH  11  13
ENDBRANCH   2  10
BRANCH   1  19
ATOM     19  C   UNL A   1     -29.130 -12.031  28.685  0.00  0.00    +0.062 C 
BRANCH  19  20
ATOM     20  C   UNL A   1     -29.784 -13.153  29.414  0.00  0.00    +0.138 C 
ATOM     21  N   UNL A   1     -30.343 -14.010  28.877  0.00  0.00    -0.181 NA
ATOM     22  N   UNL A   1     -29.378 -13.314  30.772  0.00  0.00    -0.258 NA
ATOM     23  C   UNL A   1     -30.910 -15.147  29.537  0.00  0.00    +0.178 C 
ATOM     24  C   UNL A   1     -29.858 -14.387  31.496  0.00  0.00    +0.077 C 
ATOM     25  C   UNL A   1     -30.652 -15.335  30.812  0.00  0.00    +0.060 C 
BRANCH  23  26
ATOM     26  N   UNL A   1     -31.680 -16.052  28.787  0.00  0.00    -0.251 NA
ATOM     27  C   UNL A   1     -32.352 -15.791  27.799  0.00  0.00    +0.115 C 
ENDBRANCH  23  26
BRANCH  22  28
ATOM     28  C   UNL A   1     -28.674 -12.406  31.465  0.00  0.00    +0.101 C 
BRANCH  28  29
ATOM     29  C   UNL A   1     -28.723 -12.452  32.912  0.00  0.00    +0.178 C 
BRANCH  29  30
ATOM     30  C   UNL A   1     -27.539 -12.282  33.482  0.00  0.00    +0.380 C 
ATOM     31  O   UNL A   1     -27.454 -12.486  34.537  0.00  0.00    -0.244 OA
ATOM     32  O   UNL A   1     -26.457 -12.486  32.798  0.00  0.00    -0.244 OA
ENDBRANCH  29  30
BRANCH  29  33
ATOM     33  N   UNL A   1     -29.642 -11.316  33.270  0.00  0.00    -0.261 NA
ATOM     34  C   UNL A   1     -30.745 -11.382  33.906  0.00  0.00    +0.090 C 
ATOM     35  C   UNL A   1     -29.272 -10.033  32.824  0.00  0.00    +0.090 C 
ENDBRANCH  29  33
ENDBRANCH  28  29
ENDBRANCH  22  28
ENDBRANCH  19  20
ENDBRANCH   1  19
TORSDOF 10
ENDMDL
ENDMDL
