REMARK  Name = No_2025-gen_results/8p0m/2024-11-26-14-13-15/
REMARK  10 active torsions:
REMARK  status: ('A' for Active; 'I' for Inactive)
REMARK    1  A    between atoms: C_1  and  C_2
REMARK    2  A    between atoms: C_1  and  C_8
REMARK    3  A    between atoms: C_3  and  N_22
REMARK    4  A    between atoms: C_5  and  C_12
REMARK    5  A    between atoms: N_10  and  C_15
REMARK    6  A    between atoms: C_11  and  N_34
REMARK    7  A    between atoms: C_15  and  C_18
REMARK    8  A    between atoms: C_18  and  C_19
REMARK    9  A    between atoms: C_18  and  N_31
REMARK   10  A    between atoms: C_23  and  C_25
REMARK                            x       y       z     vdW  Elec       q    Type
REMARK                         _______ _______ _______ _____ _____    ______ ____
ROOT
ATOM      1  C   UNL A   1     -27.064  -0.119  28.608  0.00  0.00    -0.004 A 
ATOM      2  C   UNL A   1     -26.972   0.714  27.506  0.00  0.00    +0.070 A 
ATOM      3  C   UNL A   1     -25.820   1.491  27.116  0.00  0.00    +0.023 A 
ATOM      4  C   UNL A   1     -24.656   1.424  27.918  0.00  0.00    +0.081 A 
ATOM      5  C   UNL A   1     -24.685   0.590  29.066  0.00  0.00    +0.006 A 
ATOM      6  C   UNL A   1     -25.810  -0.127  29.334  0.00  0.00    -0.003 A 
ENDROOT
BRANCH   4   7
ATOM      7  C   UNL A   1     -23.468   2.195  27.598  0.00  0.00    +0.388 C 
ATOM      8  O   UNL A   1     -22.542   2.207  28.452  0.00  0.00    -0.241 OA
ATOM      9  O   UNL A   1     -23.430   2.888  26.521  0.00  0.00    -0.241 OA
ENDBRANCH   4   7
BRANCH   2  10
ATOM     10  N   UNL A   1     -28.045   0.856  26.647  0.00  0.00    -0.176 NA
ATOM     11  C   UNL A   1     -28.894   1.895  26.777  0.00  0.00    +0.269 C 
ATOM     12  O   UNL A   1     -28.663   2.782  27.539  0.00  0.00    -0.268 OA
BRANCH  11  13
ATOM     13  C   UNL A   1     -30.196   1.708  26.107  0.00  0.00    +0.055 A 
ATOM     14  C   UNL A   1     -31.227   2.211  26.651  0.00  0.00    +0.005 A 
ATOM     15  C   UNL A   1     -32.577   2.045  26.063  0.00  0.00    +0.000 A 
ATOM     16  C   UNL A   1     -32.636   1.264  24.911  0.00  0.00    +0.000 A 
ATOM     17  C   UNL A   1     -31.477   0.690  24.363  0.00  0.00    +0.000 A 
ATOM     18  C   UNL A   1     -30.277   0.899  24.968  0.00  0.00    +0.005 A 
ENDBRANCH  11  13
ENDBRANCH   2  10
BRANCH   1  19
ATOM     19  C   UNL A   1     -28.016  -0.814  28.878  0.00  0.00    +0.062 C 
BRANCH  19  20
ATOM     20  C   UNL A   1     -28.694  -0.473  30.159  0.00  0.00    +0.138 C 
ATOM     21  N   UNL A   1     -28.646   0.579  30.635  0.00  0.00    -0.181 NA
ATOM     22  N   UNL A   1     -29.700  -1.394  30.578  0.00  0.00    -0.258 NA
ATOM     23  C   UNL A   1     -29.352   0.967  31.818  0.00  0.00    +0.178 C 
ATOM     24  C   UNL A   1     -30.449  -1.107  31.702  0.00  0.00    +0.077 C 
ATOM     25  C   UNL A   1     -30.246   0.146  32.322  0.00  0.00    +0.060 C 
BRANCH  23  26
ATOM     26  N   UNL A   1     -29.104   2.235  32.370  0.00  0.00    -0.251 NA
ATOM     27  C   UNL A   1     -29.009   3.290  31.757  0.00  0.00    +0.115 C 
ENDBRANCH  23  26
BRANCH  22  28
ATOM     28  C   UNL A   1     -29.879  -2.613  30.048  0.00  0.00    +0.101 C 
BRANCH  28  29
ATOM     29  C   UNL A   1     -31.229  -3.129  29.944  0.00  0.00    +0.178 C 
BRANCH  29  30
ATOM     30  C   UNL A   1     -31.786  -2.905  28.763  0.00  0.00    +0.380 C 
ATOM     31  O   UNL A   1     -32.856  -2.784  28.726  0.00  0.00    -0.244 OA
ATOM     32  O   UNL A   1     -31.131  -2.255  27.852  0.00  0.00    -0.244 OA
ENDBRANCH  29  30
BRANCH  29  33
ATOM     33  N   UNL A   1     -31.059  -4.607  30.169  0.00  0.00    -0.261 NA
ATOM     34  C   UNL A   1     -30.527  -5.182  31.175  0.00  0.00    +0.090 C 
ATOM     35  C   UNL A   1     -31.501  -5.463  29.142  0.00  0.00    +0.090 C 
ENDBRANCH  29  33
ENDBRANCH  28  29
ENDBRANCH  22  28
ENDBRANCH  19  20
ENDBRANCH   1  19
TORSDOF 10
