REMARK  Name = No_2026-gen_results/8p0m/2024-11-26-14-13-15/
REMARK  5 active torsions:
REMARK  status: ('A' for Active; 'I' for Inactive)
REMARK    1  A    between atoms: C_5  and  C_8
REMARK    2  A    between atoms: C_16  and  C_17
REMARK    3  A    between atoms: C_17  and  C_19
REMARK    4  A    between atoms: C_21  and  C_22
REMARK    5  A    between atoms: C_23  and  C_24
REMARK                            x       y       z     vdW  Elec       q    Type
REMARK                         _______ _______ _______ _____ _____    ______ ____
ROOT
ATOM      1  O   UNL A   1     -28.123  -1.335  28.487  0.00  0.00    -0.475 OA
ATOM      2  C   UNL A   1     -27.064  -0.824  28.869  0.00  0.00    +0.135 A 
ATOM      3  C   UNL A   1     -26.050  -0.936  28.758  0.00  0.00    +0.037 A 
ATOM      4  C   UNL A   1     -24.997   0.038  28.640  0.00  0.00    +0.010 A 
ATOM      5  C   UNL A   1     -25.280   1.314  29.157  0.00  0.00    +0.080 A 
ATOM      6  C   UNL A   1     -26.601   1.519  29.460  0.00  0.00    +0.005 A 
ATOM      7  C   UNL A   1     -27.465   0.520  29.327  0.00  0.00    +0.015 A 
ATOM      8  C   UNL A   1     -29.257  -1.168  29.238  0.00  0.00    +0.209 C 
ATOM      9  C   UNL A   1     -28.977   0.165  29.726  0.00  0.00    +0.062 C 
ATOM     10  C   UNL A   1     -29.857   1.330  29.176  0.00  0.00    +0.008 C 
ATOM     11  C   UNL A   1     -28.995   0.262  31.331  0.00  0.00    +0.008 C 
ATOM     12  C   UNL A   1     -30.558   1.891  29.761  0.00  0.00    +0.001 C 
ATOM     13  C   UNL A   1     -29.999   0.918  31.960  0.00  0.00    +0.004 C 
ATOM     14  C   UNL A   1     -30.721   1.868  31.211  0.00  0.00    +0.000 C 
ENDROOT
BRANCH   5  15
ATOM     15  C   UNL A   1     -24.219   2.299  29.239  0.00  0.00    +0.388 C 
ATOM     16  O   UNL A   1     -23.086   2.052  28.882  0.00  0.00    -0.241 OA
ATOM     17  O   UNL A   1     -24.561   3.404  29.885  0.00  0.00    -0.241 OA
ENDBRANCH   5  15
BRANCH  13  18
ATOM     18  C   UNL A   1     -30.045   0.917  33.379  0.00  0.00    +0.022 C 
ATOM     19  C   UNL A   1     -30.563  -0.265  33.988  0.00  0.00    +0.005 C 
BRANCH  18  20
ATOM     20  C   UNL A   1     -29.558   1.920  34.057  0.00  0.00    -0.026 C 
ATOM     21  C   UNL A   1     -29.008   3.011  33.732  0.00  0.00    -0.005 C 
BRANCH  21  22
ATOM     22  C   UNL A   1     -28.341   3.806  34.036  0.00  0.00    -0.000 C 
ATOM     23  C   UNL A   1     -27.686   4.964  33.307  0.00  0.00    -0.000 C 
BRANCH  23  24
ATOM     24  C   UNL A   1     -27.945   4.983  31.952  0.00  0.00    -0.000 C 
ATOM     25  C   UNL A   1     -28.691   3.981  31.416  0.00  0.00    -0.000 C 
ENDBRANCH  23  24
ENDBRANCH  21  22
ENDBRANCH  18  20
ENDBRANCH  13  18
TORSDOF 5
