MODEL 2026
MODEL 1
REMARK VINA RESULT:    -7.276      0.000      0.000
REMARK INTER + INTRA:         -10.264
REMARK INTER:                  -9.402
REMARK INTRA:                  -0.861
REMARK UNBOUND:                -0.861
REMARK  Name = No_2026-gen_results/8p0m/2024-11-26-14-13-15/
REMARK  5 active torsions:
REMARK  status: ('A' for Active; 'I' for Inactive)
REMARK    1  A    between atoms: C_5  and  C_8
REMARK    2  A    between atoms: C_16  and  C_17
REMARK    3  A    between atoms: C_17  and  C_19
REMARK    4  A    between atoms: C_21  and  C_22
REMARK    5  A    between atoms: C_23  and  C_24
REMARK                            x       y       z     vdW  Elec       q    Type
REMARK                         _______ _______ _______ _____ _____    ______ ____
ROOT
ATOM      1  O   UNL A   1     -24.051  -2.387  30.171  0.00  0.00    -0.475 OA
ATOM      2  C   UNL A   1     -24.782  -1.555  30.720  0.00  0.00    +0.135 A 
ATOM      3  C   UNL A   1     -25.525  -1.504  31.425  0.00  0.00    +0.037 A 
ATOM      4  C   UNL A   1     -25.791  -0.530  32.451  0.00  0.00    +0.010 A 
ATOM      5  C   UNL A   1     -25.247   0.749  32.240  0.00  0.00    +0.080 A 
ATOM      6  C   UNL A   1     -24.329   0.810  31.224  0.00  0.00    +0.005 A 
ATOM      7  C   UNL A   1     -24.090  -0.272  30.492  0.00  0.00    +0.015 A 
ATOM      8  C   UNL A   1     -23.509  -2.099  28.945  0.00  0.00    +0.209 C 
ATOM      9  C   UNL A   1     -23.338  -0.675  29.134  0.00  0.00    +0.062 C 
ATOM     10  C   UNL A   1     -21.880  -0.138  29.269  0.00  0.00    +0.008 C 
ATOM     11  C   UNL A   1     -24.072   0.201  28.003  0.00  0.00    +0.008 C 
ATOM     12  C   UNL A   1     -21.392   0.487  28.548  0.00  0.00    +0.001 C 
ATOM     13  C   UNL A   1     -23.340   0.867  27.079  0.00  0.00    +0.004 C 
ATOM     14  C   UNL A   1     -21.999   1.155  27.401  0.00  0.00    +0.000 C 
ENDROOT
BRANCH   5  15
ATOM     15  C   UNL A   1     -25.612   1.833  33.131  0.00  0.00    +0.388 C 
ATOM     16  O   UNL A   1     -25.221   2.968  32.954  0.00  0.00    -0.241 OA
ATOM     17  O   UNL A   1     -26.253   1.439  34.222  0.00  0.00    -0.241 OA
ENDBRANCH   5  15
BRANCH  13  18
ATOM     18  C   UNL A   1     -24.007   1.562  26.036  0.00  0.00    +0.022 C 
ATOM     19  C   UNL A   1     -23.709   2.953  25.919  0.00  0.00    +0.005 C 
BRANCH  18  20
ATOM     20  C   UNL A   1     -24.775   0.919  25.200  0.00  0.00    -0.026 C 
ATOM     21  C   UNL A   1     -26.019   0.698  25.148  0.00  0.00    -0.005 C 
BRANCH  21  22
ATOM     22  C   UNL A   1     -26.801   0.051  24.776  0.00  0.00    -0.000 C 
ATOM     23  C   UNL A   1     -28.007   0.267  23.880  0.00  0.00    -0.000 C 
BRANCH  23  24
ATOM     24  C   UNL A   1     -28.185   1.581  23.499  0.00  0.00    -0.000 C 
ATOM     25  C   UNL A   1     -29.100   2.335  24.164  0.00  0.00    -0.000 C 
ENDBRANCH  23  24
ENDBRANCH  21  22
ENDBRANCH  18  20
ENDBRANCH  13  18
TORSDOF 5
ENDMDL
ENDMDL
