REMARK  Name = No_2027-gen_results/8p0m/2024-11-26-14-13-15/
REMARK  3 active torsions:
REMARK  status: ('A' for Active; 'I' for Inactive)
REMARK    1  A    between atoms: N_1  and  C_10
REMARK    2  A    between atoms: C_2  and  C_3
REMARK    3  A    between atoms: C_3  and  C_4
REMARK                            x       y       z     vdW  Elec       q    Type
REMARK                         _______ _______ _______ _____ _____    ______ ____
ROOT
ATOM      1  C   UNL A   1     -30.004  -0.725  29.678  0.00  0.00    +0.073 C 
ENDROOT
BRANCH   1   2
ATOM      2  C   UNL A   1     -30.676  -1.188  28.779  0.00  0.00    -0.016 A 
ATOM      3  C   UNL A   1     -32.073  -1.421  28.972  0.00  0.00    -0.004 A 
ATOM      4  C   UNL A   1     -32.859  -1.979  27.898  0.00  0.00    -0.000 A 
ATOM      5  C   UNL A   1     -32.218  -2.132  26.613  0.00  0.00    -0.000 A 
ATOM      6  C   UNL A   1     -30.967  -1.605  26.395  0.00  0.00    -0.000 A 
ATOM      7  C   UNL A   1     -30.213  -1.119  27.453  0.00  0.00    -0.004 A 
ENDBRANCH   1   2
BRANCH   1   9
ATOM      8  N   UNL A   1     -28.054  -1.050  28.725  0.00  0.00    -0.247 NA
ATOM      9  C   UNL A   1     -28.654  -0.567  29.508  0.00  0.00    +0.077 C 
BRANCH   8  10
ATOM     10  C   UNL A   1     -26.603  -0.861  28.573  0.00  0.00    +0.094 C 
ATOM     11  C   UNL A   1     -25.836  -1.026  27.570  0.00  0.00    -0.005 C 
ATOM     12  C   UNL A   1     -24.397  -0.728  27.656  0.00  0.00    +0.032 C 
ENDBRANCH   8  10
ENDBRANCH   1   9
TORSDOF 3
