MODEL 2027
MODEL 1
REMARK VINA RESULT:    -5.645      0.000      0.000
REMARK INTER + INTRA:          -6.727
REMARK INTER:                  -6.635
REMARK INTRA:                  -0.092
REMARK UNBOUND:                -0.092
REMARK  Name = No_2027-gen_results/8p0m/2024-11-26-14-13-15/
REMARK  3 active torsions:
REMARK  status: ('A' for Active; 'I' for Inactive)
REMARK    1  A    between atoms: N_1  and  C_10
REMARK    2  A    between atoms: C_2  and  C_3
REMARK    3  A    between atoms: C_3  and  C_4
REMARK                            x       y       z     vdW  Elec       q    Type
REMARK                         _______ _______ _______ _____ _____    ______ ____
ROOT
ATOM      1  C   UNL A   1     -22.901  -0.035  28.916  0.00  0.00    +0.073 C 
ENDROOT
BRANCH   1   2
ATOM      2  C   UNL A   1     -23.103   0.642  27.928  0.00  0.00    -0.016 A 
ATOM      3  C   UNL A   1     -22.050   1.430  27.369  0.00  0.00    -0.004 A 
ATOM      4  C   UNL A   1     -22.304   2.235  26.199  0.00  0.00    -0.000 A 
ATOM      5  C   UNL A   1     -23.586   2.084  25.552  0.00  0.00    -0.000 A 
ATOM      6  C   UNL A   1     -24.448   1.086  25.944  0.00  0.00    -0.000 A 
ATOM      7  C   UNL A   1     -24.204   0.359  27.100  0.00  0.00    -0.004 A 
ENDBRANCH   1   2
BRANCH   1   9
ATOM      8  N   UNL A   1     -23.233  -2.203  28.983  0.00  0.00    -0.247 NA
ATOM      9  C   UNL A   1     -23.620  -1.184  29.114  0.00  0.00    +0.077 C 
BRANCH   8  10
ATOM     10  C   UNL A   1     -24.035  -3.417  29.201  0.00  0.00    +0.094 C 
ATOM     11  C   UNL A   1     -24.062  -4.527  28.577  0.00  0.00    -0.005 C 
ATOM     12  C   UNL A   1     -24.939  -5.625  29.017  0.00  0.00    +0.032 C 
ENDBRANCH   8  10
ENDBRANCH   1   9
TORSDOF 3
ENDMDL
ENDMDL
