REMARK  Name = No_2028-gen_results/8p0m/2024-11-26-14-13-15/
REMARK  2 active torsions:
REMARK  status: ('A' for Active; 'I' for Inactive)
REMARK    1  A    between atoms: C_2  and  C_11
REMARK    2  A    between atoms: C_3  and  C_4
REMARK                            x       y       z     vdW  Elec       q    Type
REMARK                         _______ _______ _______ _____ _____    ______ ____
ROOT
ATOM      1  C   UNL A   1     -28.016  -0.814  28.878  0.00  0.00    +0.008 A 
ATOM      2  C   UNL A   1     -28.469  -0.785  29.829  0.00  0.00    +0.071 A 
ATOM      3  C   UNL A   1     -27.087   0.290  28.638  0.00  0.00    +0.071 A 
ATOM      4  C   UNL A   1     -28.391   0.104  30.980  0.00  0.00    +0.004 A 
ATOM      5  C   UNL A   1     -27.533   1.167  30.787  0.00  0.00    -0.000 A 
ATOM      6  C   UNL A   1     -26.828   1.256  29.645  0.00  0.00    +0.004 A 
ENDROOT
BRANCH   3   7
ATOM      7  C   UNL A   1     -26.252   0.411  27.422  0.00  0.00    +0.419 C 
ATOM      8  F   UNL A   1     -26.290  -0.321  26.701  0.00  0.00    -0.166 F 
ATOM      9  F   UNL A   1     -24.907   0.630  27.850  0.00  0.00    -0.166 F 
ATOM     10  F   UNL A   1     -26.525   1.700  26.805  0.00  0.00    -0.166 F 
ENDBRANCH   3   7
BRANCH   2  11
ATOM     11  C   UNL A   1     -29.461  -2.018  30.213  0.00  0.00    +0.419 C 
ATOM     12  F   UNL A   1     -28.994  -3.201  30.159  0.00  0.00    -0.166 F 
ATOM     13  F   UNL A   1     -29.878  -1.902  31.512  0.00  0.00    -0.166 F 
ATOM     14  F   UNL A   1     -30.517  -1.967  29.432  0.00  0.00    -0.166 F 
ENDBRANCH   2  11
TORSDOF 2
