MODEL 2028
MODEL 1
REMARK VINA RESULT:    -5.906      0.000      0.000
REMARK INTER + INTRA:          -7.031
REMARK INTER:                  -6.597
REMARK INTRA:                  -0.434
REMARK UNBOUND:                -0.434
REMARK  Name = No_2028-gen_results/8p0m/2024-11-26-14-13-15/
REMARK  2 active torsions:
REMARK  status: ('A' for Active; 'I' for Inactive)
REMARK    1  A    between atoms: C_2  and  C_11
REMARK    2  A    between atoms: C_3  and  C_4
REMARK                            x       y       z     vdW  Elec       q    Type
REMARK                         _______ _______ _______ _____ _____    ______ ____
ROOT
ATOM      1  C   UNL A   1     -23.715   0.298  27.666  0.00  0.00    +0.008 A 
ATOM      2  C   UNL A   1     -23.196  -0.316  28.347  0.00  0.00    +0.071 A 
ATOM      3  C   UNL A   1     -22.892   1.361  27.090  0.00  0.00    +0.071 A 
ATOM      4  C   UNL A   1     -21.834  -0.361  28.861  0.00  0.00    +0.004 A 
ATOM      5  C   UNL A   1     -21.028   0.636  28.351  0.00  0.00    -0.000 A 
ATOM      6  C   UNL A   1     -21.517   1.480  27.424  0.00  0.00    +0.004 A 
ENDROOT
BRANCH   3   7
ATOM      7  C   UNL A   1     -23.364   2.285  26.035  0.00  0.00    +0.419 C 
ATOM      8  F   UNL A   1     -23.707   3.220  26.290  0.00  0.00    -0.166 F 
ATOM      9  F   UNL A   1     -24.336   1.583  25.259  0.00  0.00    -0.166 F 
ATOM     10  F   UNL A   1     -22.310   2.421  25.040  0.00  0.00    -0.166 F 
ENDBRANCH   3   7
BRANCH   2  11
ATOM     11  C   UNL A   1     -24.013  -1.574  28.979  0.00  0.00    +0.419 C 
ATOM     12  F   UNL A   1     -24.436  -1.473  30.175  0.00  0.00    -0.166 F 
ATOM     13  F   UNL A   1     -25.154  -1.806  28.259  0.00  0.00    -0.166 F 
ATOM     14  F   UNL A   1     -23.254  -2.645  28.911  0.00  0.00    -0.166 F 
ENDBRANCH   2  11
TORSDOF 2
ENDMDL
ENDMDL
