MODEL 2029
MODEL 1
REMARK VINA RESULT:    -4.937      0.000      0.000
REMARK INTER + INTRA:          -5.261
REMARK INTER:                  -5.226
REMARK INTRA:                  -0.035
REMARK UNBOUND:                -0.035
REMARK  Name = No_2029-gen_results/8p0m/2024-11-26-14-13-15/
REMARK  1 active torsions:
REMARK  status: ('A' for Active; 'I' for Inactive)
REMARK    1  A    between atoms: C_2  and  C_7
REMARK                            x       y       z     vdW  Elec       q    Type
REMARK                         _______ _______ _______ _____ _____    ______ ____
ROOT
ATOM      1  C   UNL A   1     -25.688  -2.525  29.512  0.00  0.00    -0.000 A 
ATOM      2  C   UNL A   1     -24.554  -2.599  29.099  0.00  0.00    -0.000 A 
ATOM      3  C   UNL A   1     -23.971  -3.829  28.815  0.00  0.00    -0.000 A 
ATOM      4  C   UNL A   1     -24.685  -5.058  29.048  0.00  0.00    -0.000 A 
ATOM      5  C   UNL A   1     -25.981  -4.882  29.549  0.00  0.00    -0.000 A 
ATOM      6  C   UNL A   1     -26.479  -3.696  29.817  0.00  0.00    -0.000 A 
ENDROOT
BRANCH   2   7
ATOM      7  C   UNL A   1     -23.662  -1.439  28.826  0.00  0.00    -0.005 C 
ATOM      8  C   UNL A   1     -22.867  -0.940  29.705  0.00  0.00    -0.026 C 
ATOM      9  C   UNL A   1     -23.278  -1.043  31.169  0.00  0.00    +0.031 C 
ENDBRANCH   2   7
TORSDOF 1
ENDMDL
ENDMDL
