REMARK  Name = No_203-gen_results/8p0m/2024-11-26-14-13-15/
REMARK  11 active torsions:
REMARK  status: ('A' for Active; 'I' for Inactive)
REMARK    1  A    between atoms: C_2  and  C_22
REMARK    2  A    between atoms: C_3  and  C_7
REMARK    3  A    between atoms: C_7  and  C_8
REMARK    4  A    between atoms: C_7  and  C_18
REMARK    5  A    between atoms: C_8  and  C_9
REMARK    6  A    between atoms: C_13  and  C_15
REMARK    7  A    between atoms: C_22  and  O_24
REMARK    8  A    between atoms: O_24  and  C_25
REMARK    9  A    between atoms: C_25  and  C_26
REMARK   10  A    between atoms: C_26  and  O_27
REMARK   11  A    between atoms: O_27  and  C_28
REMARK                            x       y       z     vdW  Elec       q    Type
REMARK                         _______ _______ _______ _____ _____    ______ ____
ROOT
ATOM      1  C   UNL A   1     -28.016  -0.814  28.878  0.00  0.00    +0.003 A 
ATOM      2  C   UNL A   1     -28.469  -0.785  29.829  0.00  0.00    +0.075 A 
ATOM      3  C   UNL A   1     -28.182   0.428  28.113  0.00  0.00    -0.011 A 
ATOM      4  C   UNL A   1     -28.984   1.415  28.515  0.00  0.00    -0.004 A 
ATOM      5  C   UNL A   1     -29.380   0.138  30.461  0.00  0.00    +0.006 A 
ATOM      6  C   UNL A   1     -29.541   1.274  29.724  0.00  0.00    -0.000 A 
ENDROOT
BRANCH   2   7
ATOM      7  C   UNL A   1     -28.288  -2.097  30.800  0.00  0.00    +0.341 C 
ATOM      8  O   UNL A   1     -27.206  -2.490  30.915  0.00  0.00    -0.245 OA
BRANCH   7   9
ATOM      9  O   UNL A   1     -29.376  -2.788  31.069  0.00  0.00    -0.441 OA
BRANCH   9  10
ATOM     10  C   UNL A   1     -29.297  -4.132  31.110  0.00  0.00    +0.256 C 
BRANCH  10  11
ATOM     11  C   UNL A   1     -29.537  -4.686  29.754  0.00  0.00    +0.253 C 
BRANCH  11  12
ATOM     12  O   UNL A   1     -30.591  -5.497  29.715  0.00  0.00    -0.471 OA
BRANCH  12  13
ATOM     13  C   UNL A   1     -31.175  -5.618  28.478  0.00  0.00    +0.139 A 
ATOM     14  C   UNL A   1     -31.689  -6.303  27.900  0.00  0.00    +0.037 A 
ATOM     15  C   UNL A   1     -32.224  -6.227  26.542  0.00  0.00    +0.003 A 
ATOM     16  C   UNL A   1     -32.339  -4.939  26.033  0.00  0.00    +0.000 A 
ATOM     17  C   UNL A   1     -31.868  -3.893  26.766  0.00  0.00    +0.003 A 
ATOM     18  C   UNL A   1     -31.296  -4.087  28.044  0.00  0.00    +0.037 A 
ENDBRANCH  12  13
ENDBRANCH  11  12
ENDBRANCH  10  11
ENDBRANCH   9  10
ENDBRANCH   7   9
ENDBRANCH   2   7
BRANCH   3  19
ATOM     19  C   UNL A   1     -27.459   0.493  26.770  0.00  0.00    +0.130 C 
BRANCH  19  20
ATOM     20  C   UNL A   1     -28.227   0.704  25.657  0.00  0.00    +0.369 C 
ATOM     21  O   UNL A   1     -28.733   1.632  25.337  0.00  0.00    -0.245 OA
ATOM     22  O   UNL A   1     -28.229  -0.359  24.789  0.00  0.00    -0.245 OA
ENDBRANCH  19  20
BRANCH  19  23
ATOM     23  C   UNL A   1     -26.026   0.384  26.762  0.00  0.00    +0.042 C 
BRANCH  23  24
ATOM     24  C   UNL A   1     -25.226   1.351  27.372  0.00  0.00    -0.020 A 
ATOM     25  C   UNL A   1     -23.824   1.131  27.477  0.00  0.00    +0.007 A 
ATOM     26  C   UNL A   1     -23.149   1.383  28.570  0.00  0.00    +0.058 A 
ATOM     27  C   UNL A   1     -23.735   2.015  29.643  0.00  0.00    +0.018 A 
ATOM     28  C   UNL A   1     -25.126   2.218  29.640  0.00  0.00    +0.080 A 
ATOM     29  C   UNL A   1     -25.841   1.737  28.598  0.00  0.00    +0.002 A 
ATOM     30 CL   UNL A   1     -21.405   1.247  28.476  0.00  0.00    -0.082 Cl
BRANCH  28  31
ATOM     31  C   UNL A   1     -25.754   2.809  30.877  0.00  0.00    +0.388 C 
ATOM     32  O   UNL A   1     -25.262   3.831  31.260  0.00  0.00    -0.241 OA
ATOM     33  O   UNL A   1     -26.887   2.318  31.267  0.00  0.00    -0.241 OA
ENDBRANCH  28  31
ENDBRANCH  23  24
ENDBRANCH  19  23
ENDBRANCH   3  19
TORSDOF 11
