REMARK  Name = No_2030-gen_results/8p0m/2024-11-26-14-13-15/
REMARK  1 active torsions:
REMARK  status: ('A' for Active; 'I' for Inactive)
REMARK    1  A    between atoms: C_1  and  N_8
REMARK                            x       y       z     vdW  Elec       q    Type
REMARK                         _______ _______ _______ _____ _____    ______ ____
ROOT
ATOM      1  C   UNL A   1     -28.016  -0.814  28.878  0.00  0.00    +0.077 A 
ATOM      2  C   UNL A   1     -27.064  -0.119  28.608  0.00  0.00    +0.015 A 
ATOM      3  C   UNL A   1     -26.972   0.714  27.506  0.00  0.00    +0.004 A 
ATOM      4  C   UNL A   1     -25.820   1.491  27.116  0.00  0.00    +0.029 A 
ATOM      5  C   UNL A   1     -24.656   1.424  27.918  0.00  0.00    +0.140 A 
ATOM      6  C   UNL A   1     -24.711   0.542  29.051  0.00  0.00    +0.058 A 
ATOM      7  C   UNL A   1     -25.804  -0.206  29.388  0.00  0.00    +0.005 A 
ATOM      8  C   UNL A   1     -27.846  -2.045  29.759  0.00  0.00    +0.017 A 
ATOM      9  F   UNL A   1     -23.612   2.104  27.653  0.00  0.00    -0.204 F 
ATOM     10  C   UNL A   1     -26.617  -2.702  29.905  0.00  0.00    +0.003 A 
ATOM     11  C   UNL A   1     -25.497  -1.700  29.801  0.00  0.00    +0.019 A 
ATOM     12  C   UNL A   1     -24.140  -2.023  30.167  0.00  0.00    +0.096 C 
ATOM     13  N   UNL A   1     -23.138  -1.501  30.248  0.00  0.00    -0.237 NA
ATOM     14  C   UNL A   1     -22.878  -0.229  29.929  0.00  0.00    +0.275 C 
ATOM     15  C   UNL A   1     -23.491   0.713  29.239  0.00  0.00    +0.279 C 
ATOM     16  N   UNL A   1     -22.819   1.922  29.143  0.00  0.00    -0.167 NA
ATOM     17  C   UNL A   1     -21.805   1.771  28.473  0.00  0.00    +0.274 C 
ATOM     18  O   UNL A   1     -21.191   2.612  27.756  0.00  0.00    -0.271 OA
ATOM     19  C   UNL A   1     -20.684   0.800  29.047  0.00  0.00    +0.231 C 
ATOM     20  O   UNL A   1     -21.354  -0.132  29.805  0.00  0.00    -0.321 OA
ATOM     21  F   UNL A   1     -23.773   0.518  30.380  0.00  0.00    -0.208 F 
ENDROOT
BRANCH   1  22
ATOM     22  N   UNL A   1     -29.208  -0.240  28.903  0.00  0.00    -0.139 NA
ATOM     23  C   UNL A   1     -30.334  -0.873  29.408  0.00  0.00    +0.467 C 
ATOM     24  O   UNL A   1     -31.442  -0.674  28.996  0.00  0.00    -0.220 OA
ATOM     25  O   UNL A   1     -30.260  -1.356  30.668  0.00  0.00    -0.220 OA
ENDBRANCH   1  22
TORSDOF 1
