MODEL 2030
MODEL 1
REMARK VINA RESULT:    -7.116      0.000      0.000
REMARK INTER + INTRA:          -7.751
REMARK INTER:                  -7.532
REMARK INTRA:                  -0.219
REMARK UNBOUND:                -0.219
REMARK  Name = No_2030-gen_results/8p0m/2024-11-26-14-13-15/
REMARK  1 active torsions:
REMARK  status: ('A' for Active; 'I' for Inactive)
REMARK    1  A    between atoms: C_1  and  N_8
REMARK                            x       y       z     vdW  Elec       q    Type
REMARK                         _______ _______ _______ _____ _____    ______ ____
ROOT
ATOM      1  C   UNL A   1     -17.482 -22.610   7.629  0.00  0.00    +0.077 A 
ATOM      2  C   UNL A   1     -18.674 -22.522   7.809  0.00  0.00    +0.015 A 
ATOM      3  C   UNL A   1     -19.533 -23.592   7.997  0.00  0.00    +0.004 A 
ATOM      4  C   UNL A   1     -20.968 -23.522   8.134  0.00  0.00    +0.029 A 
ATOM      5  C   UNL A   1     -21.591 -22.252   8.082  0.00  0.00    +0.140 A 
ATOM      6  C   UNL A   1     -20.728 -21.126   7.855  0.00  0.00    +0.058 A 
ATOM      7  C   UNL A   1     -19.373 -21.217   7.702  0.00  0.00    +0.005 A 
ATOM      8  C   UNL A   1     -16.724 -21.489   6.928  0.00  0.00    +0.017 A 
ATOM      9  F   UNL A   1     -22.849 -22.110   8.225  0.00  0.00    -0.204 F 
ATOM     10  C   UNL A   1     -17.353 -20.579   6.067  0.00  0.00    +0.003 A 
ATOM     11  C   UNL A   1     -18.767 -20.346   6.531  0.00  0.00    +0.019 A 
ATOM     12  C   UNL A   1     -19.580 -19.274   6.011  0.00  0.00    +0.096 C 
ATOM     13  N   UNL A   1     -20.606 -18.828   6.186  0.00  0.00    -0.237 NA
ATOM     14  C   UNL A   1     -21.531 -19.277   7.041  0.00  0.00    +0.275 C 
ATOM     15  C   UNL A   1     -21.726 -20.394   7.716  0.00  0.00    +0.279 C 
ATOM     16  N   UNL A   1     -22.874 -20.434   8.492  0.00  0.00    -0.167 NA
ATOM     17  C   UNL A   1     -23.858 -20.432   7.763  0.00  0.00    +0.274 C 
ATOM     18  O   UNL A   1     -25.005 -20.921   7.971  0.00  0.00    -0.271 OA
ATOM     19  C   UNL A   1     -24.100 -19.146   6.859  0.00  0.00    +0.231 C 
ATOM     20  O   UNL A   1     -22.850 -18.629   6.609  0.00  0.00    -0.321 OA
ATOM     21  F   UNL A   1     -21.002 -19.548   8.141  0.00  0.00    -0.208 F 
ENDROOT
BRANCH   1  22
ATOM     22  N   UNL A   1     -16.783 -23.339   8.483  0.00  0.00    -0.139 NA
ATOM     23  C   UNL A   1     -15.860 -22.788   9.359  0.00  0.00    +0.467 C 
ATOM     24  O   UNL A   1     -14.877 -23.365   9.730  0.00  0.00    -0.220 OA
ATOM     25  O   UNL A   1     -16.291 -21.795  10.168  0.00  0.00    -0.220 OA
ENDBRANCH   1  22
TORSDOF 1
ENDMDL
ENDMDL
