MODEL 2031
MODEL 1
REMARK VINA RESULT:    -4.352      0.000      0.000
REMARK INTER + INTRA:          -4.352
REMARK INTER:                  -4.352
REMARK INTRA:                   0.000
REMARK UNBOUND:                 0.000
REMARK  Name = No_2031-gen_results/8p0m/2024-11-26-14-13-15/
REMARK  0 active torsions:
REMARK  status: ('A' for Active; 'I' for Inactive)
REMARK                            x       y       z     vdW  Elec       q    Type
REMARK                         _______ _______ _______ _____ _____    ______ ____
ROOT
ATOM      1  C   UNL A   1     -24.906  -5.460  29.008  0.00  0.00    +0.000 A 
ATOM      2  C   UNL A   1     -24.172  -4.806  28.629  0.00  0.00    +0.000 A 
ATOM      3  C   UNL A   1     -26.059  -4.767  29.597  0.00  0.00    +0.000 A 
ATOM      4  C   UNL A   1     -26.078  -3.449  29.795  0.00  0.00    +0.000 A 
ATOM      5  C   UNL A   1     -23.967  -3.382  28.739  0.00  0.00    +0.000 A 
ATOM      6  C   UNL A   1     -25.037  -2.760  29.311  0.00  0.00    +0.000 A 
ENDROOT
TORSDOF 0
ENDMDL
ENDMDL
