REMARK  Name = No_2032-gen_results/8p0m/2024-11-26-14-13-15/
REMARK  0 active torsions:
REMARK  status: ('A' for Active; 'I' for Inactive)
REMARK                            x       y       z     vdW  Elec       q    Type
REMARK                         _______ _______ _______ _____ _____    ______ ____
ROOT
ATOM      1  C   UNL A   1     -28.016  -0.814  28.878  0.00  0.00    +0.011 A 
ATOM      2  C   UNL A   1     -28.469  -0.785  29.829  0.00  0.00    +0.001 A 
ATOM      3  C   UNL A   1     -27.136   0.236  28.535  0.00  0.00    +0.058 A 
ATOM      4  C   UNL A   1     -26.805   1.051  29.276  0.00  0.00    +0.011 A 
ATOM      5  C   UNL A   1     -27.316   1.149  30.605  0.00  0.00    +0.001 A 
ATOM      6  C   UNL A   1     -28.192   0.143  30.949  0.00  0.00    +0.000 A 
ATOM      7 CL   UNL A   1     -26.395   0.186  26.922  0.00  0.00    -0.082 Cl
ENDROOT
TORSDOF 0
