MODEL 2032
MODEL 1
REMARK VINA RESULT:    -4.559      0.000      0.000
REMARK INTER + INTRA:          -4.559
REMARK INTER:                  -4.559
REMARK INTRA:                   0.000
REMARK UNBOUND:                 0.000
REMARK  Name = No_2032-gen_results/8p0m/2024-11-26-14-13-15/
REMARK  0 active torsions:
REMARK  status: ('A' for Active; 'I' for Inactive)
REMARK                            x       y       z     vdW  Elec       q    Type
REMARK                         _______ _______ _______ _____ _____    ______ ____
ROOT
ATOM      1  C   UNL A   1      -9.380  -9.153  20.246  0.00  0.00    +0.011 A 
ATOM      2  C   UNL A   1     -10.195  -9.189  19.579  0.00  0.00    +0.001 A 
ATOM      3  C   UNL A   1      -8.226  -9.899  19.917  0.00  0.00    +0.058 A 
ATOM      4  C   UNL A   1      -8.091 -10.445  18.914  0.00  0.00    +0.011 A 
ATOM      5  C   UNL A   1      -9.112 -10.509  17.918  0.00  0.00    +0.001 A 
ATOM      6  C   UNL A   1     -10.252  -9.803  18.233  0.00  0.00    +0.000 A 
ATOM      7 CL   UNL A   1      -6.868  -9.846  21.059  0.00  0.00    -0.082 Cl
ENDROOT
TORSDOF 0
ENDMDL
ENDMDL
