MODEL 2033
MODEL 1
REMARK VINA RESULT:    -6.676      0.000      0.000
REMARK INTER + INTRA:          -8.848
REMARK INTER:                  -8.237
REMARK INTRA:                  -0.611
REMARK UNBOUND:                -0.611
REMARK  Name = No_2033-gen_results/8p0m/2024-11-26-14-13-15/
REMARK  4 active torsions:
REMARK  status: ('A' for Active; 'I' for Inactive)
REMARK    1  A    between atoms: C_1  and  C_3
REMARK    2  A    between atoms: C_2  and  C_9
REMARK    3  A    between atoms: C_9  and  C_10
REMARK    4  A    between atoms: C_10  and  C_11
REMARK                            x       y       z     vdW  Elec       q    Type
REMARK                         _______ _______ _______ _____ _____    ______ ____
ROOT
ATOM      1  C   UNL A   1     -24.239  -1.160  28.869  0.00  0.00    -0.064 C 
ATOM      2  C   UNL A   1     -23.916  -0.438  28.172  0.00  0.00    -0.080 C 
ENDROOT
BRANCH   1   3
ATOM      3  C   UNL A   1     -24.766  -2.468  29.007  0.00  0.00    +0.042 A 
ATOM      4  C   UNL A   1     -25.642  -3.033  29.729  0.00  0.00    +0.008 A 
ATOM      5  C   UNL A   1     -26.098  -4.485  29.581  0.00  0.00    +0.001 A 
ATOM      6  C   UNL A   1     -25.405  -5.161  29.306  0.00  0.00    +0.000 A 
ATOM      7  C   UNL A   1     -24.183  -4.931  28.572  0.00  0.00    +0.001 A 
ATOM      8  C   UNL A   1     -23.858  -3.567  28.541  0.00  0.00    +0.008 A 
ENDBRANCH   1   3
BRANCH   2   9
ATOM      9  C   UNL A   1     -23.536   0.720  27.906  0.00  0.00    +0.152 C 
BRANCH   9  10
ATOM     10  C   UNL A   1     -24.091   1.253  26.726  0.00  0.00    +0.361 C 
ATOM     11  F   UNL A   1     -24.347   0.193  25.828  0.00  0.00    -0.194 F 
ATOM     12  F   UNL A   1     -25.205   1.860  26.984  0.00  0.00    -0.194 F 
BRANCH  10  13
ATOM     13  C   UNL A   1     -23.307   2.100  26.038  0.00  0.00    +0.456 C 
ATOM     14  F   UNL A   1     -22.109   2.210  26.742  0.00  0.00    -0.165 F 
ATOM     15  F   UNL A   1     -23.712   3.455  25.965  0.00  0.00    -0.165 F 
ATOM     16  F   UNL A   1     -22.962   1.860  24.779  0.00  0.00    -0.165 F 
ENDBRANCH  10  13
ENDBRANCH   9  10
ENDBRANCH   2   9
TORSDOF 4
ENDMDL
ENDMDL
