REMARK  Name = No_2033-gen_results/8p0m/2024-11-26-14-13-15/
REMARK  4 active torsions:
REMARK  status: ('A' for Active; 'I' for Inactive)
REMARK    1  A    between atoms: C_1  and  C_3
REMARK    2  A    between atoms: C_2  and  C_9
REMARK    3  A    between atoms: C_9  and  C_10
REMARK    4  A    between atoms: C_10  and  C_11
REMARK                            x       y       z     vdW  Elec       q    Type
REMARK                         _______ _______ _______ _____ _____    ______ ____
ROOT
ATOM      1  C   UNL A   1     -28.016  -0.814  28.878  0.00  0.00    -0.064 C 
ATOM      2  C   UNL A   1     -28.469  -0.785  29.829  0.00  0.00    -0.080 C 
ENDROOT
BRANCH   1   3
ATOM      3  C   UNL A   1     -27.217  -0.083  27.964  0.00  0.00    +0.042 A 
ATOM      4  C   UNL A   1     -26.509  -0.350  26.946  0.00  0.00    +0.008 A 
ATOM      5  C   UNL A   1     -25.822   0.687  26.058  0.00  0.00    +0.001 A 
ATOM      6  C   UNL A   1     -25.464   1.514  26.506  0.00  0.00    +0.000 A 
ATOM      7  C   UNL A   1     -25.899   2.111  27.747  0.00  0.00    +0.001 A 
ATOM      8  C   UNL A   1     -26.696   1.223  28.485  0.00  0.00    +0.008 A 
ENDBRANCH   1   3
BRANCH   2   9
ATOM      9  C   UNL A   1     -29.231  -1.279  30.684  0.00  0.00    +0.152 C 
BRANCH   9  10
ATOM     10  C   UNL A   1     -29.683  -2.577  30.374  0.00  0.00    +0.361 C 
ATOM     11  F   UNL A   1     -30.446  -3.061  31.460  0.00  0.00    -0.194 F 
ATOM     12  F   UNL A   1     -30.428  -2.556  29.316  0.00  0.00    -0.194 F 
BRANCH  10  13
ATOM     13  C   UNL A   1     -28.727  -3.503  30.189  0.00  0.00    +0.456 C 
ATOM     14  F   UNL A   1     -29.370  -4.689  29.839  0.00  0.00    -0.165 F 
ATOM     15  F   UNL A   1     -27.983  -3.913  31.321  0.00  0.00    -0.165 F 
ATOM     16  F   UNL A   1     -27.766  -3.338  29.288  0.00  0.00    -0.165 F 
ENDBRANCH  10  13
ENDBRANCH   9  10
ENDBRANCH   2   9
TORSDOF 4
