REMARK  Name = No_2034-gen_results/8p0m/2024-11-26-14-13-15/
REMARK  2 active torsions:
REMARK  status: ('A' for Active; 'I' for Inactive)
REMARK    1  A    between atoms: C_2  and  C_10
REMARK    2  A    between atoms: C_6  and  C_7
REMARK                            x       y       z     vdW  Elec       q    Type
REMARK                         _______ _______ _______ _____ _____    ______ ____
ROOT
ATOM      1  C   UNL A   1     -28.016  -0.814  28.878  0.00  0.00    +0.010 A 
ATOM      2  C   UNL A   1     -27.064  -0.119  28.608  0.00  0.00    +0.072 A 
ATOM      3  C   UNL A   1     -25.792  -0.430  29.076  0.00  0.00    +0.004 A 
ATOM      4  C   UNL A   1     -25.576  -1.565  29.936  0.00  0.00    +0.000 A 
ATOM      5  C   UNL A   1     -26.735  -2.300  30.217  0.00  0.00    +0.007 A 
ATOM      6  C   UNL A   1     -27.918  -1.954  29.763  0.00  0.00    +0.080 A 
ENDROOT
BRANCH   2   7
ATOM      7  C   UNL A   1     -27.086   1.108  27.748  0.00  0.00    +0.419 C 
ATOM      8  F   UNL A   1     -26.391   1.173  26.887  0.00  0.00    -0.166 F 
ATOM      9  F   UNL A   1     -28.384   1.150  27.219  0.00  0.00    -0.166 F 
ATOM     10  F   UNL A   1     -27.058   2.202  28.527  0.00  0.00    -0.166 F 
ENDBRANCH   2   7
BRANCH   6  11
ATOM     11  C   UNL A   1     -29.073  -2.784  30.178  0.00  0.00    +0.388 C 
ATOM     12  O   UNL A   1     -29.322  -2.795  31.389  0.00  0.00    -0.241 OA
ATOM     13  O   UNL A   1     -29.615  -3.600  29.375  0.00  0.00    -0.241 OA
ENDBRANCH   6  11
TORSDOF 2
