MODEL 2034
MODEL 1
REMARK VINA RESULT:    -6.053      0.000      0.000
REMARK INTER + INTRA:          -7.008
REMARK INTER:                  -6.761
REMARK INTRA:                  -0.248
REMARK UNBOUND:                -0.248
REMARK  Name = No_2034-gen_results/8p0m/2024-11-26-14-13-15/
REMARK  2 active torsions:
REMARK  status: ('A' for Active; 'I' for Inactive)
REMARK    1  A    between atoms: C_2  and  C_10
REMARK    2  A    between atoms: C_6  and  C_7
REMARK                            x       y       z     vdW  Elec       q    Type
REMARK                         _______ _______ _______ _____ _____    ______ ____
ROOT
ATOM      1  C   UNL A   1     -28.338 -11.812  30.893  0.00  0.00    +0.010 A 
ATOM      2  C   UNL A   1     -29.157 -11.231  30.219  0.00  0.00    +0.072 A 
ATOM      3  C   UNL A   1     -29.925 -10.200  30.750  0.00  0.00    +0.004 A 
ATOM      4  C   UNL A   1     -29.802  -9.823  32.135  0.00  0.00    +0.000 A 
ATOM      5  C   UNL A   1     -28.849 -10.562  32.848  0.00  0.00    +0.007 A 
ATOM      6  C   UNL A   1     -28.160 -11.539  32.303  0.00  0.00    +0.080 A 
ENDROOT
BRANCH   2   7
ATOM      7  C   UNL A   1     -29.445 -11.487  28.771  0.00  0.00    +0.419 C 
ATOM      8  F   UNL A   1     -28.622 -11.826  28.111  0.00  0.00    -0.166 F 
ATOM      9  F   UNL A   1     -30.403 -12.511  28.774  0.00  0.00    -0.166 F 
ATOM     10  F   UNL A   1     -30.133 -10.452  28.261  0.00  0.00    -0.166 F 
ENDBRANCH   2   7
BRANCH   6  11
ATOM     11  C   UNL A   1     -27.223 -12.279  33.179  0.00  0.00    +0.388 C 
ATOM     12  O   UNL A   1     -26.410 -13.012  32.604  0.00  0.00    -0.241 OA
ATOM     13  O   UNL A   1     -27.400 -12.330  34.433  0.00  0.00    -0.241 OA
ENDBRANCH   6  11
TORSDOF 2
ENDMDL
ENDMDL
