REMARK  Name = No_2035-gen_results/8p0m/2024-11-26-14-13-15/
REMARK  3 active torsions:
REMARK  status: ('A' for Active; 'I' for Inactive)
REMARK    1  A    between atoms: C_3  and  C_7
REMARK    2  A    between atoms: C_7  and  C_9
REMARK    3  A    between atoms: C_9  and  C_10
REMARK                            x       y       z     vdW  Elec       q    Type
REMARK                         _______ _______ _______ _____ _____    ______ ____
ROOT
ATOM      1  C   UNL A   1     -28.016  -0.814  28.878  0.00  0.00    -0.003 A 
ATOM      2  C   UNL A   1     -28.469  -0.785  29.829  0.00  0.00    -0.000 A 
ATOM      3  C   UNL A   1     -28.182   0.428  28.113  0.00  0.00    -0.012 A 
ATOM      4  C   UNL A   1     -28.984   1.415  28.515  0.00  0.00    -0.003 A 
ATOM      5  C   UNL A   1     -29.380   0.138  30.461  0.00  0.00    -0.000 A 
ATOM      6  C   UNL A   1     -29.541   1.274  29.724  0.00  0.00    -0.000 A 
ENDROOT
BRANCH   3   7
ATOM      7  C   UNL A   1     -27.445   0.487  26.773  0.00  0.00    +0.081 C 
ATOM      8 BR   UNL A   1     -25.970   1.079  26.771  0.00  0.00    -0.077 Br
BRANCH   7   9
ATOM      9  C   UNL A   1     -28.096   0.222  25.538  0.00  0.00    +0.036 C 
BRANCH   9  10
ATOM     10  C   UNL A   1     -29.391  -0.182  25.523  0.00  0.00    +0.111 C 
ATOM     11  N   UNL A   1     -29.856  -0.516  24.240  0.00  0.00    -0.131 NA
ENDBRANCH   9  10
ENDBRANCH   7   9
ENDBRANCH   3   7
TORSDOF 3
