MODEL 2035
MODEL 1
REMARK VINA RESULT:    -5.257      0.000      0.000
REMARK INTER + INTRA:          -6.490
REMARK INTER:                  -6.179
REMARK INTRA:                  -0.311
REMARK UNBOUND:                -0.311
REMARK  Name = No_2035-gen_results/8p0m/2024-11-26-14-13-15/
REMARK  3 active torsions:
REMARK  status: ('A' for Active; 'I' for Inactive)
REMARK    1  A    between atoms: C_3  and  C_7
REMARK    2  A    between atoms: C_7  and  C_9
REMARK    3  A    between atoms: C_9  and  C_10
REMARK                            x       y       z     vdW  Elec       q    Type
REMARK                         _______ _______ _______ _____ _____    ______ ____
ROOT
ATOM      1  C   UNL A   1     -25.959  -3.059  29.683  0.00  0.00    -0.003 A 
ATOM      2  C   UNL A   1     -26.194  -4.086  29.695  0.00  0.00    -0.000 A 
ATOM      3  C   UNL A   1     -24.710  -2.752  28.976  0.00  0.00    -0.012 A 
ATOM      4  C   UNL A   1     -23.872  -3.702  28.558  0.00  0.00    -0.003 A 
ATOM      5  C   UNL A   1     -25.455  -5.272  29.336  0.00  0.00    -0.000 A 
ATOM      6  C   UNL A   1     -24.286  -4.967  28.703  0.00  0.00    -0.000 A 
ENDROOT
BRANCH   3   7
ATOM      7  C   UNL A   1     -24.379  -1.266  28.824  0.00  0.00    +0.081 C 
ATOM      8 BR   UNL A   1     -25.127  -0.460  27.676  0.00  0.00    -0.077 Br
BRANCH   7   9
ATOM      9  C   UNL A   1     -23.308  -0.652  29.527  0.00  0.00    +0.036 C 
BRANCH   9  10
ATOM     10  C   UNL A   1     -22.262  -0.120  28.847  0.00  0.00    +0.111 C 
ATOM     11  N   UNL A   1     -21.111  -0.924  28.876  0.00  0.00    -0.131 NA
ENDBRANCH   9  10
ENDBRANCH   7   9
ENDBRANCH   3   7
TORSDOF 3
ENDMDL
ENDMDL
