REMARK  Name = No_2036-gen_results/8p0m/2024-11-26-14-13-15/
REMARK  6 active torsions:
REMARK  status: ('A' for Active; 'I' for Inactive)
REMARK    1  A    between atoms: C_2  and  C_13
REMARK    2  A    between atoms: C_4  and  C_6
REMARK    3  A    between atoms: C_13  and  O_15
REMARK    4  A    between atoms: O_15  and  C_16
REMARK    5  A    between atoms: C_16  and  C_17
REMARK    6  A    between atoms: C_17  and  C_18
REMARK                            x       y       z     vdW  Elec       q    Type
REMARK                         _______ _______ _______ _____ _____    ______ ____
ROOT
ATOM      1  C   UNL A   1     -30.087  -0.770  29.852  0.00  0.00    +0.345 C 
ATOM      2  O   UNL A   1     -30.768  -1.582  30.304  0.00  0.00    -0.245 OA
ENDROOT
BRANCH   1   4
ATOM      3  C   UNL A   1     -28.016  -0.814  28.878  0.00  0.00    +0.006 A 
ATOM      4  C   UNL A   1     -28.469  -0.785  29.829  0.00  0.00    +0.076 A 
ATOM      5  C   UNL A   1     -26.504  -0.778  28.877  0.00  0.00    +0.000 A 
ATOM      6  C   UNL A   1     -25.810  -0.853  30.103  0.00  0.00    +0.000 A 
ATOM      7  C   UNL A   1     -27.991  -0.892  31.226  0.00  0.00    +0.006 A 
ATOM      8  C   UNL A   1     -26.575  -0.890  31.266  0.00  0.00    +0.000 A 
BRANCH   6   9
ATOM      9  C   UNL A   1     -24.398  -0.836  30.177  0.00  0.00    +0.000 A 
ATOM     10  C   UNL A   1     -23.771  -0.918  31.096  0.00  0.00    +0.000 A 
ATOM     11  C   UNL A   1     -22.302  -0.844  31.215  0.00  0.00    +0.000 A 
ATOM     12  C   UNL A   1     -21.683  -0.588  30.058  0.00  0.00    +0.000 A 
ATOM     13  C   UNL A   1     -23.638  -0.631  28.934  0.00  0.00    +0.000 A 
ATOM     14  C   UNL A   1     -22.346  -0.465  28.896  0.00  0.00    +0.000 A 
ENDBRANCH   6   9
ENDBRANCH   1   4
BRANCH   1  15
ATOM     15  O   UNL A   1     -30.595   0.234  29.204  0.00  0.00    -0.393 OA
BRANCH  15  16
ATOM     16  C   UNL A   1     -31.839   0.272  28.701  0.00  0.00    +0.477 C 
ATOM     17  F   UNL A   1     -32.128   1.656  28.852  0.00  0.00    -0.158 F 
ATOM     18  F   UNL A   1     -32.761  -0.138  29.630  0.00  0.00    -0.158 F 
BRANCH  16  19
ATOM     19  C   UNL A   1     -32.011  -0.127  27.439  0.00  0.00    +0.443 C 
ATOM     20  F   UNL A   1     -33.246   0.191  27.001  0.00  0.00    -0.185 F 
ATOM     21  F   UNL A   1     -31.944  -1.540  27.534  0.00  0.00    -0.185 F 
BRANCH  19  22
ATOM     22  C   UNL A   1     -31.041   0.276  26.491  0.00  0.00    +0.464 C 
ATOM     23  F   UNL A   1     -30.011   0.583  26.998  0.00  0.00    -0.165 F 
ATOM     24  F   UNL A   1     -30.816  -0.749  25.527  0.00  0.00    -0.165 F 
ATOM     25  F   UNL A   1     -31.742   1.001  25.477  0.00  0.00    -0.165 F 
ENDBRANCH  19  22
ENDBRANCH  16  19
ENDBRANCH  15  16
ENDBRANCH   1  15
TORSDOF 6
