REMARK  Name = No_2037-gen_results/8p0m/2024-11-26-14-13-15/
REMARK  2 active torsions:
REMARK  status: ('A' for Active; 'I' for Inactive)
REMARK    1  A    between atoms: C_2  and  C_7
REMARK    2  A    between atoms: C_7  and  C_8
REMARK                            x       y       z     vdW  Elec       q    Type
REMARK                         _______ _______ _______ _____ _____    ______ ____
ROOT
ATOM      1  C   UNL A   1     -25.891  -0.626  27.786  0.00  0.00    +0.045 C 
ATOM      2  C   UNL A   1     -25.783  -0.388  26.456  0.00  0.00    +0.009 C 
ENDROOT
BRANCH   1   4
ATOM      3  C   UNL A   1     -28.016  -0.814  28.878  0.00  0.00    +0.026 A 
ATOM      4  C   UNL A   1     -27.064  -0.119  28.608  0.00  0.00    -0.016 A 
ATOM      5  C   UNL A   1     -26.929   1.171  29.008  0.00  0.00    -0.004 A 
ATOM      6  C   UNL A   1     -27.956   1.741  29.784  0.00  0.00    +0.002 A 
ATOM      7  C   UNL A   1     -29.057  -0.327  29.747  0.00  0.00    +0.140 A 
ATOM      8  C   UNL A   1     -28.983   0.972  30.152  0.00  0.00    +0.030 A 
ATOM      9  F   UNL A   1     -30.046  -1.139  30.081  0.00  0.00    -0.204 F 
ENDBRANCH   1   4
BRANCH   1  10
ATOM     10  C   UNL A   1     -24.718  -1.061  28.613  0.00  0.00    -0.015 A 
ATOM     11  C   UNL A   1     -23.595  -0.283  28.812  0.00  0.00    +0.017 A 
ATOM     12  C   UNL A   1     -22.504  -0.806  29.551  0.00  0.00    +0.099 A 
ATOM     13  C   UNL A   1     -24.548  -2.431  28.936  0.00  0.00    +0.017 A 
ATOM     14  C   UNL A   1     -23.452  -2.920  29.572  0.00  0.00    +0.099 A 
ATOM     15  N   UNL A   1     -22.424  -2.048  29.865  0.00  0.00    -0.242 NA
ENDBRANCH   1  10
TORSDOF 2
