MODEL 2037
MODEL 1
REMARK VINA RESULT:    -6.667      0.000      0.000
REMARK INTER + INTRA:          -7.843
REMARK INTER:                  -7.446
REMARK INTRA:                  -0.397
REMARK UNBOUND:                -0.397
REMARK  Name = No_2037-gen_results/8p0m/2024-11-26-14-13-15/
REMARK  2 active torsions:
REMARK  status: ('A' for Active; 'I' for Inactive)
REMARK    1  A    between atoms: C_2  and  C_7
REMARK    2  A    between atoms: C_7  and  C_8
REMARK                            x       y       z     vdW  Elec       q    Type
REMARK                         _______ _______ _______ _____ _____    ______ ____
ROOT
ATOM      1  C   UNL A   1     -23.651  -0.963  30.313  0.00  0.00    +0.045 C 
ATOM      2  C   UNL A   1     -23.471  -0.699  31.630  0.00  0.00    +0.009 C 
ENDROOT
BRANCH   1   4
ATOM      3  C   UNL A   1     -23.736  -3.026  29.096  0.00  0.00    +0.026 A 
ATOM      4  C   UNL A   1     -24.303  -2.246  29.826  0.00  0.00    -0.016 A 
ATOM      5  C   UNL A   1     -25.565  -2.425  30.294  0.00  0.00    -0.004 A 
ATOM      6  C   UNL A   1     -26.261  -3.587  29.911  0.00  0.00    +0.002 A 
ATOM      7  C   UNL A   1     -24.352  -4.279  28.742  0.00  0.00    +0.140 A 
ATOM      8  C   UNL A   1     -25.630  -4.495  29.163  0.00  0.00    +0.030 A 
ATOM      9  F   UNL A   1     -23.673  -5.141  28.002  0.00  0.00    -0.204 F 
ENDBRANCH   1   4
BRANCH   1  10
ATOM     10  C   UNL A   1     -22.904  -0.222  29.245  0.00  0.00    -0.015 A 
ATOM     11  C   UNL A   1     -21.530  -0.250  29.116  0.00  0.00    +0.017 A 
ATOM     12  C   UNL A   1     -20.905   0.539  28.118  0.00  0.00    +0.099 A 
ATOM     13  C   UNL A   1     -23.539   0.829  28.535  0.00  0.00    +0.017 A 
ATOM     14  C   UNL A   1     -22.895   1.626  27.644  0.00  0.00    +0.099 A 
ATOM     15  N   UNL A   1     -21.540   1.444  27.465  0.00  0.00    -0.242 NA
ENDBRANCH   1  10
TORSDOF 2
ENDMDL
ENDMDL
