REMARK  Name = No_2038-gen_results/8p0m/2024-11-26-14-13-15/
REMARK  3 active torsions:
REMARK  status: ('A' for Active; 'I' for Inactive)
REMARK    1  A    between atoms: C_6  and  C_8
REMARK    2  A    between atoms: N_9  and  C_11
REMARK    3  A    between atoms: C_15  and  C_17
REMARK                            x       y       z     vdW  Elec       q    Type
REMARK                         _______ _______ _______ _____ _____    ______ ____
ROOT
ATOM      1  C   UNL A   1     -24.986  -3.067  29.200  0.00  0.00    +0.269 C 
ATOM      2  N   UNL A   1     -23.838  -2.439  29.078  0.00  0.00    -0.175 NA
ATOM      3  O   UNL A   1     -25.018  -4.330  29.079  0.00  0.00    -0.268 OA
ENDROOT
BRANCH   1   9
ATOM      4  C   UNL A   1     -28.016  -0.814  28.878  0.00  0.00    +0.058 A 
ATOM      5  C   UNL A   1     -28.469  -0.785  29.829  0.00  0.00    +0.011 A 
ATOM      6 CL   UNL A   1     -28.433   0.335  27.649  0.00  0.00    -0.082 Cl
ATOM      7  C   UNL A   1     -27.909  -1.547  30.929  0.00  0.00    +0.001 A 
ATOM      8  C   UNL A   1     -26.819  -2.436  30.685  0.00  0.00    +0.005 A 
ATOM      9  C   UNL A   1     -26.223  -2.320  29.437  0.00  0.00    +0.056 A 
ATOM     10  C   UNL A   1     -26.708  -1.395  28.589  0.00  0.00    +0.016 A 
ENDBRANCH   1   9
BRANCH   2  11
ATOM     11  C   UNL A   1     -23.516  -1.077  29.294  0.00  0.00    +0.074 A 
ATOM     12  C   UNL A   1     -22.286  -0.624  29.280  0.00  0.00    +0.017 A 
ATOM     13  C   UNL A   1     -22.049   0.799  29.008  0.00  0.00    +0.001 A 
ATOM     14  C   UNL A   1     -23.116   1.663  28.905  0.00  0.00    +0.004 A 
ATOM     15  C   UNL A   1     -24.388   1.113  28.845  0.00  0.00    +0.073 A 
ATOM     16  C   UNL A   1     -24.560  -0.199  28.993  0.00  0.00    +0.021 A 
BRANCH  15  17
ATOM     17  C   UNL A   1     -25.510   2.095  28.674  0.00  0.00    +0.419 C 
ATOM     18  F   UNL A   1     -26.517   2.018  28.631  0.00  0.00    -0.166 F 
ATOM     19  F   UNL A   1     -25.233   3.085  29.684  0.00  0.00    -0.166 F 
ATOM     20  F   UNL A   1     -25.047   2.605  27.527  0.00  0.00    -0.166 F 
ENDBRANCH  15  17
ENDBRANCH   2  11
TORSDOF 3
