MODEL 2038
MODEL 1
REMARK VINA RESULT:    -7.101      0.000      0.000
REMARK INTER + INTRA:          -9.086
REMARK INTER:                  -8.346
REMARK INTRA:                  -0.740
REMARK UNBOUND:                -0.740
REMARK  Name = No_2038-gen_results/8p0m/2024-11-26-14-13-15/
REMARK  3 active torsions:
REMARK  status: ('A' for Active; 'I' for Inactive)
REMARK    1  A    between atoms: C_6  and  C_8
REMARK    2  A    between atoms: N_9  and  C_11
REMARK    3  A    between atoms: C_15  and  C_17
REMARK                            x       y       z     vdW  Elec       q    Type
REMARK                         _______ _______ _______ _____ _____    ______ ____
ROOT
ATOM      1  C   UNL A   1     -23.269  -0.589  31.053  0.00  0.00    +0.269 C 
ATOM      2  N   UNL A   1     -23.205   0.558  30.414  0.00  0.00    -0.175 NA
ATOM      3  O   UNL A   1     -22.543  -0.769  32.078  0.00  0.00    -0.268 OA
ENDROOT
BRANCH   1   9
ATOM      4  C   UNL A   1     -24.675  -3.678  29.366  0.00  0.00    +0.058 A 
ATOM      5  C   UNL A   1     -25.717  -3.652  29.517  0.00  0.00    +0.011 A 
ATOM      6 CL   UNL A   1     -23.963  -4.736  28.193  0.00  0.00    -0.082 Cl
ATOM      7  C   UNL A   1     -26.320  -2.570  30.273  0.00  0.00    +0.001 A 
ATOM      8  C   UNL A   1     -25.482  -1.613  30.920  0.00  0.00    +0.005 A 
ATOM      9  C   UNL A   1     -24.140  -1.663  30.571  0.00  0.00    +0.056 A 
ATOM     10  C   UNL A   1     -23.756  -2.584  29.668  0.00  0.00    +0.016 A 
ENDBRANCH   1   9
BRANCH   2  11
ATOM     11  C   UNL A   1     -23.989   1.050  29.343  0.00  0.00    +0.074 A 
ATOM     12  C   UNL A   1     -25.133   1.665  29.520  0.00  0.00    +0.017 A 
ATOM     13  C   UNL A   1     -25.633   2.566  28.475  0.00  0.00    +0.001 A 
ATOM     14  C   UNL A   1     -24.969   2.653  27.272  0.00  0.00    +0.004 A 
ATOM     15  C   UNL A   1     -23.726   2.047  27.176  0.00  0.00    +0.073 A 
ATOM     16  C   UNL A   1     -23.254   1.318  28.186  0.00  0.00    +0.021 A 
BRANCH  15  17
ATOM     17  C   UNL A   1     -23.020   2.222  25.863  0.00  0.00    +0.419 C 
ATOM     18  F   UNL A   1     -22.051   2.230  25.576  0.00  0.00    -0.166 F 
ATOM     19  F   UNL A   1     -23.676   1.263  25.010  0.00  0.00    -0.166 F 
ATOM     20  F   UNL A   1     -23.583   3.403  25.583  0.00  0.00    -0.166 F 
ENDBRANCH  15  17
ENDBRANCH   2  11
TORSDOF 3
ENDMDL
ENDMDL
