REMARK  Name = No_2039-gen_results/8p0m/2024-11-26-14-13-15/
REMARK  4 active torsions:
REMARK  status: ('A' for Active; 'I' for Inactive)
REMARK    1  A    between atoms: C_3  and  C_7
REMARK    2  A    between atoms: C_9  and  C_10
REMARK    3  A    between atoms: C_10  and  C_11
REMARK    4  A    between atoms: C_16  and  C_17
REMARK                            x       y       z     vdW  Elec       q    Type
REMARK                         _______ _______ _______ _____ _____    ______ ____
ROOT
ATOM      1  C   UNL A   1     -26.408   0.307  27.226  0.00  0.00    +0.031 C 
ATOM      2  C   UNL A   1     -25.011   0.390  27.323  0.00  0.00    +0.012 C 
ATOM      3  C   UNL A   1     -27.046   0.329  26.005  0.00  0.00    +0.083 C 
ATOM      4  C   UNL A   1     -26.134  -0.001  24.945  0.00  0.00    +0.097 C 
ATOM      5  C   UNL A   1     -24.203   1.326  26.784  0.00  0.00    +0.059 C 
ATOM      6  C   UNL A   1     -23.956   2.456  27.019  0.00  0.00    +0.068 C 
ATOM      7  N   UNL A   1     -23.259   3.227  26.037  0.00  0.00    -0.272 NA
ATOM      8  C   UNL A   1     -24.449   1.054  25.239  0.00  0.00    +0.103 C 
ATOM      9  N   UNL A   1     -24.864   0.305  24.804  0.00  0.00    -0.217 NA
ATOM     10  C   UNL A   1     -23.624   2.260  24.777  0.00  0.00    +0.143 C 
ENDROOT
BRANCH   1  13
ATOM     11  C   UNL A   1     -28.016  -0.814  28.878  0.00  0.00    -0.004 A 
ATOM     12  C   UNL A   1     -28.469  -0.785  29.829  0.00  0.00    -0.000 A 
ATOM     13  C   UNL A   1     -27.136   0.236  28.535  0.00  0.00    -0.022 A 
ATOM     14  C   UNL A   1     -26.875   1.282  29.398  0.00  0.00    -0.004 A 
ATOM     15  C   UNL A   1     -27.507   1.238  30.630  0.00  0.00    -0.000 A 
ATOM     16  C   UNL A   1     -28.329   0.174  30.935  0.00  0.00    -0.000 A 
ENDBRANCH   1  13
BRANCH   3  17
ATOM     17  C   UNL A   1     -28.401   0.362  25.874  0.00  0.00    +0.174 C 
ATOM     18  O   UNL A   1     -28.815  -0.220  24.761  0.00  0.00    -0.291 OA
BRANCH  17  19
ATOM     19  C   UNL A   1     -29.207   0.722  26.919  0.00  0.00    +0.035 A 
ATOM     20  C   UNL A   1     -30.663   0.808  26.534  0.00  0.00    +0.003 A 
ATOM     21  C   UNL A   1     -31.591   1.095  27.560  0.00  0.00    +0.000 A 
ATOM     22  C   UNL A   1     -31.064   1.387  28.815  0.00  0.00    +0.000 A 
ATOM     23  C   UNL A   1     -29.772   1.523  29.123  0.00  0.00    +0.000 A 
ATOM     24  C   UNL A   1     -28.982   1.474  27.953  0.00  0.00    +0.003 A 
BRANCH  24  25
ATOM     25  C   UNL A   1     -29.308   3.011  27.409  0.00  0.00    +0.000 A 
ATOM     26  C   UNL A   1     -28.174   3.890  27.329  0.00  0.00    +0.000 A 
ATOM     27  C   UNL A   1     -28.355   5.159  26.898  0.00  0.00    +0.000 A 
ATOM     28  C   UNL A   1     -29.649   5.603  26.461  0.00  0.00    +0.000 A 
ATOM     29  C   UNL A   1     -30.690   4.738  26.457  0.00  0.00    +0.000 A 
ATOM     30  C   UNL A   1     -30.515   3.489  26.954  0.00  0.00    +0.000 A 
ENDBRANCH  24  25
ENDBRANCH  17  19
ENDBRANCH   3  17
TORSDOF 4
