MODEL 203
MODEL 1
REMARK VINA RESULT:    -6.779      0.000      0.000
REMARK INTER + INTRA:         -14.869
REMARK INTER:                 -11.139
REMARK INTRA:                  -3.730
REMARK UNBOUND:                -3.730
REMARK  Name = No_203-gen_results/8p0m/2024-11-26-14-13-15/
REMARK  11 active torsions:
REMARK  status: ('A' for Active; 'I' for Inactive)
REMARK    1  A    between atoms: C_2  and  C_22
REMARK    2  A    between atoms: C_3  and  C_7
REMARK    3  A    between atoms: C_7  and  C_8
REMARK    4  A    between atoms: C_7  and  C_18
REMARK    5  A    between atoms: C_8  and  C_9
REMARK    6  A    between atoms: C_13  and  C_15
REMARK    7  A    between atoms: C_22  and  O_24
REMARK    8  A    between atoms: O_24  and  C_25
REMARK    9  A    between atoms: C_25  and  C_26
REMARK   10  A    between atoms: C_26  and  O_27
REMARK   11  A    between atoms: O_27  and  C_28
REMARK                            x       y       z     vdW  Elec       q    Type
REMARK                         _______ _______ _______ _____ _____    ______ ____
ROOT
ATOM      1  C   UNL A   1     -28.953 -15.754  10.294  0.00  0.00    +0.003 A 
ATOM      2  C   UNL A   1     -29.849 -15.362  10.685  0.00  0.00    +0.075 A 
ATOM      3  C   UNL A   1     -29.046 -16.126   8.877  0.00  0.00    -0.011 A 
ATOM      4  C   UNL A   1     -30.204 -16.137   8.214  0.00  0.00    -0.004 A 
ATOM      5  C   UNL A   1     -31.200 -15.293  10.181  0.00  0.00    +0.006 A 
ATOM      6  C   UNL A   1     -31.270 -15.666   8.871  0.00  0.00    -0.000 A 
ENDROOT
BRANCH   2   7
ATOM      7  C   UNL A   1     -29.841 -14.848  12.244  0.00  0.00    +0.341 C 
ATOM      8  O   UNL A   1     -29.155 -15.440  12.963  0.00  0.00    -0.245 OA
BRANCH   7   9
ATOM      9  O   UNL A   1     -30.838 -14.073  12.617  0.00  0.00    -0.441 OA
BRANCH   9  10
ATOM     10  C   UNL A   1     -30.558 -12.870  13.156  0.00  0.00    +0.256 C 
BRANCH  10  11
ATOM     11  C   UNL A   1     -30.908 -11.799  12.189  0.00  0.00    +0.253 C 
BRANCH  11  12
ATOM     12  O   UNL A   1     -29.835 -11.248  11.630  0.00  0.00    -0.471 OA
BRANCH  12  13
ATOM     13  C   UNL A   1     -29.602 -11.637  10.333  0.00  0.00    +0.139 A 
ATOM     14  C   UNL A   1     -28.870 -12.073   9.748  0.00  0.00    +0.037 A 
ATOM     15  C   UNL A   1     -28.821 -12.389   8.322  0.00  0.00    +0.003 A 
ATOM     16  C   UNL A   1     -30.055 -12.390   7.684  0.00  0.00    +0.000 A 
ATOM     17  C   UNL A   1     -31.161 -12.011   8.380  0.00  0.00    +0.003 A 
ATOM     18  C   UNL A   1     -31.085 -11.649   9.745  0.00  0.00    +0.037 A 
ENDBRANCH  12  13
ENDBRANCH  11  12
ENDBRANCH  10  11
ENDBRANCH   9  10
ENDBRANCH   7   9
ENDBRANCH   2   7
BRANCH   3  19
ATOM     19  C   UNL A   1     -27.753 -16.602   8.219  0.00  0.00    +0.130 C 
BRANCH  19  20
ATOM     20  C   UNL A   1     -27.163 -17.721   8.739  0.00  0.00    +0.369 C 
ATOM     21  O   UNL A   1     -27.329 -18.777   8.462  0.00  0.00    -0.245 OA
ATOM     22  O   UNL A   1     -26.146 -17.441   9.617  0.00  0.00    -0.245 OA
ENDBRANCH  19  20
BRANCH  19  23
ATOM     23  C   UNL A   1     -27.269 -15.884   7.072  0.00  0.00    +0.042 C 
BRANCH  23  24
ATOM     24  C   UNL A   1     -26.169 -15.031   7.167  0.00  0.00    -0.020 A 
ATOM     25  C   UNL A   1     -26.278 -13.696   6.686  0.00  0.00    +0.007 A 
ATOM     26  C   UNL A   1     -25.341 -13.123   5.972  0.00  0.00    +0.058 A 
ATOM     27  C   UNL A   1     -24.125 -13.734   5.765  0.00  0.00    +0.018 A 
ATOM     28  C   UNL A   1     -23.957 -15.072   6.162  0.00  0.00    +0.080 A 
ATOM     29  C   UNL A   1     -25.019 -15.723   6.689  0.00  0.00    +0.002 A 
ATOM     30 CL   UNL A   1     -25.537 -11.418   5.625  0.00  0.00    -0.082 Cl
BRANCH  28  31
ATOM     31  C   UNL A   1     -22.654 -15.749   5.820  0.00  0.00    +0.388 C 
ATOM     32  O   UNL A   1     -21.924 -15.121   5.108  0.00  0.00    -0.241 OA
ATOM     33  O   UNL A   1     -22.332 -16.806   6.495  0.00  0.00    -0.241 OA
ENDBRANCH  28  31
ENDBRANCH  23  24
ENDBRANCH  19  23
ENDBRANCH   3  19
TORSDOF 11
ENDMDL
ENDMDL
