REMARK  Name = No_204-gen_results/8p0m/2024-11-26-14-13-15/
REMARK  7 active torsions:
REMARK  status: ('A' for Active; 'I' for Inactive)
REMARK    1  A    between atoms: C_2  and  C_23
REMARK    2  A    between atoms: C_3  and  C_7
REMARK    3  A    between atoms: C_7  and  C_8
REMARK    4  A    between atoms: C_7  and  C_9
REMARK    5  A    between atoms: C_8  and  C_10
REMARK    6  A    between atoms: C_9  and  C_26
REMARK    7  A    between atoms: C_14  and  C_17
REMARK                            x       y       z     vdW  Elec       q    Type
REMARK                         _______ _______ _______ _____ _____    ______ ____
ROOT
ATOM      1  C   UNL A   1     -26.317   0.399  27.365  0.00  0.00    +0.031 C 
ENDROOT
BRANCH   1   4
ATOM      2  C   UNL A   1     -28.016  -0.814  28.878  0.00  0.00    +0.002 A 
ATOM      3  C   UNL A   1     -28.469  -0.785  29.829  0.00  0.00    +0.080 A 
ATOM      4  C   UNL A   1     -27.087   0.290  28.638  0.00  0.00    -0.022 A 
ATOM      5  C   UNL A   1     -26.832   1.249  29.587  0.00  0.00    -0.004 A 
ATOM      6  C   UNL A   1     -28.391   0.080  31.006  0.00  0.00    +0.007 A 
ATOM      7  C   UNL A   1     -27.494   1.152  30.784  0.00  0.00    -0.000 A 
BRANCH   3   8
ATOM      8  C   UNL A   1     -29.524  -1.951  30.253  0.00  0.00    +0.388 C 
ATOM      9  O   UNL A   1     -29.426  -2.582  31.151  0.00  0.00    -0.241 OA
ATOM     10  O   UNL A   1     -30.568  -1.948  29.467  0.00  0.00    -0.241 OA
ENDBRANCH   3   8
ENDBRANCH   1   4
BRANCH   1  11
ATOM     11  C   UNL A   1     -26.881   0.971  26.372  0.00  0.00    +0.027 C 
ATOM     12  C   UNL A   1     -26.087   1.002  25.106  0.00  0.00    +0.005 C 
BRANCH  11  13
ATOM     13  C   UNL A   1     -28.170   1.432  26.285  0.00  0.00    -0.022 A 
ATOM     14  C   UNL A   1     -28.712   1.821  25.062  0.00  0.00    -0.004 A 
ATOM     15  C   UNL A   1     -29.992   2.358  24.973  0.00  0.00    -0.000 A 
ATOM     16  C   UNL A   1     -30.683   2.719  26.120  0.00  0.00    -0.000 A 
ATOM     17  C   UNL A   1     -30.115   2.412  27.358  0.00  0.00    -0.000 A 
ATOM     18  C   UNL A   1     -28.913   1.865  27.472  0.00  0.00    -0.004 A 
BRANCH  17  19
ATOM     19  C   UNL A   1     -30.950   2.757  28.574  0.00  0.00    -0.000 A 
ATOM     20  C   UNL A   1     -31.515   1.673  29.221  0.00  0.00    -0.000 A 
ATOM     21  C   UNL A   1     -32.740   1.707  29.367  0.00  0.00    -0.000 A 
ATOM     22  C   UNL A   1     -30.995   4.047  29.074  0.00  0.00    -0.000 A 
ATOM     23  C   UNL A   1     -32.266   4.232  29.819  0.00  0.00    -0.000 A 
ATOM     24  C   UNL A   1     -33.440   2.857  29.616  0.00  0.00    +0.000 A 
ENDBRANCH  17  19
ENDBRANCH  11  13
ENDBRANCH   1  11
BRANCH   1  25
ATOM     25  C   UNL A   1     -25.009  -0.057  27.383  0.00  0.00    +0.030 C 
BRANCH  25  26
ATOM     26  C   UNL A   1     -24.111   0.522  28.369  0.00  0.00    -0.030 C 
ATOM     27  C   UNL A   1     -23.549   0.060  29.306  0.00  0.00    -0.030 C 
ATOM     28  C   UNL A   1     -22.734   0.229  29.923  0.00  0.00    +0.030 C 
ENDBRANCH  25  26
ENDBRANCH   1  25
TORSDOF 7
