MODEL 2040
MODEL 1
REMARK VINA RESULT:    -4.438      0.000      0.000
REMARK INTER + INTRA:          -4.438
REMARK INTER:                  -4.438
REMARK INTRA:                   0.000
REMARK UNBOUND:                 0.000
REMARK  Name = No_2040-gen_results/8p0m/2024-11-26-14-13-15/
REMARK  0 active torsions:
REMARK  status: ('A' for Active; 'I' for Inactive)
REMARK                            x       y       z     vdW  Elec       q    Type
REMARK                         _______ _______ _______ _____ _____    ______ ____
ROOT
ATOM      1  C   UNL A   1      -8.080 -10.644  18.846  0.00  0.00    +0.011 A 
ATOM      2  C   UNL A   1      -8.115 -10.023  19.883  0.00  0.00    +0.058 A 
ATOM      3  C   UNL A   1      -9.220  -9.247  20.218  0.00  0.00    +0.011 A 
ATOM      4  C   UNL A   1     -10.337  -9.122  19.318  0.00  0.00    +0.001 A 
ATOM      5  C   UNL A   1     -10.203  -9.855  18.131  0.00  0.00    +0.000 A 
ATOM      6  C   UNL A   1      -9.130 -10.560  17.855  0.00  0.00    +0.001 A 
ATOM      7 CL   UNL A   1      -6.967 -10.027  21.215  0.00  0.00    -0.082 Cl
ENDROOT
TORSDOF 0
ENDMDL
ENDMDL
