REMARK  Name = No_2041-gen_results/8p0m/2024-11-26-14-13-15/
REMARK  2 active torsions:
REMARK  status: ('A' for Active; 'I' for Inactive)
REMARK    1  A    between atoms: C_4  and  C_11
REMARK    2  A    between atoms: C_4  and  C_15
REMARK                            x       y       z     vdW  Elec       q    Type
REMARK                         _______ _______ _______ _____ _____    ______ ____
ROOT
ATOM      1  C   UNL A   1     -28.016  -0.814  28.878  0.00  0.00    -0.000 A 
ATOM      2  C   UNL A   1     -27.064  -0.119  28.608  0.00  0.00    -0.004 A 
ATOM      3  C   UNL A   1     -25.765  -0.390  29.036  0.00  0.00    -0.011 A 
ATOM      4  C   UNL A   1     -24.552   0.406  28.765  0.00  0.00    +0.176 C 
ATOM      5  C   UNL A   1     -23.230   0.118  29.258  0.00  0.00    +0.021 C 
ATOM      6  C   UNL A   1     -23.094  -1.131  29.873  0.00  0.00    +0.006 C 
ATOM      7  C   UNL A   1     -27.798  -1.934  29.856  0.00  0.00    -0.000 A 
ATOM      8  C   UNL A   1     -26.542  -2.327  30.258  0.00  0.00    -0.005 A 
ATOM      9  C   UNL A   1     -25.451  -1.552  29.908  0.00  0.00    -0.025 A 
ATOM     10  C   UNL A   1     -24.156  -1.910  30.281  0.00  0.00    +0.026 C 
ENDROOT
BRANCH   4  11
ATOM     11  C   UNL A   1     -24.645   1.658  27.946  0.00  0.00    +0.408 C 
ATOM     12  F   UNL A   1     -24.705   2.625  28.603  0.00  0.00    -0.169 F 
ATOM     13  F   UNL A   1     -23.440   1.772  27.201  0.00  0.00    -0.169 F 
ATOM     14  F   UNL A   1     -25.533   1.401  26.938  0.00  0.00    -0.169 F 
ENDBRANCH   4  11
BRANCH   4  15
ATOM     15  C   UNL A   1     -24.196   0.055  27.654  0.00  0.00    +0.252 C 
ATOM     16  N   UNL A   1     -24.823  -0.102  26.640  0.00  0.00    -0.203 NA
ATOM     17  O   UNL A   1     -23.081  -0.771  27.480  0.00  0.00    -0.273 OA
ATOM     18  C   UNL A   1     -25.011  -0.219  25.352  0.00  0.00    +0.139 C 
ENDBRANCH   4  15
TORSDOF 2
