MODEL 2041
MODEL 1
REMARK VINA RESULT:    -6.447      0.000      0.000
REMARK INTER + INTRA:          -4.971
REMARK INTER:                  -7.200
REMARK INTRA:                   2.229
REMARK UNBOUND:                 2.229
REMARK  Name = No_2041-gen_results/8p0m/2024-11-26-14-13-15/
REMARK  2 active torsions:
REMARK  status: ('A' for Active; 'I' for Inactive)
REMARK    1  A    between atoms: C_4  and  C_11
REMARK    2  A    between atoms: C_4  and  C_15
REMARK                            x       y       z     vdW  Elec       q    Type
REMARK                         _______ _______ _______ _____ _____    ______ ____
ROOT
ATOM      1  C   UNL A   1     -25.385   1.707  26.756  0.00  0.00    -0.000 A 
ATOM      2  C   UNL A   1     -25.056   0.784  27.465  0.00  0.00    -0.004 A 
ATOM      3  C   UNL A   1     -23.733   0.508  27.807  0.00  0.00    -0.011 A 
ATOM      4  C   UNL A   1     -23.242  -0.599  28.651  0.00  0.00    +0.176 C 
ATOM      5  C   UNL A   1     -21.862  -0.879  28.951  0.00  0.00    +0.021 C 
ATOM      6  C   UNL A   1     -20.963   0.116  28.553  0.00  0.00    +0.006 C 
ATOM      7  C   UNL A   1     -24.289   2.491  26.090  0.00  0.00    -0.000 A 
ATOM      8  C   UNL A   1     -22.965   2.346  26.436  0.00  0.00    -0.005 A 
ATOM      9  C   UNL A   1     -22.600   1.315  27.283  0.00  0.00    -0.025 A 
ATOM     10  C   UNL A   1     -21.274   1.130  27.673  0.00  0.00    +0.026 C 
ENDROOT
BRANCH   4  11
ATOM     11  C   UNL A   1     -24.212  -1.576  29.244  0.00  0.00    +0.408 C 
ATOM     12  F   UNL A   1     -25.033  -1.058  29.899  0.00  0.00    -0.169 F 
ATOM     13  F   UNL A   1     -24.909  -2.192  28.170  0.00  0.00    -0.169 F 
ATOM     14  F   UNL A   1     -23.474  -2.634  29.697  0.00  0.00    -0.169 F 
ENDBRANCH   4  11
BRANCH   4  15
ATOM     15  C   UNL A   1     -23.393  -0.204  29.794  0.00  0.00    +0.252 C 
ATOM     16  N   UNL A   1     -23.736   0.868  30.216  0.00  0.00    -0.203 NA
ATOM     17  O   UNL A   1     -22.659  -0.751  30.851  0.00  0.00    -0.273 OA
ATOM     18  C   UNL A   1     -24.209   1.718  31.090  0.00  0.00    +0.139 C 
ENDBRANCH   4  15
TORSDOF 2
ENDMDL
ENDMDL
