REMARK  Name = No_2043-gen_results/8p0m/2024-11-26-14-13-15/
REMARK  4 active torsions:
REMARK  status: ('A' for Active; 'I' for Inactive)
REMARK    1  A    between atoms: C_5  and  C_14
REMARK    2  A    between atoms: N_7  and  C_20
REMARK    3  A    between atoms: C_20  and  C_21
REMARK    4  A    between atoms: C_21  and  C_22
REMARK                            x       y       z     vdW  Elec       q    Type
REMARK                         _______ _______ _______ _____ _____    ______ ____
ROOT
ATOM      1  C   UNL A   1     -28.016  -0.814  28.878  0.00  0.00    +0.021 A 
ATOM      2  C   UNL A   1     -27.064  -0.119  28.608  0.00  0.00    +0.044 A 
ATOM      3  C   UNL A   1     -26.929   1.171  29.008  0.00  0.00    -0.009 A 
ATOM      4  C   UNL A   1     -27.956   1.741  29.784  0.00  0.00    -0.003 A 
ATOM      5  C   UNL A   1     -29.057  -0.327  29.747  0.00  0.00    +0.081 A 
ATOM      6  C   UNL A   1     -28.983   0.972  30.152  0.00  0.00    +0.006 A 
ATOM      7  N   UNL A   1     -25.868  -0.397  27.840  0.00  0.00    -0.307 N 
ATOM      8  C   UNL A   1     -25.242   0.483  27.175  0.00  0.00    +0.100 C 
ATOM      9  C   UNL A   1     -25.108   1.739  27.572  0.00  0.00    +0.102 C 
ATOM     10  C   UNL A   1     -26.122   2.164  28.432  0.00  0.00    +0.038 C 
ATOM     11  C   UNL A   1     -24.104   2.593  26.912  0.00  0.00    +0.245 C 
ATOM     12  N   UNL A   1     -23.968   3.785  27.419  0.00  0.00    -0.173 NA
ATOM     13  O   UNL A   1     -23.126   2.151  26.235  0.00  0.00    -0.273 OA
ATOM     14  C   UNL A   1     -25.065   4.417  28.162  0.00  0.00    +0.256 C 
ATOM     15  C   UNL A   1     -26.003   3.591  28.785  0.00  0.00    +0.063 C 
ATOM     16  F   UNL A   1     -24.963   5.640  28.434  0.00  0.00    -0.213 F 
ENDROOT
BRANCH   5  17
ATOM     17  C   UNL A   1     -30.104  -1.306  30.197  0.00  0.00    +0.388 C 
ATOM     18  O   UNL A   1     -30.724  -0.975  31.274  0.00  0.00    -0.241 OA
ATOM     19  O   UNL A   1     -30.291  -2.319  29.606  0.00  0.00    -0.241 OA
ENDBRANCH   5  17
BRANCH   7  20
ATOM     20  C   UNL A   1     -25.343  -1.797  28.080  0.00  0.00    +0.096 C 
BRANCH  20  21
ATOM     21  C   UNL A   1     -24.082  -1.727  28.827  0.00  0.00    +0.051 C 
BRANCH  21  22
ATOM     22  C   UNL A   1     -24.137  -1.469  30.232  0.00  0.00    +0.014 A 
ATOM     23  C   UNL A   1     -24.977  -1.929  31.016  0.00  0.00    +0.000 A 
ATOM     24  C   UNL A   1     -25.097  -1.371  32.386  0.00  0.00    +0.021 A 
ATOM     25  C   UNL A   1     -24.171  -0.433  32.727  0.00  0.00    +0.100 A 
ATOM     26  C   UNL A   1     -23.114  -0.536  30.857  0.00  0.00    +0.166 A 
ATOM     27  N   UNL A   1     -23.249  -0.072  32.043  0.00  0.00    -0.226 NA
ATOM     28  N   UNL A   1     -22.103  -0.096  29.992  0.00  0.00    -0.107 NA
ENDBRANCH  21  22
ENDBRANCH  20  21
ENDBRANCH   7  20
TORSDOF 4
