MODEL 2043
MODEL 1
REMARK VINA RESULT:    -6.880      0.000      0.000
REMARK INTER + INTRA:         -10.284
REMARK INTER:                  -8.489
REMARK INTRA:                  -1.794
REMARK UNBOUND:                -1.794
REMARK  Name = No_2043-gen_results/8p0m/2024-11-26-14-13-15/
REMARK  4 active torsions:
REMARK  status: ('A' for Active; 'I' for Inactive)
REMARK    1  A    between atoms: C_5  and  C_14
REMARK    2  A    between atoms: N_7  and  C_20
REMARK    3  A    between atoms: C_20  and  C_21
REMARK    4  A    between atoms: C_21  and  C_22
REMARK                            x       y       z     vdW  Elec       q    Type
REMARK                         _______ _______ _______ _____ _____    ______ ____
ROOT
ATOM      1  C   UNL A   1     -29.100 -10.418  32.642  0.00  0.00    +0.021 A 
ATOM      2  C   UNL A   1     -29.727 -10.360  31.610  0.00  0.00    +0.044 A 
ATOM      3  C   UNL A   1     -29.426 -11.079  30.499  0.00  0.00    -0.009 A 
ATOM      4  C   UNL A   1     -28.319 -11.947  30.543  0.00  0.00    -0.003 A 
ATOM      5  C   UNL A   1     -28.015 -11.354  32.790  0.00  0.00    +0.081 A 
ATOM      6  C   UNL A   1     -27.654 -12.079  31.694  0.00  0.00    +0.006 A 
ATOM      7  N   UNL A   1     -30.890  -9.579  31.244  0.00  0.00    -0.307 N 
ATOM      8  C   UNL A   1     -31.121  -9.177  30.063  0.00  0.00    +0.100 C 
ATOM      9  C   UNL A   1     -30.832  -9.885  28.982  0.00  0.00    +0.102 C 
ATOM     10  C   UNL A   1     -29.793 -10.797  29.174  0.00  0.00    +0.038 C 
ATOM     11  C   UNL A   1     -31.425  -9.492  27.692  0.00  0.00    +0.245 C 
ATOM     12  N   UNL A   1     -31.167 -10.289  26.695  0.00  0.00    -0.173 NA
ATOM     13  O   UNL A   1     -32.449  -8.751  27.574  0.00  0.00    -0.273 OA
ATOM     14  C   UNL A   1     -29.970 -11.139  26.700  0.00  0.00    +0.256 C 
ATOM     15  C   UNL A   1     -29.426 -11.505  27.933  0.00  0.00    +0.063 C 
ATOM     16  F   UNL A   1     -29.654 -11.716  25.630  0.00  0.00    -0.213 F 
ENDROOT
BRANCH   5  17
ATOM     17  C   UNL A   1     -27.411 -11.512  34.157  0.00  0.00    +0.388 C 
ATOM     18  O   UNL A   1     -27.799 -12.555  34.801  0.00  0.00    -0.241 OA
ATOM     19  O   UNL A   1     -26.668 -10.696  34.597  0.00  0.00    -0.241 OA
ENDBRANCH   5  17
BRANCH   7  20
ATOM     20  C   UNL A   1     -31.888  -9.468  32.377  0.00  0.00    +0.096 C 
BRANCH  20  21
ATOM     21  C   UNL A   1     -32.852 -10.571  32.292  0.00  0.00    +0.051 C 
BRANCH  21  22
ATOM     22  C   UNL A   1     -32.400 -11.894  32.588  0.00  0.00    +0.014 A 
ATOM     23  C   UNL A   1     -31.993 -12.286  33.690  0.00  0.00    +0.000 A 
ATOM     24  C   UNL A   1     -31.294 -13.591  33.801  0.00  0.00    +0.021 A 
ATOM     25  C   UNL A   1     -31.243 -14.335  32.662  0.00  0.00    +0.100 A 
ATOM     26  C   UNL A   1     -32.373 -12.936  31.483  0.00  0.00    +0.166 A 
ATOM     27  N   UNL A   1     -31.759 -14.052  31.612  0.00  0.00    -0.226 NA
ATOM     28  N   UNL A   1     -32.927 -12.524  30.263  0.00  0.00    -0.107 NA
ENDBRANCH  21  22
ENDBRANCH  20  21
ENDBRANCH   7  20
TORSDOF 4
ENDMDL
ENDMDL
