MODEL 2044
MODEL 1
REMARK VINA RESULT:    -7.175      0.000      0.000
REMARK INTER + INTRA:          -7.754
REMARK INTER:                  -7.594
REMARK INTRA:                  -0.160
REMARK UNBOUND:                -0.160
REMARK  Name = No_2044-gen_results/8p0m/2024-11-26-14-13-15/
REMARK  1 active torsions:
REMARK  status: ('A' for Active; 'I' for Inactive)
REMARK    1  A    between atoms: C_10  and  C_12
REMARK                            x       y       z     vdW  Elec       q    Type
REMARK                         _______ _______ _______ _____ _____    ______ ____
ROOT
ATOM      1  C   UNL A   1     -26.543  -3.885  29.890  0.00  0.00    +0.004 A 
ATOM      2  C   UNL A   1     -26.199  -4.857  29.674  0.00  0.00    +0.000 A 
ATOM      3  C   UNL A   1     -25.536  -2.777  29.677  0.00  0.00    +0.051 A 
ATOM      4  C   UNL A   1     -25.704  -1.391  30.033  0.00  0.00    +0.267 C 
ATOM      5  C   UNL A   1     -24.991  -5.341  28.992  0.00  0.00    -0.000 A 
ATOM      6  C   UNL A   1     -24.034  -4.382  28.738  0.00  0.00    -0.004 A 
ATOM      7  C   UNL A   1     -24.276  -3.066  29.038  0.00  0.00    -0.013 A 
ATOM      8  N   UNL A   1     -24.692  -0.561  29.965  0.00  0.00    -0.165 NA
ATOM      9  O   UNL A   1     -26.770  -1.033  30.588  0.00  0.00    -0.268 OA
ATOM     10  C   UNL A   1     -23.433  -0.754  29.372  0.00  0.00    +0.302 C 
ATOM     11  C   UNL A   1     -23.243  -2.059  28.942  0.00  0.00    +0.089 C 
ATOM     12  F   UNL A   1     -24.026  -0.403  28.125  0.00  0.00    -0.208 F 
ENDROOT
BRANCH  10  13
ATOM     13  C   UNL A   1     -22.465   0.248  29.332  0.00  0.00    +0.443 C 
ATOM     14  F   UNL A   1     -21.512  -0.013  29.759  0.00  0.00    -0.166 F 
ATOM     15  F   UNL A   1     -22.995   1.409  29.923  0.00  0.00    -0.166 F 
ATOM     16  F   UNL A   1     -22.354   0.618  27.974  0.00  0.00    -0.166 F 
ENDBRANCH  10  13
TORSDOF 1
ENDMDL
ENDMDL
