REMARK  Name = No_2044-gen_results/8p0m/2024-11-26-14-13-15/
REMARK  1 active torsions:
REMARK  status: ('A' for Active; 'I' for Inactive)
REMARK    1  A    between atoms: C_10  and  C_12
REMARK                            x       y       z     vdW  Elec       q    Type
REMARK                         _______ _______ _______ _____ _____    ______ ____
ROOT
ATOM      1  C   UNL A   1     -28.016  -0.814  28.878  0.00  0.00    +0.004 A 
ATOM      2  C   UNL A   1     -28.469  -0.785  29.829  0.00  0.00    +0.000 A 
ATOM      3  C   UNL A   1     -26.504  -0.778  28.877  0.00  0.00    +0.051 A 
ATOM      4  C   UNL A   1     -25.654  -0.660  27.719  0.00  0.00    +0.267 C 
ATOM      5  C   UNL A   1     -27.918  -0.937  31.182  0.00  0.00    -0.000 A 
ATOM      6  C   UNL A   1     -26.542  -0.940  31.261  0.00  0.00    -0.004 A 
ATOM      7  C   UNL A   1     -25.783  -0.893  30.120  0.00  0.00    -0.013 A 
ATOM      8  N   UNL A   1     -24.367  -0.457  27.859  0.00  0.00    -0.165 NA
ATOM      9  O   UNL A   1     -26.183  -0.562  26.587  0.00  0.00    -0.268 OA
ATOM     10  C   UNL A   1     -23.583  -0.540  29.022  0.00  0.00    +0.302 C 
ATOM     11  C   UNL A   1     -24.347  -0.728  30.165  0.00  0.00    +0.089 C 
ATOM     12  F   UNL A   1     -23.512  -1.947  28.809  0.00  0.00    -0.208 F 
ENDROOT
BRANCH  10  13
ATOM     13  C   UNL A   1     -22.203  -0.346  29.008  0.00  0.00    +0.443 C 
ATOM     14  F   UNL A   1     -21.767  -0.205  28.034  0.00  0.00    -0.166 F 
ATOM     15  F   UNL A   1     -21.593  -1.409  29.698  0.00  0.00    -0.166 F 
ATOM     16  F   UNL A   1     -21.963   0.753  29.861  0.00  0.00    -0.166 F 
ENDBRANCH  10  13
TORSDOF 1
