REMARK  Name = No_2045-gen_results/8p0m/2024-11-26-14-13-15/
REMARK  1 active torsions:
REMARK  status: ('A' for Active; 'I' for Inactive)
REMARK    1  A    between atoms: C_8  and  C_11
REMARK                            x       y       z     vdW  Elec       q    Type
REMARK                         _______ _______ _______ _____ _____    ______ ____
ROOT
ATOM      1  C   UNL A   1     -28.016  -0.814  28.878  0.00  0.00    +0.000 A 
ATOM      2  C   UNL A   1     -27.064  -0.119  28.608  0.00  0.00    +0.000 A 
ATOM      3  C   UNL A   1     -25.765  -0.390  29.036  0.00  0.00    +0.000 A 
ATOM      4  C   UNL A   1     -25.530  -1.530  29.901  0.00  0.00    +0.000 A 
ATOM      5  C   UNL A   1     -26.658  -2.292  30.203  0.00  0.00    +0.000 A 
ATOM      6  C   UNL A   1     -27.855  -1.956  29.763  0.00  0.00    +0.000 A 
ATOM      7  C   UNL A   1     -24.544   0.413  28.738  0.00  0.00    +0.005 A 
ATOM      8  C   UNL A   1     -23.323   0.048  29.050  0.00  0.00    +0.057 A 
ATOM      9  C   UNL A   1     -23.202  -1.237  29.757  0.00  0.00    +0.005 A 
ATOM     10  C   UNL A   1     -24.226  -1.965  30.212  0.00  0.00    +0.000 A 
ENDROOT
BRANCH   8  11
ATOM     11  C   UNL A   1     -22.114   0.774  28.721  0.00  0.00    +0.284 C 
ATOM     12  O   UNL A   1     -21.075   0.481  29.105  0.00  0.00    -0.267 OA
ATOM     13  N   UNL A   1     -22.154   1.621  27.573  0.00  0.00    -0.084 NA
ENDBRANCH   8  11
TORSDOF 1
