MODEL 2045
MODEL 1
REMARK VINA RESULT:    -6.606      0.000      0.000
REMARK INTER + INTRA:          -7.058
REMARK INTER:                  -6.992
REMARK INTRA:                  -0.066
REMARK UNBOUND:                -0.066
REMARK  Name = No_2045-gen_results/8p0m/2024-11-26-14-13-15/
REMARK  1 active torsions:
REMARK  status: ('A' for Active; 'I' for Inactive)
REMARK    1  A    between atoms: C_8  and  C_11
REMARK                            x       y       z     vdW  Elec       q    Type
REMARK                         _______ _______ _______ _____ _____    ______ ____
ROOT
ATOM      1  C   UNL A   1     -29.747 -11.633  28.093  0.00  0.00    +0.000 A 
ATOM      2  C   UNL A   1     -28.980 -11.998  28.954  0.00  0.00    +0.000 A 
ATOM      3  C   UNL A   1     -28.939 -11.446  30.234  0.00  0.00    +0.000 A 
ATOM      4  C   UNL A   1     -29.813 -10.334  30.552  0.00  0.00    +0.000 A 
ATOM      5  C   UNL A   1     -30.666  -9.933  29.525  0.00  0.00    +0.000 A 
ATOM      6  C   UNL A   1     -30.631 -10.505  28.337  0.00  0.00    +0.000 A 
ATOM      7  C   UNL A   1     -28.030 -11.847  31.347  0.00  0.00    +0.005 A 
ATOM      8  C   UNL A   1     -28.116 -11.392  32.574  0.00  0.00    +0.057 A 
ATOM      9  C   UNL A   1     -29.183 -10.408  32.816  0.00  0.00    +0.005 A 
ATOM     10  C   UNL A   1     -29.954  -9.859  31.872  0.00  0.00    +0.000 A 
ENDROOT
BRANCH   8  11
ATOM     11  C   UNL A   1     -27.291 -11.807  33.689  0.00  0.00    +0.284 C 
ATOM     12  O   UNL A   1     -26.756 -12.818  33.739  0.00  0.00    -0.267 OA
ATOM     13  N   UNL A   1     -26.800 -10.782  34.553  0.00  0.00    -0.084 NA
ENDBRANCH   8  11
TORSDOF 1
ENDMDL
ENDMDL
