MODEL 2047
MODEL 1
REMARK VINA RESULT:    -7.393      0.000      0.000
REMARK INTER + INTRA:         -10.687
REMARK INTER:                  -9.554
REMARK INTRA:                  -1.133
REMARK UNBOUND:                -1.133
REMARK  Name = No_2047-gen_results/8p0m/2024-11-26-14-13-15/
REMARK  5 active torsions:
REMARK  status: ('A' for Active; 'I' for Inactive)
REMARK    1  A    between atoms: C_1  and  C_2
REMARK    2  A    between atoms: C_4  and  C_13
REMARK    3  A    between atoms: C_5  and  C_10
REMARK    4  A    between atoms: C_13  and  C_14
REMARK    5  A    between atoms: C_15  and  C_20
REMARK                            x       y       z     vdW  Elec       q    Type
REMARK                         _______ _______ _______ _____ _____    ______ ____
ROOT
ATOM      1  C   UNL A   1     -24.903  -4.236  29.083  0.00  0.00    +0.043 A 
ATOM      2  C   UNL A   1     -24.663  -2.973  28.874  0.00  0.00    -0.003 A 
ATOM      3  C   UNL A   1     -25.535  -1.837  29.263  0.00  0.00    -0.012 A 
ATOM      4  C   UNL A   1     -26.772  -2.174  29.882  0.00  0.00    +0.076 A 
ATOM      5  C   UNL A   1     -27.056  -3.505  30.050  0.00  0.00    +0.006 A 
ATOM      6  C   UNL A   1     -26.238  -4.513  29.667  0.00  0.00    +0.001 A 
ENDROOT
BRANCH   1   7
ATOM      7  C   UNL A   1     -24.217  -5.183  28.776  0.00  0.00    +0.341 C 
ATOM      8  F   UNL A   1     -23.555  -4.980  27.745  0.00  0.00    -0.193 F 
ATOM      9  F   UNL A   1     -25.009  -6.352  28.530  0.00  0.00    -0.193 F 
ENDBRANCH   1   7
BRANCH   4  10
ATOM     10  C   UNL A   1     -27.711  -1.157  30.281  0.00  0.00    +0.388 C 
ATOM     11  O   UNL A   1     -27.802  -0.678  31.304  0.00  0.00    -0.241 OA
ATOM     12  O   UNL A   1     -28.705  -0.864  29.321  0.00  0.00    -0.241 OA
ENDBRANCH   4  10
BRANCH   3  13
ATOM     13  C   UNL A   1     -25.197  -0.432  29.012  0.00  0.00    +0.053 C 
BRANCH  13  14
ATOM     14  C   UNL A   1     -24.925  -0.100  27.650  0.00  0.00    -0.011 A 
ATOM     15  C   UNL A   1     -23.836   0.589  27.397  0.00  0.00    +0.076 A 
ATOM     16  C   UNL A   1     -23.661   1.205  26.192  0.00  0.00    +0.006 A 
ATOM     17  C   UNL A   1     -24.579   0.867  25.145  0.00  0.00    +0.000 A 
ATOM     18  C   UNL A   1     -25.720   0.121  25.425  0.00  0.00    -0.000 A 
ATOM     19  C   UNL A   1     -25.932  -0.371  26.683  0.00  0.00    -0.004 A 
BRANCH  15  20
ATOM     20  C   UNL A   1     -22.827   0.918  28.440  0.00  0.00    +0.388 C 
ATOM     21  O   UNL A   1     -22.981   1.912  29.113  0.00  0.00    -0.241 OA
ATOM     22  O   UNL A   1     -21.896   0.075  28.693  0.00  0.00    -0.241 OA
ENDBRANCH  15  20
ENDBRANCH  13  14
ENDBRANCH   3  13
TORSDOF 5
ENDMDL
ENDMDL
