REMARK  Name = No_2048-gen_results/8p0m/2024-11-26-14-13-15/
REMARK  2 active torsions:
REMARK  status: ('A' for Active; 'I' for Inactive)
REMARK    1  A    between atoms: C_3  and  C_7
REMARK    2  A    between atoms: C_7  and  C_8
REMARK                            x       y       z     vdW  Elec       q    Type
REMARK                         _______ _______ _______ _____ _____    ______ ____
ROOT
ATOM      1  C   UNL A   1     -25.711   1.452  27.138  0.00  0.00    +0.124 C 
ATOM      2 CL   UNL A   1     -24.856   0.780  26.010  0.00  0.00    -0.105 Cl
ENDROOT
BRANCH   1   5
ATOM      3  C   UNL A   1     -28.016  -0.814  28.878  0.00  0.00    -0.000 A 
ATOM      4  C   UNL A   1     -27.064  -0.119  28.608  0.00  0.00    -0.003 A 
ATOM      5  C   UNL A   1     -26.972   0.714  27.506  0.00  0.00    -0.003 A 
ATOM      6  C   UNL A   1     -28.105   0.774  26.642  0.00  0.00    -0.003 A 
ATOM      7  C   UNL A   1     -29.204   0.118  27.048  0.00  0.00    -0.000 A 
ATOM      8  C   UNL A   1     -29.213  -0.609  28.128  0.00  0.00    -0.000 A 
ENDBRANCH   1   5
BRANCH   1   9
ATOM      9  C   UNL A   1     -25.207   2.413  27.932  0.00  0.00    -0.003 A 
ATOM     10  C   UNL A   1     -25.787   2.901  29.106  0.00  0.00    -0.003 A 
ATOM     11  C   UNL A   1     -25.393   2.236  30.159  0.00  0.00    -0.000 A 
ATOM     12  C   UNL A   1     -24.205   1.524  30.216  0.00  0.00    -0.000 A 
ATOM     13  C   UNL A   1     -23.351   1.531  29.112  0.00  0.00    -0.000 A 
ATOM     14  C   UNL A   1     -23.621   2.024  28.263  0.00  0.00    -0.003 A 
ENDBRANCH   1   9
TORSDOF 2
