MODEL 2048
MODEL 1
REMARK VINA RESULT:    -6.488      0.000      0.000
REMARK INTER + INTRA:          -8.066
REMARK INTER:                  -7.246
REMARK INTRA:                  -0.819
REMARK UNBOUND:                -0.819
REMARK  Name = No_2048-gen_results/8p0m/2024-11-26-14-13-15/
REMARK  2 active torsions:
REMARK  status: ('A' for Active; 'I' for Inactive)
REMARK    1  A    between atoms: C_3  and  C_7
REMARK    2  A    between atoms: C_7  and  C_8
REMARK                            x       y       z     vdW  Elec       q    Type
REMARK                         _______ _______ _______ _____ _____    ______ ____
ROOT
ATOM      1  C   UNL A   1     -24.332  -1.326  28.667  0.00  0.00    +0.124 C 
ATOM      2 CL   UNL A   1     -25.053  -0.665  27.443  0.00  0.00    -0.105 Cl
ENDROOT
BRANCH   1   5
ATOM      3  C   UNL A   1     -24.175  -4.992  28.574  0.00  0.00    -0.000 A 
ATOM      4  C   UNL A   1     -23.881  -3.822  28.500  0.00  0.00    -0.003 A 
ATOM      5  C   UNL A   1     -24.684  -2.771  28.910  0.00  0.00    -0.003 A 
ATOM      6  C   UNL A   1     -25.942  -3.105  29.491  0.00  0.00    -0.003 A 
ATOM      7  C   UNL A   1     -26.176  -4.409  29.707  0.00  0.00    -0.000 A 
ATOM      8  C   UNL A   1     -25.339  -5.331  29.326  0.00  0.00    -0.000 A 
ENDBRANCH   1   5
BRANCH   1   9
ATOM      9  C   UNL A   1     -23.256  -0.763  29.244  0.00  0.00    -0.003 A 
ATOM     10  C   UNL A   1     -22.817   0.552  29.065  0.00  0.00    -0.003 A 
ATOM     11  C   UNL A   1     -23.345   1.367  29.939  0.00  0.00    -0.000 A 
ATOM     12  C   UNL A   1     -23.830   0.959  31.172  0.00  0.00    -0.000 A 
ATOM     13  C   UNL A   1     -23.730  -0.385  31.535  0.00  0.00    -0.000 A 
ATOM     14  C   UNL A   1     -23.338  -1.061  30.882  0.00  0.00    -0.003 A 
ENDBRANCH   1   9
TORSDOF 2
ENDMDL
ENDMDL
