REMARK  Name = No_2049-gen_results/8p0m/2024-11-26-14-13-15/
REMARK  10 active torsions:
REMARK  status: ('A' for Active; 'I' for Inactive)
REMARK    1  A    between atoms: C_2  and  C_3
REMARK    2  A    between atoms: C_3  and  C_5
REMARK    3  A    between atoms: N_4  and  C_13
REMARK    4  A    between atoms: N_4  and  C_14
REMARK    5  A    between atoms: C_6  and  C_7
REMARK    6  A    between atoms: C_9  and  C_27
REMARK    7  A    between atoms: C_13  and  C_16
REMARK    8  A    between atoms: C_20  and  O_22
REMARK    9  A    between atoms: O_22  and  C_23
REMARK   10  A    between atoms: C_23  and  C_24
REMARK                            x       y       z     vdW  Elec       q    Type
REMARK                         _______ _______ _______ _____ _____    ______ ____
ROOT
ATOM      1  O   UNL A   1     -28.123  -1.335  28.487  0.00  0.00    -0.266 OA
ATOM      2  C   UNL A   1     -28.521  -0.436  29.078  0.00  0.00    +0.292 C 
ATOM      3  N   UNL A   1     -28.787  -0.887  30.487  0.00  0.00    -0.248 N 
ENDROOT
BRANCH   3   4
ATOM      4  C   UNL A   1     -28.612  -0.151  31.673  0.00  0.00    +0.054 A 
ATOM      5  C   UNL A   1     -29.781   0.379  32.212  0.00  0.00    +0.015 A 
ATOM      6  C   UNL A   1     -29.707   1.226  33.076  0.00  0.00    +0.001 A 
ATOM      7  C   UNL A   1     -28.491   1.740  33.573  0.00  0.00    +0.000 A 
ATOM      8  C   UNL A   1     -27.656  -0.371  32.534  0.00  0.00    +0.015 A 
ATOM      9  C   UNL A   1     -27.348   0.744  33.442  0.00  0.00    +0.001 A 
ENDBRANCH   3   4
BRANCH   2  10
ATOM     10  C   UNL A   1     -28.589   0.592  28.946  0.00  0.00    +0.249 C 
ATOM     11  O   UNL A   1     -29.415   1.507  29.538  0.00  0.00    -0.282 OA
BRANCH  10  12
ATOM     12  C   UNL A   1     -27.784   1.282  27.987  0.00  0.00    +0.047 C 
ATOM     13  C   UNL A   1     -28.084   1.582  26.780  0.00  0.00    +0.003 C 
BRANCH  13  14
ATOM     14  C   UNL A   1     -29.423   1.380  26.406  0.00  0.00    +0.000 A 
ATOM     15  C   UNL A   1     -29.715   0.717  25.377  0.00  0.00    +0.008 A 
ATOM     16  C   UNL A   1     -31.078   0.377  25.100  0.00  0.00    +0.098 A 
ATOM     17  C   UNL A   1     -32.057   0.753  25.968  0.00  0.00    +0.008 A 
ATOM     18  C   UNL A   1     -31.741   1.500  27.043  0.00  0.00    +0.000 A 
ATOM     19  C   UNL A   1     -30.406   1.817  27.325  0.00  0.00    +0.000 A 
BRANCH  16  20
ATOM     20  C   UNL A   1     -31.431  -0.395  23.869  0.00  0.00    +0.477 C 
ATOM     21  N   UNL A   1     -32.543  -0.388  23.462  0.00  0.00    +0.205 NA
ATOM     22  N   UNL A   1     -30.494  -1.331  23.525  0.00  0.00    +0.205 NA
ENDBRANCH  16  20
ENDBRANCH  13  14
ENDBRANCH  10  12
ENDBRANCH   2  10
BRANCH   3  23
ATOM     23  C   UNL A   1     -28.825  -2.282  30.834  0.00  0.00    +0.125 C 
BRANCH  23  24
ATOM     24  C   UNL A   1     -30.030  -2.949  30.523  0.00  0.00    +0.001 A 
ATOM     25  C   UNL A   1     -30.622  -3.228  31.646  0.00  0.00    -0.007 A 
ATOM     26  C   UNL A   1     -31.962  -3.787  31.519  0.00  0.00    -0.019 A 
ATOM     27  C   UNL A   1     -32.446  -4.081  30.228  0.00  0.00    +0.033 A 
ATOM     28  C   UNL A   1     -31.692  -3.762  29.116  0.00  0.00    +0.139 A 
ATOM     29  C   UNL A   1     -30.462  -3.179  29.265  0.00  0.00    +0.034 A 
ATOM     30  C   UNL A   1     -32.780  -4.180  32.716  0.00  0.00    +0.031 C 
BRANCH  28  31
ATOM     31  O   UNL A   1     -32.242  -3.967  27.910  0.00  0.00    -0.464 OA
BRANCH  31  32
ATOM     32  C   UNL A   1     -32.590  -2.944  27.114  0.00  0.00    +0.319 C 
BRANCH  32  33
ATOM     33  C   UNL A   1     -33.799  -3.083  26.460  0.00  0.00    +0.408 C 
ATOM     34  O   UNL A   1     -34.245  -2.066  25.988  0.00  0.00    -0.241 OA
ATOM     35  O   UNL A   1     -34.294  -4.222  26.391  0.00  0.00    -0.241 OA
ENDBRANCH  32  33
ENDBRANCH  31  32
ENDBRANCH  28  31
ENDBRANCH  23  24
ENDBRANCH   3  23
TORSDOF 10
