MODEL 204
MODEL 1
REMARK VINA RESULT:    -8.471      0.000      0.000
REMARK INTER + INTRA:         -14.431
REMARK INTER:                 -11.938
REMARK INTRA:                  -2.494
REMARK UNBOUND:                -2.494
REMARK  Name = No_204-gen_results/8p0m/2024-11-26-14-13-15/
REMARK  7 active torsions:
REMARK  status: ('A' for Active; 'I' for Inactive)
REMARK    1  A    between atoms: C_2  and  C_23
REMARK    2  A    between atoms: C_3  and  C_7
REMARK    3  A    between atoms: C_7  and  C_8
REMARK    4  A    between atoms: C_7  and  C_9
REMARK    5  A    between atoms: C_8  and  C_10
REMARK    6  A    between atoms: C_9  and  C_26
REMARK    7  A    between atoms: C_14  and  C_17
REMARK                            x       y       z     vdW  Elec       q    Type
REMARK                         _______ _______ _______ _____ _____    ______ ____
ROOT
ATOM      1  C   UNL A   1     -23.363  -0.276  29.991  0.00  0.00    +0.031 C 
ENDROOT
BRANCH   1   4
ATOM      2  C   UNL A   1     -23.899  -2.707  29.322  0.00  0.00    +0.002 A 
ATOM      3  C   UNL A   1     -24.670  -3.425  29.299  0.00  0.00    +0.080 A 
ATOM      4  C   UNL A   1     -24.323  -1.408  29.843  0.00  0.00    -0.022 A 
ATOM      5  C   UNL A   1     -25.606  -1.179  30.275  0.00  0.00    -0.004 A 
ATOM      6  C   UNL A   1     -26.081  -3.467  29.684  0.00  0.00    +0.007 A 
ATOM      7  C   UNL A   1     -26.501  -2.214  30.191  0.00  0.00    -0.000 A 
BRANCH   3   8
ATOM      8  C   UNL A   1     -24.355  -4.926  28.752  0.00  0.00    +0.388 C 
ATOM      9  O   UNL A   1     -23.588  -5.166  27.999  0.00  0.00    -0.241 OA
ATOM     10  O   UNL A   1     -25.035  -5.821  29.419  0.00  0.00    -0.241 OA
ENDBRANCH   3   8
ENDBRANCH   1   4
BRANCH   1  11
ATOM     11  C   UNL A   1     -22.618   0.011  28.994  0.00  0.00    +0.027 C 
ATOM     12  C   UNL A   1     -21.247  -0.584  29.019  0.00  0.00    +0.005 C 
BRANCH  11  13
ATOM     13  C   UNL A   1     -22.965   0.676  27.846  0.00  0.00    -0.022 A 
ATOM     14  C   UNL A   1     -22.068   1.537  27.217  0.00  0.00    -0.004 A 
ATOM     15  C   UNL A   1     -22.434   2.271  26.094  0.00  0.00    -0.000 A 
ATOM     16  C   UNL A   1     -23.761   2.331  25.695  0.00  0.00    -0.000 A 
ATOM     17  C   UNL A   1     -24.690   1.536  26.370  0.00  0.00    -0.000 A 
ATOM     18  C   UNL A   1     -24.362   0.796  27.420  0.00  0.00    -0.004 A 
BRANCH  17  19
ATOM     19  C   UNL A   1     -26.108   1.581  25.840  0.00  0.00    -0.000 A 
ATOM     20  C   UNL A   1     -26.723   0.348  25.713  0.00  0.00    -0.000 A 
ATOM     21  C   UNL A   1     -27.168   0.078  24.594  0.00  0.00    -0.000 A 
ATOM     22  C   UNL A   1     -26.773   2.782  25.661  0.00  0.00    -0.000 A 
ATOM     23  C   UNL A   1     -27.824   2.602  24.628  0.00  0.00    -0.000 A 
ATOM     24  C   UNL A   1     -27.733   1.006  23.761  0.00  0.00    +0.000 A 
ENDBRANCH  17  19
ENDBRANCH  11  13
ENDBRANCH   1  11
BRANCH   1  25
ATOM     25  C   UNL A   1     -23.414   0.437  31.178  0.00  0.00    +0.030 C 
BRANCH  25  26
ATOM     26  C   UNL A   1     -23.868   1.817  31.113  0.00  0.00    -0.030 C 
ATOM     27  C   UNL A   1     -24.697   2.414  31.714  0.00  0.00    -0.030 C 
ATOM     28  C   UNL A   1     -24.969   3.379  31.975  0.00  0.00    +0.030 C 
ENDBRANCH  25  26
ENDBRANCH   1  25
TORSDOF 7
ENDMDL
ENDMDL
