REMARK  Name = No_205-gen_results/8p0m/2024-11-26-14-13-15/
REMARK  4 active torsions:
REMARK  status: ('A' for Active; 'I' for Inactive)
REMARK    1  A    between atoms: C_3  and  N_7
REMARK    2  A    between atoms: C_8  and  C_13
REMARK    3  A    between atoms: N_15  and  C_16
REMARK    4  A    between atoms: C_16  and  C_17
REMARK                            x       y       z     vdW  Elec       q    Type
REMARK                         _______ _______ _______ _____ _____    ______ ____
ROOT
ATOM      1  N   UNL A   1     -24.627   0.369  28.754  0.00  0.00    -0.301 N 
ATOM      2  C   UNL A   1     -24.047   1.231  29.502  0.00  0.00    +0.151 C 
ATOM      3  C   UNL A   1     -22.843   1.880  29.024  0.00  0.00    +0.029 C 
ATOM      4  C   UNL A   1     -24.119   0.378  27.434  0.00  0.00    +0.091 C 
ATOM      5  C   UNL A   1     -23.039   1.059  26.972  0.00  0.00    +0.021 C 
ATOM      6  C   UNL A   1     -22.381   1.919  27.866  0.00  0.00    +0.004 C 
ENDROOT
BRANCH   1   9
ATOM      7  C   UNL A   1     -28.016  -0.814  28.878  0.00  0.00    +0.001 A 
ATOM      8  C   UNL A   1     -27.064  -0.119  28.608  0.00  0.00    +0.015 A 
ATOM      9  C   UNL A   1     -25.765  -0.390  29.036  0.00  0.00    +0.048 A 
ATOM     10  C   UNL A   1     -25.530  -1.530  29.901  0.00  0.00    +0.015 A 
ATOM     11  C   UNL A   1     -26.689  -2.289  30.181  0.00  0.00    +0.001 A 
ATOM     12  C   UNL A   1     -27.873  -1.951  29.737  0.00  0.00    +0.000 A 
ENDBRANCH   1   9
BRANCH   2  13
ATOM     13  C   UNL A   1     -24.442   1.298  30.951  0.00  0.00    +0.260 C 
ATOM     14  O   UNL A   1     -24.510   0.471  31.730  0.00  0.00    -0.272 OA
ATOM     15  N   UNL A   1     -24.740   2.686  31.337  0.00  0.00    -0.190 NA
BRANCH  15  16
ATOM     16  C   UNL A   1     -25.212   2.971  32.679  0.00  0.00    +0.191 C 
BRANCH  16  17
ATOM     17  C   UNL A   1     -26.558   3.623  32.630  0.00  0.00    -0.054 C 
ATOM     18  C   UNL A   1     -27.220   3.523  33.611  0.00  0.00    -0.012 C 
ENDBRANCH  16  17
ENDBRANCH  15  16
ENDBRANCH   2  13
TORSDOF 4
