MODEL 2050
MODEL 1
REMARK VINA RESULT:    -4.275      0.000      0.000
REMARK INTER + INTRA:          -4.275
REMARK INTER:                  -4.275
REMARK INTRA:                   0.000
REMARK UNBOUND:                 0.000
REMARK  Name = No_2050-gen_results/8p0m/2024-11-26-14-13-15/
REMARK  0 active torsions:
REMARK  status: ('A' for Active; 'I' for Inactive)
REMARK                            x       y       z     vdW  Elec       q    Type
REMARK                         _______ _______ _______ _____ _____    ______ ____
ROOT
ATOM      1  C   UNL A   1     -26.060  -4.806  29.655  0.00  0.00    +0.000 A 
ATOM      2  C   UNL A   1     -26.164  -3.602  29.702  0.00  0.00    +0.000 A 
ATOM      3  C   UNL A   1     -25.178  -2.733  29.276  0.00  0.00    +0.000 A 
ATOM      4  C   UNL A   1     -23.994  -3.290  28.716  0.00  0.00    +0.000 A 
ATOM      5  C   UNL A   1     -23.998  -4.630  28.529  0.00  0.00    +0.000 A 
ATOM      6  C   UNL A   1     -25.005  -5.381  28.932  0.00  0.00    +0.000 A 
ENDROOT
TORSDOF 0
ENDMDL
ENDMDL
