MODEL 2051
MODEL 1
REMARK VINA RESULT:    -4.357      0.000      0.000
REMARK INTER + INTRA:          -4.357
REMARK INTER:                  -4.357
REMARK INTRA:                   0.000
REMARK UNBOUND:                 0.000
REMARK  Name = No_2051-gen_results/8p0m/2024-11-26-14-13-15/
REMARK  0 active torsions:
REMARK  status: ('A' for Active; 'I' for Inactive)
REMARK                            x       y       z     vdW  Elec       q    Type
REMARK                         _______ _______ _______ _____ _____    ______ ____
ROOT
ATOM      1  C   UNL A   1     -24.176  -4.918  28.594  0.00  0.00    +0.000 A 
ATOM      2  C   UNL A   1     -25.029  -5.314  29.068  0.00  0.00    +0.000 A 
ATOM      3  C   UNL A   1     -24.052  -3.462  28.734  0.00  0.00    +0.000 A 
ATOM      4  C   UNL A   1     -25.023  -2.707  29.250  0.00  0.00    +0.000 A 
ATOM      5  C   UNL A   1     -26.201  -4.712  29.657  0.00  0.00    +0.000 A 
ATOM      6  C   UNL A   1     -26.077  -3.358  29.756  0.00  0.00    +0.000 A 
ENDROOT
TORSDOF 0
ENDMDL
ENDMDL
