REMARK  Name = No_2052-gen_results/8p0m/2024-11-26-14-13-15/
REMARK  1 active torsions:
REMARK  status: ('A' for Active; 'I' for Inactive)
REMARK    1  A    between atoms: C_4  and  C_9
REMARK                            x       y       z     vdW  Elec       q    Type
REMARK                         _______ _______ _______ _____ _____    ______ ____
ROOT
ATOM      1  C   UNL A   1     -28.016  -0.814  28.878  0.00  0.00    +0.036 C 
ATOM      2  C   UNL A   1     -28.469  -0.785  29.829  0.00  0.00    +0.182 C 
ATOM      3  C   UNL A   1     -26.504  -0.778  28.877  0.00  0.00    +0.007 C 
ATOM      4  C   UNL A   1     -25.831  -1.681  29.685  0.00  0.00    +0.025 C 
ATOM      5  C   UNL A   1     -28.149  -1.885  30.903  0.00  0.00    +0.182 C 
ATOM      6  C   UNL A   1     -26.646  -1.956  31.033  0.00  0.00    +0.040 C 
ATOM      7  O   UNL A   1     -28.627  -1.731  32.186  0.00  0.00    -0.220 OA
ATOM      8  O   UNL A   1     -28.374   0.379  30.689  0.00  0.00    -0.220 OA
ENDROOT
BRANCH   4   9
ATOM      9  C   UNL A   1     -24.686  -2.331  29.353  0.00  0.00    -0.026 C 
ATOM     10  C   UNL A   1     -23.485  -1.574  29.250  0.00  0.00    -0.005 C 
ENDBRANCH   4   9
TORSDOF 1
