MODEL 2052
MODEL 1
REMARK VINA RESULT:    -4.972      0.000      0.000
REMARK INTER + INTRA:          -5.333
REMARK INTER:                  -5.263
REMARK INTRA:                  -0.070
REMARK UNBOUND:                -0.070
REMARK  Name = No_2052-gen_results/8p0m/2024-11-26-14-13-15/
REMARK  1 active torsions:
REMARK  status: ('A' for Active; 'I' for Inactive)
REMARK    1  A    between atoms: C_4  and  C_9
REMARK                            x       y       z     vdW  Elec       q    Type
REMARK                         _______ _______ _______ _____ _____    ______ ____
ROOT
ATOM      1  C   UNL A   1     -26.947 -12.351  32.772  0.00  0.00    +0.036 C 
ATOM      2  C   UNL A   1     -27.199 -11.969  33.721  0.00  0.00    +0.182 C 
ATOM      3  C   UNL A   1     -28.084 -12.425  31.778  0.00  0.00    +0.007 C 
ATOM      4  C   UNL A   1     -28.848 -11.286  31.576  0.00  0.00    +0.025 C 
ATOM      5  C   UNL A   1     -27.812 -10.530  33.868  0.00  0.00    +0.182 C 
ATOM      6  C   UNL A   1     -28.995 -10.452  32.933  0.00  0.00    +0.040 C 
ATOM      7  O   UNL A   1     -28.281 -10.122  35.098  0.00  0.00    -0.220 OA
ATOM      8  O   UNL A   1     -28.099 -12.670  34.617  0.00  0.00    -0.220 OA
ENDROOT
BRANCH   4   9
ATOM      9  C   UNL A   1     -29.330 -10.865  30.379  0.00  0.00    -0.026 C 
ATOM     10  C   UNL A   1     -29.021 -11.630  29.219  0.00  0.00    -0.005 C 
ENDBRANCH   4   9
TORSDOF 1
ENDMDL
ENDMDL
