REMARK  Name = No_2053-gen_results/8p0m/2024-11-26-14-13-15/
REMARK  6 active torsions:
REMARK  status: ('A' for Active; 'I' for Inactive)
REMARK    1  A    between atoms: C_7  and  C_14
REMARK    2  A    between atoms: C_13  and  O_17
REMARK    3  A    between atoms: O_17  and  C_18
REMARK    4  A    between atoms: C_18  and  C_19
REMARK    5  A    between atoms: C_19  and  O_20
REMARK    6  A    between atoms: O_20  and  C_21
REMARK                            x       y       z     vdW  Elec       q    Type
REMARK                         _______ _______ _______ _____ _____    ______ ____
ROOT
ATOM      1  C   UNL A   1     -28.016  -0.814  28.878  0.00  0.00    +0.064 C 
ATOM      2  C   UNL A   1     -27.064  -0.119  28.608  0.00  0.00    +0.105 C 
ATOM      3  C   UNL A   1     -27.001   0.691  27.491  0.00  0.00    -0.021 C 
ATOM      4  C   UNL A   1     -27.178   1.904  27.563  0.00  0.00    -0.025 C 
ATOM      5  C   UNL A   1     -29.311  -0.225  28.476  0.00  0.00    -0.021 C 
ATOM      6  C   UNL A   1     -28.765   2.121  27.848  0.00  0.00    +0.058 C 
ATOM      7  C   UNL A   1     -29.607   1.103  28.318  0.00  0.00    +0.058 C 
ATOM      8  C   UNL A   1     -25.684  -0.698  29.083  0.00  0.00    +0.230 C 
ATOM      9  O   UNL A   1     -24.714  -0.165  28.721  0.00  0.00    -0.275 OA
ATOM     10  N   UNL A   1     -25.636  -1.798  29.858  0.00  0.00    -0.275 N 
ATOM     11  C   UNL A   1     -24.346  -2.342  30.272  0.00  0.00    +0.115 C 
ATOM     12  C   UNL A   1     -26.765  -2.532  30.254  0.00  0.00    +0.123 C 
ATOM     13  C   UNL A   1     -28.055  -1.928  29.877  0.00  0.00    +0.140 C 
ENDROOT
BRANCH   7  14
ATOM     14  C   UNL A   1     -30.978   1.574  28.531  0.00  0.00    +0.384 C 
ATOM     15  O   UNL A   1     -31.417   2.428  28.211  0.00  0.00    -0.241 OA
ATOM     16  O   UNL A   1     -31.646   0.623  29.292  0.00  0.00    -0.241 OA
ENDBRANCH   7  14
BRANCH  13  17
ATOM     17  O   UNL A   1     -29.183  -2.423  30.347  0.00  0.00    -0.350 OA
BRANCH  17  18
ATOM     18  C   UNL A   1     -29.187  -3.235  31.428  0.00  0.00    +0.189 C 
BRANCH  18  19
ATOM     19  C   UNL A   1     -30.068  -2.707  32.478  0.00  0.00    +0.237 C 
BRANCH  19  20
ATOM     20  O   UNL A   1     -30.144  -1.612  32.684  0.00  0.00    -0.470 OA
BRANCH  20  21
ATOM     21  C   UNL A   1     -30.441  -1.069  33.915  0.00  0.00    +0.168 C 
ATOM     22  C   UNL A   1     -30.145   0.260  34.148  0.00  0.00    +0.014 C 
ATOM     23  C   UNL A   1     -30.419   0.822  35.272  0.00  0.00    +0.034 C 
ENDBRANCH  20  21
ENDBRANCH  19  20
ENDBRANCH  18  19
ENDBRANCH  17  18
ENDBRANCH  13  17
TORSDOF 6
