MODEL 2054
MODEL 1
REMARK VINA RESULT:    -7.014      0.000      0.000
REMARK INTER + INTRA:          -3.292
REMARK INTER:                  -8.654
REMARK INTRA:                   5.362
REMARK UNBOUND:                 5.362
REMARK  Name = No_2054-gen_results/8p0m/2024-11-26-14-13-15/
REMARK  5 active torsions:
REMARK  status: ('A' for Active; 'I' for Inactive)
REMARK    1  A    between atoms: N_3  and  C_12
REMARK    2  A    between atoms: C_14  and  C_18
REMARK    3  A    between atoms: C_14  and  O_20
REMARK    4  A    between atoms: C_18  and  C_22
REMARK    5  A    between atoms: C_18  and  O_24
REMARK                            x       y       z     vdW  Elec       q    Type
REMARK                         _______ _______ _______ _____ _____    ______ ____
ROOT
ATOM      1  C   UNL A   1     -21.913   1.480  27.485  0.00  0.00    +0.015 A 
ATOM      2  C   UNL A   1     -22.961   0.891  27.354  0.00  0.00    +0.052 A 
ATOM      3  N   UNL A   1     -23.986   1.386  26.720  0.00  0.00    -0.260 N 
ATOM      4  C   UNL A   1     -20.836   0.764  28.207  0.00  0.00    +0.001 A 
ATOM      5  C   UNL A   1     -21.185  -0.168  28.898  0.00  0.00    -0.000 A 
ATOM      6  C   UNL A   1     -22.399  -0.803  29.053  0.00  0.00    -0.000 A 
ATOM      7  C   UNL A   1     -23.383  -0.222  28.214  0.00  0.00    +0.026 A 
ATOM      8  C   UNL A   1     -24.674   0.755  25.706  0.00  0.00    +0.067 C 
ATOM      9  C   UNL A   1     -25.609   0.397  25.361  0.00  0.00    +0.016 C 
ATOM     10  C   UNL A   1     -26.881   0.426  26.220  0.00  0.00    +0.002 C 
ATOM     11  C   UNL A   1     -26.854   0.546  27.511  0.00  0.00    +0.042 C 
ATOM     12  C   UNL A   1     -25.827   0.148  28.155  0.00  0.00    +0.313 C 
ATOM     13  C   UNL A   1     -24.727  -0.519  28.575  0.00  0.00    +0.229 C 
ATOM     14  F   UNL A   1     -25.381   1.407  28.851  0.00  0.00    -0.197 F 
ATOM     15  F   UNL A   1     -26.573  -0.263  29.300  0.00  0.00    -0.197 F 
ENDROOT
BRANCH   3  16
ATOM     16  C   UNL A   1     -24.651   2.616  27.125  0.00  0.00    +0.241 C 
ATOM     17  C   UNL A   1     -25.015   3.369  25.939  0.00  0.00    +0.062 C 
ATOM     18  F   UNL A   1     -24.886   2.889  28.189  0.00  0.00    -0.214 F 
ENDBRANCH   3  16
BRANCH  13  19
ATOM     19  C   UNL A   1     -25.148  -1.864  29.133  0.00  0.00    +0.309 C 
ATOM     20  O   UNL A   1     -24.901  -1.956  30.628  0.00  0.00    -0.184 OA
BRANCH  19  21
ATOM     21  C   UNL A   1     -24.781  -3.033  28.594  0.00  0.00    +0.269 C 
ATOM     22  O   UNL A   1     -23.663  -3.734  28.650  0.00  0.00    -0.283 OA
ENDBRANCH  19  21
BRANCH  19  23
ATOM     23  O   UNL A   1     -25.945  -2.479  29.178  0.00  0.00    -0.322 OA
ATOM     24  C   UNL A   1     -26.349  -3.158  30.112  0.00  0.00    +0.177 C 
ENDBRANCH  19  23
ENDBRANCH  13  19
BRANCH  13  25
ATOM     25  O   UNL A   1     -24.949  -0.638  29.698  0.00  0.00    -0.341 OA
ATOM     26  C   UNL A   1     -24.325  -0.066  30.740  0.00  0.00    +0.175 C 
ENDBRANCH  13  25
TORSDOF 5
ENDMDL
ENDMDL
