MODEL 2055
MODEL 1
REMARK VINA RESULT:    -4.958      0.000      0.000
REMARK INTER + INTRA:          -5.329
REMARK INTER:                  -5.248
REMARK INTRA:                  -0.081
REMARK UNBOUND:                -0.081
REMARK  Name = No_2055-gen_results/8p0m/2024-11-26-14-13-15/
REMARK  1 active torsions:
REMARK  status: ('A' for Active; 'I' for Inactive)
REMARK    1  A    between atoms: C_1  and  C_8
REMARK                            x       y       z     vdW  Elec       q    Type
REMARK                         _______ _______ _______ _____ _____    ______ ____
ROOT
ATOM      1  C   UNL A   1     -23.395  -1.752  29.233  0.00  0.00    +0.012 C 
ATOM      2  C   UNL A   1     -24.222  -2.633  29.289  0.00  0.00    -0.043 C 
ATOM      3  C   UNL A   1     -25.469  -2.520  29.880  0.00  0.00    +0.022 C 
ATOM      4  C   UNL A   1     -26.441  -3.575  30.033  0.00  0.00    +0.004 C 
ATOM      5  C   UNL A   1     -26.125  -4.863  29.537  0.00  0.00    +0.001 C 
ATOM      6  C   UNL A   1     -24.862  -5.046  28.915  0.00  0.00    +0.004 C 
ATOM      7  C   UNL A   1     -24.001  -3.995  28.845  0.00  0.00    +0.022 C 
ENDROOT
BRANCH   1   8
ATOM      8  C   UNL A   1     -23.771  -0.634  28.316  0.00  0.00    +0.093 C 
ATOM      9  N   UNL A   1     -23.522   0.446  28.554  0.00  0.00    -0.267 NA
ATOM     10  C   UNL A   1     -23.844   1.499  27.743  0.00  0.00    +0.152 C 
ENDBRANCH   1   8
TORSDOF 1
ENDMDL
ENDMDL
