MODEL 2056
MODEL 1
REMARK VINA RESULT:    -5.172      0.000      0.000
REMARK INTER + INTRA:          -5.585
REMARK INTER:                  -5.474
REMARK INTRA:                  -0.111
REMARK UNBOUND:                -0.111
REMARK  Name = No_2056-gen_results/8p0m/2024-11-26-14-13-15/
REMARK  1 active torsions:
REMARK  status: ('A' for Active; 'I' for Inactive)
REMARK    1  A    between atoms: C_2  and  N_7
REMARK                            x       y       z     vdW  Elec       q    Type
REMARK                         _______ _______ _______ _____ _____    ______ ____
ROOT
ATOM      1  C   UNL A   1     -25.214  -2.621  29.722  0.00  0.00    +0.019 A 
ATOM      2  C   UNL A   1     -24.169  -2.955  29.214  0.00  0.00    +0.081 A 
ATOM      3  C   UNL A   1     -23.969  -4.258  28.773  0.00  0.00    +0.019 A 
ATOM      4  C   UNL A   1     -24.986  -5.264  28.948  0.00  0.00    +0.002 A 
ATOM      5  C   UNL A   1     -26.153  -4.797  29.566  0.00  0.00    +0.000 A 
ATOM      6  C   UNL A   1     -26.286  -3.557  29.980  0.00  0.00    +0.002 A 
ENDROOT
BRANCH   2   7
ATOM      7  N   UNL A   1     -23.071  -2.116  29.003  0.00  0.00    -0.248 NA
ATOM      8  C   UNL A   1     -22.785  -1.187  29.303  0.00  0.00    +0.073 C 
ATOM      9  C   UNL A   1     -21.581  -0.395  28.825  0.00  0.00    +0.053 C 
ENDBRANCH   2   7
TORSDOF 1
ENDMDL
ENDMDL
