MODEL 2057
MODEL 1
REMARK VINA RESULT:    -6.621      0.000      0.000
REMARK INTER + INTRA:          -7.331
REMARK INTER:                  -7.008
REMARK INTRA:                  -0.323
REMARK UNBOUND:                -0.323
REMARK  Name = No_2057-gen_results/8p0m/2024-11-26-14-13-15/
REMARK  1 active torsions:
REMARK  status: ('A' for Active; 'I' for Inactive)
REMARK    1  A    between atoms: C_2  and  C_7
REMARK                            x       y       z     vdW  Elec       q    Type
REMARK                         _______ _______ _______ _____ _____    ______ ____
ROOT
ATOM      1  C   UNL A   1     -24.381  -0.519  27.886  0.00  0.00    +0.000 A 
ATOM      2  C   UNL A   1     -23.901  -1.332  28.641  0.00  0.00    +0.000 A 
ATOM      3  C   UNL A   1     -22.692  -1.090  29.283  0.00  0.00    +0.000 A 
ATOM      4  C   UNL A   1     -21.949   0.118  29.033  0.00  0.00    +0.000 A 
ATOM      5  C   UNL A   1     -22.564   0.993  28.128  0.00  0.00    +0.000 A 
ATOM      6  C   UNL A   1     -23.701   0.709  27.535  0.00  0.00    +0.000 A 
ENDROOT
BRANCH   2   7
ATOM      7  C   UNL A   1     -24.514  -2.641  28.995  0.00  0.00    +0.000 A 
ATOM      8  C   UNL A   1     -25.611  -2.891  29.468  0.00  0.00    +0.000 A 
ATOM      9  C   UNL A   1     -26.169  -4.235  29.666  0.00  0.00    +0.000 A 
ATOM     10  C   UNL A   1     -25.346  -5.321  29.305  0.00  0.00    +0.000 A 
ATOM     11  C   UNL A   1     -23.935  -3.924  28.511  0.00  0.00    +0.000 A 
ATOM     12  C   UNL A   1     -24.270  -5.100  28.701  0.00  0.00    +0.000 A 
ENDBRANCH   2   7
TORSDOF 1
ENDMDL
ENDMDL
