MODEL 2058
MODEL 1
REMARK VINA RESULT:    -7.024      0.000      0.000
REMARK INTER + INTRA:          -8.292
REMARK INTER:                  -7.845
REMARK INTRA:                  -0.447
REMARK UNBOUND:                -0.447
REMARK  Name = No_2058-gen_results/8p0m/2024-11-26-14-13-15/
REMARK  2 active torsions:
REMARK  status: ('A' for Active; 'I' for Inactive)
REMARK    1  A    between atoms: C_3  and  C_7
REMARK    2  A    between atoms: C_8  and  C_14
REMARK                            x       y       z     vdW  Elec       q    Type
REMARK                         _______ _______ _______ _____ _____    ______ ____
ROOT
ATOM      1  C   UNL A   1     -24.565  -2.502  28.879  0.00  0.00    +0.004 A 
ATOM      2  C   UNL A   1     -25.731  -2.546  29.580  0.00  0.00    +0.071 A 
ATOM      3  C   UNL A   1     -26.317  -3.770  29.910  0.00  0.00    +0.004 A 
ATOM      4  C   UNL A   1     -25.732  -5.008  29.489  0.00  0.00    -0.000 A 
ATOM      5  C   UNL A   1     -24.051  -3.766  28.535  0.00  0.00    -0.000 A 
ATOM      6  C   UNL A   1     -24.620  -4.949  28.840  0.00  0.00    -0.000 A 
ENDROOT
BRANCH   1   9
ATOM      7  C   UNL A   1     -23.706   0.753  27.394  0.00  0.00    +0.030 A 
ATOM      8  C   UNL A   1     -24.295  -0.281  27.608  0.00  0.00    +0.002 A 
ATOM      9  C   UNL A   1     -23.887  -1.220  28.554  0.00  0.00    +0.000 A 
ATOM     10  C   UNL A   1     -22.659  -0.991  29.292  0.00  0.00    +0.002 A 
ATOM     11  C   UNL A   1     -22.021   0.231  28.982  0.00  0.00    +0.030 A 
ATOM     12  C   UNL A   1     -22.479   1.050  28.069  0.00  0.00    +0.140 A 
ATOM     13  F   UNL A   1     -21.800   2.177  27.819  0.00  0.00    -0.204 F 
ENDBRANCH   1   9
BRANCH   2  14
ATOM     14  C   UNL A   1     -26.451  -1.290  29.986  0.00  0.00    +0.419 C 
ATOM     15  F   UNL A   1     -27.490  -1.610  30.856  0.00  0.00    -0.166 F 
ATOM     16  F   UNL A   1     -25.622  -0.450  30.635  0.00  0.00    -0.166 F 
ATOM     17  F   UNL A   1     -26.993  -0.682  28.965  0.00  0.00    -0.166 F 
ENDBRANCH   2  14
TORSDOF 2
ENDMDL
ENDMDL
