MODEL 2059
MODEL 1
REMARK VINA RESULT:    -7.135      0.000      0.000
REMARK INTER + INTRA:          -9.128
REMARK INTER:                  -8.387
REMARK INTRA:                  -0.742
REMARK UNBOUND:                -0.742
REMARK  Name = No_2059-gen_results/8p0m/2024-11-26-14-13-15/
REMARK  3 active torsions:
REMARK  status: ('A' for Active; 'I' for Inactive)
REMARK    1  A    between atoms: C_2  and  C_7
REMARK    2  A    between atoms: C_6  and  C_14
REMARK    3  A    between atoms: C_7  and  C_8
REMARK                            x       y       z     vdW  Elec       q    Type
REMARK                         _______ _______ _______ _____ _____    ______ ____
ROOT
ATOM      1  C   UNL A   1     -25.679   2.451  26.147  0.00  0.00    -0.004 A 
ATOM      2  C   UNL A   1     -24.653   1.837  25.969  0.00  0.00    -0.018 A 
ATOM      3  C   UNL A   1     -24.575   0.680  25.262  0.00  0.00    -0.004 A 
ATOM      4  C   UNL A   1     -25.756   0.159  24.700  0.00  0.00    -0.000 A 
ATOM      5  C   UNL A   1     -26.906   2.028  25.521  0.00  0.00    -0.000 A 
ATOM      6  C   UNL A   1     -26.887   0.857  24.825  0.00  0.00    -0.000 A 
ENDROOT
BRANCH   6   7
ATOM      7  C   UNL A   1     -28.203   0.370  24.225  0.00  0.00    -0.000 A 
ATOM      8  C   UNL A   1     -28.299  -0.908  24.030  0.00  0.00    -0.000 A 
ATOM      9  C   UNL A   1     -29.187   1.291  23.993  0.00  0.00    -0.000 A 
ATOM     10  C   UNL A   1     -29.461  -1.497  23.451  0.00  0.00    +0.000 A 
ATOM     11  C   UNL A   1     -30.383   0.760  23.413  0.00  0.00    +0.000 A 
ATOM     12  C   UNL A   1     -30.499  -0.609  23.170  0.00  0.00    +0.000 A 
ENDBRANCH   6   7
BRANCH   2  13
ATOM     13  C   UNL A   1     -23.309   2.308  26.508  0.00  0.00    +0.053 C 
BRANCH  13  14
ATOM     14  C   UNL A   1     -22.564   1.374  27.349  0.00  0.00    -0.018 A 
ATOM     15  C   UNL A   1     -21.381   1.167  27.505  0.00  0.00    -0.004 A 
ATOM     16  C   UNL A   1     -20.809   0.195  28.492  0.00  0.00    -0.000 A 
ATOM     17  C   UNL A   1     -21.750  -0.408  29.321  0.00  0.00    -0.000 A 
ATOM     18  C   UNL A   1     -23.450   0.531  28.258  0.00  0.00    -0.004 A 
ATOM     19  C   UNL A   1     -23.039  -0.325  29.141  0.00  0.00    -0.000 A 
ENDBRANCH  13  14
ENDBRANCH   2  13
TORSDOF 3
ENDMDL
ENDMDL
