REMARK  Name = No_2059-gen_results/8p0m/2024-11-26-14-13-15/
REMARK  3 active torsions:
REMARK  status: ('A' for Active; 'I' for Inactive)
REMARK    1  A    between atoms: C_2  and  C_7
REMARK    2  A    between atoms: C_6  and  C_14
REMARK    3  A    between atoms: C_7  and  C_8
REMARK                            x       y       z     vdW  Elec       q    Type
REMARK                         _______ _______ _______ _____ _____    ______ ____
ROOT
ATOM      1  C   UNL A   1     -28.016  -0.814  28.878  0.00  0.00    -0.004 A 
ATOM      2  C   UNL A   1     -27.064  -0.119  28.608  0.00  0.00    -0.018 A 
ATOM      3  C   UNL A   1     -26.929   1.171  29.008  0.00  0.00    -0.004 A 
ATOM      4  C   UNL A   1     -27.956   1.741  29.784  0.00  0.00    -0.000 A 
ATOM      5  C   UNL A   1     -29.057  -0.327  29.747  0.00  0.00    -0.000 A 
ATOM      6  C   UNL A   1     -28.983   0.972  30.152  0.00  0.00    -0.000 A 
ENDROOT
BRANCH   6   7
ATOM      7  C   UNL A   1     -30.124   1.510  31.011  0.00  0.00    -0.000 A 
ATOM      8  C   UNL A   1     -29.784   2.330  31.956  0.00  0.00    -0.000 A 
ATOM      9  C   UNL A   1     -31.402   1.140  30.693  0.00  0.00    -0.000 A 
ATOM     10  C   UNL A   1     -30.744   2.887  32.851  0.00  0.00    +0.000 A 
ATOM     11  C   UNL A   1     -32.413   1.671  31.555  0.00  0.00    +0.000 A 
ATOM     12  C   UNL A   1     -32.069   2.534  32.596  0.00  0.00    +0.000 A 
ENDBRANCH   6   7
BRANCH   2  13
ATOM     13  C   UNL A   1     -25.881  -0.626  27.794  0.00  0.00    +0.053 C 
BRANCH  13  14
ATOM     14  C   UNL A   1     -24.547  -0.231  28.239  0.00  0.00    -0.018 A 
ATOM     15  C   UNL A   1     -23.688  -0.797  28.878  0.00  0.00    -0.004 A 
ATOM     16  C   UNL A   1     -22.331  -0.232  29.170  0.00  0.00    -0.000 A 
ATOM     17  C   UNL A   1     -22.069   0.989  28.556  0.00  0.00    -0.000 A 
ATOM     18  C   UNL A   1     -24.125   1.150  27.752  0.00  0.00    -0.004 A 
ATOM     19  C   UNL A   1     -22.973   1.710  27.953  0.00  0.00    -0.000 A 
ENDBRANCH  13  14
ENDBRANCH   2  13
TORSDOF 3
