REMARK  Name = No_2060-gen_results/8p0m/2024-11-26-14-13-15/
REMARK  4 active torsions:
REMARK  status: ('A' for Active; 'I' for Inactive)
REMARK    1  A    between atoms: C_3  and  C_7
REMARK    2  A    between atoms: C_6  and  C_12
REMARK    3  A    between atoms: C_12  and  C_14
REMARK    4  A    between atoms: C_15  and  C_16
REMARK                            x       y       z     vdW  Elec       q    Type
REMARK                         _______ _______ _______ _____ _____    ______ ____
ROOT
ATOM      1  C   UNL A   1     -28.016  -0.814  28.878  0.00  0.00    +0.034 A 
ATOM      2  C   UNL A   1     -28.469  -0.785  29.829  0.00  0.00    +0.140 A 
ATOM      3  C   UNL A   1     -27.087   0.290  28.638  0.00  0.00    +0.073 A 
ATOM      4  C   UNL A   1     -26.832   1.249  29.587  0.00  0.00    +0.001 A 
ATOM      5  C   UNL A   1     -28.391   0.080  31.006  0.00  0.00    +0.026 A 
ATOM      6  C   UNL A   1     -27.494   1.152  30.784  0.00  0.00    -0.006 A 
ATOM      7  F   UNL A   1     -29.344  -1.912  30.175  0.00  0.00    -0.204 F 
ENDROOT
BRANCH   3   8
ATOM      8  C   UNL A   1     -26.311   0.392  27.364  0.00  0.00    +0.419 C 
ATOM      9  F   UNL A   1     -25.553  -0.407  27.229  0.00  0.00    -0.166 F 
ATOM     10  F   UNL A   1     -25.617   1.610  27.298  0.00  0.00    -0.166 F 
ATOM     11  F   UNL A   1     -27.194   0.486  26.287  0.00  0.00    -0.166 F 
ENDBRANCH   3   8
BRANCH   6  12
ATOM     12  C   UNL A   1     -27.282   2.197  31.854  0.00  0.00    +0.101 C 
ATOM     13 BR   UNL A   1     -26.180   3.360  32.144  0.00  0.00    -0.072 Br
BRANCH  12  14
ATOM     14  C   UNL A   1     -28.373   2.223  32.948  0.00  0.00    -0.011 C 
ATOM     15  C   UNL A   1     -28.202   2.794  33.878  0.00  0.00    -0.004 C 
BRANCH  15  16
ATOM     16  C   UNL A   1     -29.060   2.703  35.071  0.00  0.00    -0.005 C 
ATOM     17  C   UNL A   1     -30.166   1.925  34.899  0.00  0.00    -0.026 C 
ATOM     18  C   UNL A   1     -30.351   1.231  33.733  0.00  0.00    +0.031 C 
ENDBRANCH  15  16
ENDBRANCH  12  14
ENDBRANCH   6  12
TORSDOF 4
