MODEL 2060
MODEL 1
REMARK VINA RESULT:    -6.463      0.000      0.000
REMARK INTER + INTRA:          -8.704
REMARK INTER:                  -7.974
REMARK INTRA:                  -0.730
REMARK UNBOUND:                -0.730
REMARK  Name = No_2060-gen_results/8p0m/2024-11-26-14-13-15/
REMARK  4 active torsions:
REMARK  status: ('A' for Active; 'I' for Inactive)
REMARK    1  A    between atoms: C_3  and  C_7
REMARK    2  A    between atoms: C_6  and  C_12
REMARK    3  A    between atoms: C_12  and  C_14
REMARK    4  A    between atoms: C_15  and  C_16
REMARK                            x       y       z     vdW  Elec       q    Type
REMARK                         _______ _______ _______ _____ _____    ______ ____
ROOT
ATOM      1  C   UNL A   1     -21.958  -0.729  29.091  0.00  0.00    +0.034 A 
ATOM      2  C   UNL A   1     -21.628   0.134  28.583  0.00  0.00    +0.140 A 
ATOM      3  C   UNL A   1     -23.354  -1.071  28.818  0.00  0.00    +0.073 A 
ATOM      4  C   UNL A   1     -24.132  -0.333  27.962  0.00  0.00    +0.001 A 
ATOM      5  C   UNL A   1     -22.211   1.086  27.639  0.00  0.00    +0.026 A 
ATOM      6  C   UNL A   1     -23.562   0.764  27.368  0.00  0.00    -0.006 A 
ATOM      7  F   UNL A   1     -20.211   0.485  28.737  0.00  0.00    -0.204 F 
ENDROOT
BRANCH   3   8
ATOM      8  C   UNL A   1     -23.986  -2.291  29.408  0.00  0.00    +0.419 C 
ATOM      9  F   UNL A   1     -23.806  -2.414  30.496  0.00  0.00    -0.166 F 
ATOM     10  F   UNL A   1     -23.499  -3.454  28.793  0.00  0.00    -0.166 F 
ATOM     11  F   UNL A   1     -25.343  -2.317  29.079  0.00  0.00    -0.166 F 
ENDBRANCH   3   8
BRANCH   6  12
ATOM     12  C   UNL A   1     -24.379   1.636  26.444  0.00  0.00    +0.101 C 
ATOM     13 BR   UNL A   1     -24.590   3.237  26.239  0.00  0.00    -0.072 Br
BRANCH  12  14
ATOM     14  C   UNL A   1     -25.213   0.858  25.401  0.00  0.00    -0.011 C 
ATOM     15  C   UNL A   1     -26.243   1.184  25.172  0.00  0.00    -0.004 C 
BRANCH  15  16
ATOM     16  C   UNL A   1     -27.200   0.394  24.379  0.00  0.00    -0.005 C 
ATOM     17  C   UNL A   1     -28.194   1.135  23.813  0.00  0.00    -0.026 C 
ATOM     18  C   UNL A   1     -28.189   2.500  23.921  0.00  0.00    +0.031 C 
ENDBRANCH  15  16
ENDBRANCH  12  14
ENDBRANCH   6  12
TORSDOF 4
ENDMDL
ENDMDL
