MODEL 2061
MODEL 1
REMARK VINA RESULT:    -4.343      0.000      0.000
REMARK INTER + INTRA:          -4.343
REMARK INTER:                  -4.343
REMARK INTRA:                   0.000
REMARK UNBOUND:                 0.000
REMARK  Name = No_2061-gen_results/8p0m/2024-11-26-14-13-15/
REMARK  0 active torsions:
REMARK  status: ('A' for Active; 'I' for Inactive)
REMARK                            x       y       z     vdW  Elec       q    Type
REMARK                         _______ _______ _______ _____ _____    ______ ____
ROOT
ATOM      1  C   UNL A   1     -24.089  -4.830  28.557  0.00  0.00    +0.000 A 
ATOM      2  C   UNL A   1     -24.923  -5.293  29.005  0.00  0.00    +0.000 A 
ATOM      3  C   UNL A   1     -24.052  -3.376  28.753  0.00  0.00    +0.000 A 
ATOM      4  C   UNL A   1     -25.071  -2.699  29.285  0.00  0.00    +0.000 A 
ATOM      5  C   UNL A   1     -26.133  -4.783  29.602  0.00  0.00    +0.000 A 
ATOM      6  C   UNL A   1     -26.091  -3.429  29.753  0.00  0.00    +0.000 A 
ENDROOT
TORSDOF 0
ENDMDL
ENDMDL
