MODEL 2062
MODEL 1
REMARK VINA RESULT:    -4.703      0.000      0.000
REMARK INTER + INTRA:          -5.102
REMARK INTER:                  -4.978
REMARK INTRA:                  -0.124
REMARK UNBOUND:                -0.124
REMARK  Name = No_2062-gen_results/8p0m/2024-11-26-14-13-15/
REMARK  1 active torsions:
REMARK  status: ('A' for Active; 'I' for Inactive)
REMARK    1  A    between atoms: C_2  and  N_9
REMARK                            x       y       z     vdW  Elec       q    Type
REMARK                         _______ _______ _______ _____ _____    ______ ____
ROOT
ATOM      1  C   UNL A   1     -23.801  -2.338  29.176  0.00  0.00    +0.214 A 
ATOM      2  C   UNL A   1     -24.675  -1.839  29.847  0.00  0.00    +0.120 A 
ATOM      3  C   UNL A   1     -25.855  -2.482  30.166  0.00  0.00    +0.023 A 
ATOM      4  C   UNL A   1     -26.031  -3.819  29.711  0.00  0.00    +0.013 A 
ATOM      5  C   UNL A   1     -24.959  -4.390  29.114  0.00  0.00    +0.061 A 
ATOM      6  C   UNL A   1     -23.852  -3.710  28.885  0.00  0.00    +0.055 A 
ATOM      7  O   UNL A   1     -22.618  -1.652  28.928  0.00  0.00    -0.285 OA
ATOM      8 CL   UNL A   1     -24.939  -6.010  28.612  0.00  0.00    -0.082 Cl
ENDROOT
BRANCH   2   9
ATOM      9  N   UNL A   1     -24.868  -0.427  30.310  0.00  0.00    -0.245 NA
ATOM     10  C   UNL A   1     -24.453   0.134  31.318  0.00  0.00    +0.073 C 
ATOM     11  C   UNL A   1     -23.720  -0.577  32.260  0.00  0.00    +0.053 C 
ENDBRANCH   2   9
TORSDOF 1
ENDMDL
ENDMDL
