REMARK  Name = No_2062-gen_results/8p0m/2024-11-26-14-13-15/
REMARK  1 active torsions:
REMARK  status: ('A' for Active; 'I' for Inactive)
REMARK    1  A    between atoms: C_2  and  N_9
REMARK                            x       y       z     vdW  Elec       q    Type
REMARK                         _______ _______ _______ _____ _____    ______ ____
ROOT
ATOM      1  C   UNL A   1     -28.016  -0.814  28.878  0.00  0.00    +0.214 A 
ATOM      2  C   UNL A   1     -27.064  -0.119  28.608  0.00  0.00    +0.120 A 
ATOM      3  C   UNL A   1     -27.001   0.691  27.491  0.00  0.00    +0.023 A 
ATOM      4  C   UNL A   1     -28.137   0.736  26.635  0.00  0.00    +0.013 A 
ATOM      5  C   UNL A   1     -29.236   0.076  27.069  0.00  0.00    +0.061 A 
ATOM      6  C   UNL A   1     -29.218  -0.643  28.175  0.00  0.00    +0.055 A 
ATOM      7  O   UNL A   1     -28.033  -1.574  30.042  0.00  0.00    -0.285 OA
ATOM      8 CL   UNL A   1     -30.718   0.113  26.244  0.00  0.00    -0.082 Cl
ENDROOT
BRANCH   2   9
ATOM      9  N   UNL A   1     -25.684  -0.080  29.190  0.00  0.00    -0.245 NA
ATOM     10  C   UNL A   1     -24.694   0.546  28.826  0.00  0.00    +0.073 C 
ATOM     11  C   UNL A   1     -24.748   1.331  27.681  0.00  0.00    +0.053 C 
ENDBRANCH   2   9
TORSDOF 1
