REMARK  Name = No_2063-gen_results/8p0m/2024-11-26-14-13-15/
REMARK  3 active torsions:
REMARK  status: ('A' for Active; 'I' for Inactive)
REMARK    1  A    between atoms: C_3  and  C_7
REMARK    2  A    between atoms: C_6  and  O_13
REMARK    3  A    between atoms: O_13  and  C_14
REMARK                            x       y       z     vdW  Elec       q    Type
REMARK                         _______ _______ _______ _____ _____    ______ ____
ROOT
ATOM      1  C   UNL A   1     -28.016  -0.814  28.878  0.00  0.00    +0.037 A 
ATOM      2  C   UNL A   1     -27.064  -0.119  28.608  0.00  0.00    +0.003 A 
ATOM      3  C   UNL A   1     -25.765  -0.390  29.036  0.00  0.00    +0.000 A 
ATOM      4  C   UNL A   1     -25.530  -1.530  29.901  0.00  0.00    +0.003 A 
ATOM      5  C   UNL A   1     -26.658  -2.292  30.203  0.00  0.00    +0.037 A 
ATOM      6  C   UNL A   1     -27.855  -1.956  29.763  0.00  0.00    +0.145 A 
ENDROOT
BRANCH   3   7
ATOM      7  C   UNL A   1     -24.544   0.413  28.738  0.00  0.00    +0.000 A 
ATOM      8  C   UNL A   1     -23.323   0.048  29.050  0.00  0.00    +0.000 A 
ATOM      9  C   UNL A   1     -22.200   0.841  28.719  0.00  0.00    +0.000 A 
ATOM     10  C   UNL A   1     -22.363   1.839  27.717  0.00  0.00    +0.000 A 
ATOM     11  C   UNL A   1     -24.604   1.516  27.812  0.00  0.00    +0.000 A 
ATOM     12  C   UNL A   1     -23.558   2.190  27.359  0.00  0.00    +0.000 A 
ENDBRANCH   3   7
BRANCH   6  13
ATOM     13  O   UNL A   1     -28.936  -2.709  30.125  0.00  0.00    -0.454 OA
BRANCH  13  14
ATOM     14  C   UNL A   1     -30.059  -2.159  30.588  0.00  0.00    +0.145 A 
ATOM     15  C   UNL A   1     -31.133  -2.803  30.179  0.00  0.00    +0.037 A 
ATOM     16  C   UNL A   1     -32.417  -2.192  30.336  0.00  0.00    +0.003 A 
ATOM     17  C   UNL A   1     -32.459  -0.987  31.085  0.00  0.00    +0.000 A 
ATOM     18  C   UNL A   1     -31.320  -0.412  31.527  0.00  0.00    +0.003 A 
ATOM     19  C   UNL A   1     -30.062  -0.958  31.244  0.00  0.00    +0.037 A 
ENDBRANCH  13  14
ENDBRANCH   6  13
TORSDOF 3
