MODEL 2063
MODEL 1
REMARK VINA RESULT:    -6.578      0.000      0.000
REMARK INTER + INTRA:          -8.394
REMARK INTER:                  -7.731
REMARK INTRA:                  -0.663
REMARK UNBOUND:                -0.663
REMARK  Name = No_2063-gen_results/8p0m/2024-11-26-14-13-15/
REMARK  3 active torsions:
REMARK  status: ('A' for Active; 'I' for Inactive)
REMARK    1  A    between atoms: C_3  and  C_7
REMARK    2  A    between atoms: C_6  and  O_13
REMARK    3  A    between atoms: O_13  and  C_14
REMARK                            x       y       z     vdW  Elec       q    Type
REMARK                         _______ _______ _______ _____ _____    ______ ____
ROOT
ATOM      1  C   UNL A   1     -25.888   0.024  24.383  0.00  0.00    +0.037 A 
ATOM      2  C   UNL A   1     -25.056  -0.194  25.233  0.00  0.00    +0.003 A 
ATOM      3  C   UNL A   1     -25.182   0.217  26.560  0.00  0.00    +0.000 A 
ATOM      4  C   UNL A   1     -26.339   0.999  26.950  0.00  0.00    +0.003 A 
ATOM      5  C   UNL A   1     -27.263   1.243  25.935  0.00  0.00    +0.037 A 
ATOM      6  C   UNL A   1     -27.059   0.826  24.701  0.00  0.00    +0.145 A 
ENDROOT
BRANCH   3   7
ATOM      7  C   UNL A   1     -24.205  -0.021  27.661  0.00  0.00    +0.000 A 
ATOM      8  C   UNL A   1     -24.202  -1.082  28.433  0.00  0.00    +0.000 A 
ATOM      9  C   UNL A   1     -23.234  -1.264  29.447  0.00  0.00    +0.000 A 
ATOM     10  C   UNL A   1     -22.043  -0.487  29.377  0.00  0.00    +0.000 A 
ATOM     11  C   UNL A   1     -23.004   0.772  27.756  0.00  0.00    +0.000 A 
ATOM     12  C   UNL A   1     -22.003   0.544  28.592  0.00  0.00    +0.000 A 
ENDBRANCH   3   7
BRANCH   6  13
ATOM     13  O   UNL A   1     -27.972   1.131  23.732  0.00  0.00    -0.454 OA
BRANCH  13  14
ATOM     14  C   UNL A   1     -29.054   0.382  23.517  0.00  0.00    +0.145 A 
ATOM     15  C   UNL A   1     -30.134   1.112  23.325  0.00  0.00    +0.037 A 
ATOM     16  C   UNL A   1     -31.419   0.485  23.370  0.00  0.00    +0.003 A 
ATOM     17  C   UNL A   1     -31.431  -0.932  23.454  0.00  0.00    +0.000 A 
ATOM     18  C   UNL A   1     -30.279  -1.623  23.590  0.00  0.00    +0.003 A 
ATOM     19  C   UNL A   1     -29.040  -0.977  23.680  0.00  0.00    +0.037 A 
ENDBRANCH  13  14
ENDBRANCH   6  13
TORSDOF 3
ENDMDL
ENDMDL
