REMARK  Name = No_2064-gen_results/8p0m/2024-11-26-14-13-15/
REMARK  6 active torsions:
REMARK  status: ('A' for Active; 'I' for Inactive)
REMARK    1  A    between atoms: C_2  and  C_6
REMARK    2  A    between atoms: C_3  and  C_10
REMARK    3  A    between atoms: C_6  and  O_9
REMARK    4  A    between atoms: O_9  and  C_18
REMARK    5  A    between atoms: C_10  and  C_11
REMARK    6  A    between atoms: C_18  and  C_19
REMARK                            x       y       z     vdW  Elec       q    Type
REMARK                         _______ _______ _______ _____ _____    ______ ____
ROOT
ATOM      1  C   UNL A   1     -28.016  -0.814  28.878  0.00  0.00    +0.005 A 
ATOM      2  C   UNL A   1     -28.469  -0.785  29.829  0.00  0.00    +0.075 A 
ATOM      3  C   UNL A   1     -27.136   0.236  28.535  0.00  0.00    +0.014 A 
ATOM      4  C   UNL A   1     -26.875   1.282  29.398  0.00  0.00    -0.001 A 
ATOM      5  C   UNL A   1     -27.507   1.238  30.630  0.00  0.00    -0.000 A 
ATOM      6  C   UNL A   1     -28.322   0.132  30.967  0.00  0.00    +0.006 A 
ENDROOT
BRANCH   2   7
ATOM      7  C   UNL A   1     -29.409  -1.944  30.289  0.00  0.00    +0.342 C 
ATOM      8  O   UNL A   1     -29.134  -3.179  30.356  0.00  0.00    -0.245 OA
BRANCH   7   9
ATOM      9  O   UNL A   1     -30.492  -1.679  31.026  0.00  0.00    -0.434 OA
BRANCH   9  10
ATOM     10  C   UNL A   1     -31.624  -2.329  30.704  0.00  0.00    +0.308 C 
BRANCH  10  11
ATOM     11  C   UNL A   1     -32.240  -1.979  29.547  0.00  0.00    +0.354 C 
ATOM     12  O   UNL A   1     -32.198  -2.664  28.637  0.00  0.00    -0.255 OA
ATOM     13  F   UNL A   1     -32.597  -0.798  29.388  0.00  0.00    -0.160 F 
ENDBRANCH  10  11
ENDBRANCH   9  10
ENDBRANCH   7   9
ENDBRANCH   2   7
BRANCH   3  14
ATOM     14  C   UNL A   1     -26.387   0.301  27.215  0.00  0.00    +0.206 C 
ATOM     15  F   UNL A   1     -27.091  -0.266  26.260  0.00  0.00    -0.228 F 
BRANCH  14  16
ATOM     16  C   UNL A   1     -25.239   0.802  26.994  0.00  0.00    +0.014 A 
ATOM     17  C   UNL A   1     -24.451   1.230  28.110  0.00  0.00    -0.001 A 
ATOM     18  C   UNL A   1     -23.102   1.774  27.738  0.00  0.00    -0.000 A 
ATOM     19  C   UNL A   1     -22.778   2.071  26.466  0.00  0.00    -0.000 A 
ATOM     20  C   UNL A   1     -23.615   1.767  25.436  0.00  0.00    -0.000 A 
ATOM     21  C   UNL A   1     -24.825   1.109  25.695  0.00  0.00    -0.001 A 
ENDBRANCH  14  16
ENDBRANCH   3  14
TORSDOF 6
