MODEL 2064
MODEL 1
REMARK VINA RESULT:    -7.079      0.000      0.000
REMARK INTER + INTRA:         -10.758
REMARK INTER:                  -9.563
REMARK INTRA:                  -1.196
REMARK UNBOUND:                -1.196
REMARK  Name = No_2064-gen_results/8p0m/2024-11-26-14-13-15/
REMARK  6 active torsions:
REMARK  status: ('A' for Active; 'I' for Inactive)
REMARK    1  A    between atoms: C_2  and  C_6
REMARK    2  A    between atoms: C_3  and  C_10
REMARK    3  A    between atoms: C_6  and  O_9
REMARK    4  A    between atoms: O_9  and  C_18
REMARK    5  A    between atoms: C_10  and  C_11
REMARK    6  A    between atoms: C_18  and  C_19
REMARK                            x       y       z     vdW  Elec       q    Type
REMARK                         _______ _______ _______ _____ _____    ______ ____
ROOT
ATOM      1  C   UNL A   1     -23.732   0.456  28.411  0.00  0.00    +0.005 A 
ATOM      2  C   UNL A   1     -23.247   1.164  27.799  0.00  0.00    +0.075 A 
ATOM      3  C   UNL A   1     -22.927  -0.458  29.126  0.00  0.00    +0.014 A 
ATOM      4  C   UNL A   1     -21.549  -0.450  29.029  0.00  0.00    -0.001 A 
ATOM      5  C   UNL A   1     -20.994   0.517  28.207  0.00  0.00    -0.000 A 
ATOM      6  C   UNL A   1     -21.828   1.464  27.567  0.00  0.00    +0.006 A 
ENDROOT
BRANCH   2   7
ATOM      7  C   UNL A   1     -24.078   2.236  27.026  0.00  0.00    +0.342 C 
ATOM      8  O   UNL A   1     -24.160   3.476  27.276  0.00  0.00    -0.245 OA
BRANCH   7   9
ATOM      9  O   UNL A   1     -24.488   1.997  25.776  0.00  0.00    -0.434 OA
BRANCH   9  10
ATOM     10  C   UNL A   1     -25.772   1.635  25.613  0.00  0.00    +0.308 C 
BRANCH  10  11
ATOM     11  C   UNL A   1     -26.016   0.456  24.987  0.00  0.00    +0.354 C 
ATOM     12  O   UNL A   1     -27.005   0.279  24.449  0.00  0.00    -0.255 OA
ATOM     13  F   UNL A   1     -25.293  -0.523  25.243  0.00  0.00    -0.160 F 
ENDBRANCH  10  11
ENDBRANCH   9  10
ENDBRANCH   7   9
ENDBRANCH   2   7
BRANCH   3  14
ATOM     14  C   UNL A   1     -23.490  -1.504  30.073  0.00  0.00    +0.206 C 
ATOM     15  F   UNL A   1     -23.006  -1.334  31.284  0.00  0.00    -0.228 F 
BRANCH  14  16
ATOM     16  C   UNL A   1     -24.302  -2.445  29.801  0.00  0.00    +0.014 A 
ATOM     17  C   UNL A   1     -25.609  -2.412  30.383  0.00  0.00    -0.001 A 
ATOM     18  C   UNL A   1     -26.496  -3.550  29.970  0.00  0.00    -0.000 A 
ATOM     19  C   UNL A   1     -26.017  -4.631  29.326  0.00  0.00    -0.000 A 
ATOM     20  C   UNL A   1     -24.725  -4.682  28.901  0.00  0.00    -0.000 A 
ATOM     21  C   UNL A   1     -23.880  -3.584  29.110  0.00  0.00    -0.001 A 
ENDBRANCH  14  16
ENDBRANCH   3  14
TORSDOF 6
ENDMDL
ENDMDL
