MODEL 2066
MODEL 1
REMARK VINA RESULT:    -6.121      0.000      0.000
REMARK INTER + INTRA:          -8.240
REMARK INTER:                  -7.552
REMARK INTRA:                  -0.688
REMARK UNBOUND:                -0.688
REMARK  Name = No_2066-gen_results/8p0m/2024-11-26-14-13-15/
REMARK  4 active torsions:
REMARK  status: ('A' for Active; 'I' for Inactive)
REMARK    1  A    between atoms: C_2  and  O_15
REMARK    2  A    between atoms: C_3  and  C_4
REMARK    3  A    between atoms: O_15  and  C_16
REMARK    4  A    between atoms: C_16  and  C_17
REMARK                            x       y       z     vdW  Elec       q    Type
REMARK                         _______ _______ _______ _____ _____    ______ ____
ROOT
ATOM      1  C   UNL A   1     -26.659  -1.773  30.036  0.00  0.00    +0.044 A 
ATOM      2  C   UNL A   1     -25.750  -1.023  29.760  0.00  0.00    +0.140 A 
ATOM      3  C   UNL A   1     -24.571  -1.436  29.142  0.00  0.00    +0.034 A 
ATOM      4  C   UNL A   1     -26.448  -3.241  29.861  0.00  0.00    +0.038 A 
ATOM      5  C   UNL A   1     -25.365  -3.741  29.191  0.00  0.00    +0.007 A 
ATOM      6  C   UNL A   1     -24.314  -2.860  28.819  0.00  0.00    +0.004 A 
ATOM      7 BR   UNL A   1     -27.814  -4.446  30.348  0.00  0.00    -0.049 Br
ENDROOT
BRANCH   3   8
ATOM      8  C   UNL A   1     -23.411  -0.596  28.782  0.00  0.00    +0.006 A 
ATOM      9  C   UNL A   1     -22.033  -0.901  29.064  0.00  0.00    +0.000 A 
ATOM     10  C   UNL A   1     -21.003  -0.029  28.658  0.00  0.00    +0.003 A 
ATOM     11  C   UNL A   1     -21.244   1.023  27.720  0.00  0.00    +0.042 A 
ATOM     12  C   UNL A   1     -23.558   0.551  27.887  0.00  0.00    +0.042 A 
ATOM     13  C   UNL A   1     -22.519   1.300  27.418  0.00  0.00    +0.196 A 
ATOM     14  O   UNL A   1     -22.815   2.310  26.571  0.00  0.00    -0.287 OA
ENDBRANCH   3   8
BRANCH   2  15
ATOM     15  O   UNL A   1     -25.890   0.325  29.941  0.00  0.00    -0.465 OA
BRANCH  15  16
ATOM     16  C   UNL A   1     -25.637   0.848  31.193  0.00  0.00    +0.305 C 
BRANCH  16  17
ATOM     17  C   UNL A   1     -24.417   1.204  31.549  0.00  0.00    +0.354 C 
ATOM     18  O   UNL A   1     -24.068   2.382  31.266  0.00  0.00    -0.255 OA
ATOM     19  F   UNL A   1     -23.623   0.378  31.949  0.00  0.00    -0.160 F 
ENDBRANCH  16  17
ENDBRANCH  15  16
ENDBRANCH   2  15
TORSDOF 4
ENDMDL
ENDMDL
