REMARK  Name = No_2066-gen_results/8p0m/2024-11-26-14-13-15/
REMARK  4 active torsions:
REMARK  status: ('A' for Active; 'I' for Inactive)
REMARK    1  A    between atoms: C_2  and  O_15
REMARK    2  A    between atoms: C_3  and  C_4
REMARK    3  A    between atoms: O_15  and  C_16
REMARK    4  A    between atoms: C_16  and  C_17
REMARK                            x       y       z     vdW  Elec       q    Type
REMARK                         _______ _______ _______ _____ _____    ______ ____
ROOT
ATOM      1  C   UNL A   1     -28.016  -0.814  28.878  0.00  0.00    +0.044 A 
ATOM      2  C   UNL A   1     -27.064  -0.119  28.608  0.00  0.00    +0.140 A 
ATOM      3  C   UNL A   1     -25.765  -0.390  29.036  0.00  0.00    +0.034 A 
ATOM      4  C   UNL A   1     -27.829  -1.929  29.855  0.00  0.00    +0.038 A 
ATOM      5  C   UNL A   1     -26.588  -2.327  30.268  0.00  0.00    +0.007 A 
ATOM      6  C   UNL A   1     -25.456  -1.543  29.915  0.00  0.00    +0.004 A 
ATOM      7 BR   UNL A   1     -29.306  -2.989  30.356  0.00  0.00    -0.049 Br
ENDROOT
BRANCH   3   8
ATOM      8  C   UNL A   1     -24.552   0.406  28.765  0.00  0.00    +0.006 A 
ATOM      9  C   UNL A   1     -23.230   0.118  29.258  0.00  0.00    +0.000 A 
ATOM     10  C   UNL A   1     -22.139   0.943  28.922  0.00  0.00    +0.003 A 
ATOM     11  C   UNL A   1     -22.230   1.909  27.872  0.00  0.00    +0.042 A 
ATOM     12  C   UNL A   1     -24.554   1.470  27.762  0.00  0.00    +0.042 A 
ATOM     13  C   UNL A   1     -23.447   2.167  27.376  0.00  0.00    +0.196 A 
ATOM     14  O   UNL A   1     -23.607   3.100  26.411  0.00  0.00    -0.287 OA
ENDBRANCH   3   8
BRANCH   2  15
ATOM     15  O   UNL A   1     -27.202   0.934  27.747  0.00  0.00    -0.465 OA
BRANCH  15  16
ATOM     16  C   UNL A   1     -28.476   1.319  27.381  0.00  0.00    +0.305 C 
BRANCH  16  17
ATOM     17  C   UNL A   1     -29.186   2.135  28.137  0.00  0.00    +0.354 C 
ATOM     18  O   UNL A   1     -28.539   2.896  28.907  0.00  0.00    -0.255 OA
ATOM     19  F   UNL A   1     -30.390   2.013  28.218  0.00  0.00    -0.160 F 
ENDBRANCH  16  17
ENDBRANCH  15  16
ENDBRANCH   2  15
TORSDOF 4
