MODEL 2067
MODEL 1
REMARK VINA RESULT:    -6.825      0.000      0.000
REMARK INTER + INTRA:          -8.589
REMARK INTER:                  -8.022
REMARK INTRA:                  -0.567
REMARK UNBOUND:                -0.567
REMARK  Name = No_2067-gen_results/8p0m/2024-11-26-14-13-15/
REMARK  3 active torsions:
REMARK  status: ('A' for Active; 'I' for Inactive)
REMARK    1  A    between atoms: C_3  and  O_7
REMARK    2  A    between atoms: O_7  and  C_8
REMARK    3  A    between atoms: C_8  and  C_9
REMARK                            x       y       z     vdW  Elec       q    Type
REMARK                         _______ _______ _______ _____ _____    ______ ____
ROOT
ATOM      1  C   UNL A   1     -23.701  -0.922  29.807  0.00  0.00    +0.346 C 
ATOM      2  O   UNL A   1     -23.539  -1.261  31.001  0.00  0.00    -0.244 OA
ENDROOT
BRANCH   1   3
ATOM      3  C   UNL A   1     -23.012  -0.076  29.045  0.00  0.00    +0.076 A 
ATOM      4  C   UNL A   1     -23.471   0.597  28.250  0.00  0.00    +0.006 A 
ATOM      5  C   UNL A   1     -22.661   1.573  27.342  0.00  0.00    +0.000 A 
ATOM      6  C   UNL A   1     -21.308   1.496  27.528  0.00  0.00    +0.000 A 
ATOM      7  C   UNL A   1     -20.856   0.506  28.208  0.00  0.00    +0.000 A 
ATOM      8  C   UNL A   1     -21.620  -0.415  28.886  0.00  0.00    +0.006 A 
ENDBRANCH   1   3
BRANCH   1   9
ATOM      9  O   UNL A   1     -24.765  -1.453  29.139  0.00  0.00    -0.421 OA
BRANCH   9  12
ATOM     10  C   UNL A   1     -23.823  -3.691  28.526  0.00  0.00    +0.038 A 
ATOM     11  C   UNL A   1     -24.045  -4.721  28.496  0.00  0.00    +0.003 A 
ATOM     12  C   UNL A   1     -24.850  -2.813  29.108  0.00  0.00    +0.149 A 
ATOM     13  C   UNL A   1     -26.012  -3.364  29.722  0.00  0.00    +0.038 A 
ATOM     14  C   UNL A   1     -26.135  -4.729  29.660  0.00  0.00    +0.003 A 
ATOM     15  C   UNL A   1     -25.158  -5.483  29.091  0.00  0.00    +0.000 A 
ENDBRANCH   9  12
ENDBRANCH   1   9
TORSDOF 3
ENDMDL
ENDMDL
