REMARK  Name = No_2067-gen_results/8p0m/2024-11-26-14-13-15/
REMARK  3 active torsions:
REMARK  status: ('A' for Active; 'I' for Inactive)
REMARK    1  A    between atoms: C_3  and  O_7
REMARK    2  A    between atoms: O_7  and  C_8
REMARK    3  A    between atoms: C_8  and  C_9
REMARK                            x       y       z     vdW  Elec       q    Type
REMARK                         _______ _______ _______ _____ _____    ______ ____
ROOT
ATOM      1  C   UNL A   1     -25.784   0.363  27.042  0.00  0.00    +0.346 C 
ATOM      2  O   UNL A   1     -26.867   0.775  26.569  0.00  0.00    -0.244 OA
ENDROOT
BRANCH   1   3
ATOM      3  C   UNL A   1     -24.559   0.879  26.982  0.00  0.00    +0.076 A 
ATOM      4  C   UNL A   1     -24.228   1.821  27.528  0.00  0.00    +0.006 A 
ATOM      5  C   UNL A   1     -22.798   2.438  27.441  0.00  0.00    +0.000 A 
ATOM      6  C   UNL A   1     -21.972   1.782  26.570  0.00  0.00    +0.000 A 
ATOM      7  C   UNL A   1     -22.506   0.931  25.770  0.00  0.00    +0.000 A 
ATOM      8  C   UNL A   1     -23.817   0.516  25.801  0.00  0.00    +0.006 A 
ENDBRANCH   1   3
BRANCH   1   9
ATOM      9  O   UNL A   1     -25.800  -0.826  27.711  0.00  0.00    -0.421 OA
BRANCH   9  12
ATOM     10  C   UNL A   1     -28.016  -0.814  28.878  0.00  0.00    +0.038 A 
ATOM     11  C   UNL A   1     -28.469  -0.785  29.829  0.00  0.00    +0.003 A 
ATOM     12  C   UNL A   1     -26.546  -0.876  28.850  0.00  0.00    +0.149 A 
ATOM     13  C   UNL A   1     -25.804  -1.032  30.057  0.00  0.00    +0.038 A 
ATOM     14  C   UNL A   1     -26.537  -1.039  31.217  0.00  0.00    +0.003 A 
ATOM     15  C   UNL A   1     -27.893  -0.960  31.174  0.00  0.00    +0.000 A 
ENDBRANCH   9  12
ENDBRANCH   1   9
TORSDOF 3
