REMARK  Name = No_2068-gen_results/8p0m/2024-11-26-14-13-15/
REMARK  9 active torsions:
REMARK  status: ('A' for Active; 'I' for Inactive)
REMARK    1  A    between atoms: C_2  and  C_16
REMARK    2  A    between atoms: C_3  and  C_4
REMARK    3  A    between atoms: C_9  and  C_19
REMARK    4  A    between atoms: C_11  and  C_13
REMARK    5  A    between atoms: C_16  and  O_18
REMARK    6  A    between atoms: O_18  and  C_32
REMARK    7  A    between atoms: C_20  and  C_21
REMARK    8  A    between atoms: C_23  and  C_28
REMARK    9  A    between atoms: C_32  and  C_33
REMARK                            x       y       z     vdW  Elec       q    Type
REMARK                         _______ _______ _______ _____ _____    ______ ____
ROOT
ATOM      1  C   UNL A   1     -25.654  -0.660  27.719  0.00  0.00    +0.000 A 
ATOM      2  C   UNL A   1     -25.942   0.243  26.716  0.00  0.00    +0.002 A 
ATOM      3  C   UNL A   1     -25.652   1.427  26.726  0.00  0.00    +0.028 A 
ATOM      4  C   UNL A   1     -24.680   1.912  27.697  0.00  0.00    +0.009 A 
ATOM      5  C   UNL A   1     -23.639   1.007  27.995  0.00  0.00    +0.080 A 
ATOM      6  C   UNL A   1     -24.088  -0.175  28.326  0.00  0.00    +0.007 A 
ENDROOT
BRANCH   1   9
ATOM      7  C   UNL A   1     -28.016  -0.814  28.878  0.00  0.00    +0.006 A 
ATOM      8  C   UNL A   1     -28.469  -0.785  29.829  0.00  0.00    +0.076 A 
ATOM      9  C   UNL A   1     -26.504  -0.778  28.877  0.00  0.00    +0.000 A 
ATOM     10  C   UNL A   1     -27.918  -0.937  31.182  0.00  0.00    +0.006 A 
ATOM     11  C   UNL A   1     -26.542  -0.940  31.261  0.00  0.00    +0.000 A 
ATOM     12  C   UNL A   1     -25.783  -0.893  30.120  0.00  0.00    +0.000 A 
BRANCH   8  13
ATOM     13  C   UNL A   1     -30.073  -0.801  29.882  0.00  0.00    +0.342 C 
ATOM     14  O   UNL A   1     -30.688  -0.115  29.147  0.00  0.00    -0.245 OA
BRANCH  13  15
ATOM     15  O   UNL A   1     -30.702  -1.559  30.727  0.00  0.00    -0.435 OA
BRANCH  15  16
ATOM     16  C   UNL A   1     -32.015  -1.810  30.552  0.00  0.00    +0.296 C 
BRANCH  16  17
ATOM     17  C   UNL A   1     -32.872  -0.984  31.120  0.00  0.00    +0.305 C 
ATOM     18  O   UNL A   1     -33.953  -0.799  30.738  0.00  0.00    -0.268 OA
ATOM     19  N   UNL A   1     -32.394  -0.151  32.145  0.00  0.00    -0.085 NA
ENDBRANCH  16  17
ENDBRANCH  15  16
ENDBRANCH  13  15
ENDBRANCH   8  13
ENDBRANCH   1   9
BRANCH   5  20
ATOM     20  C   UNL A   1     -22.387   1.430  28.531  0.00  0.00    +0.388 C 
ATOM     21  O   UNL A   1     -21.521   0.578  28.910  0.00  0.00    -0.241 OA
ATOM     22  O   UNL A   1     -22.112   2.660  28.664  0.00  0.00    -0.241 OA
ENDBRANCH   5  20
BRANCH   3  23
ATOM     23  C   UNL A   1     -26.408   2.469  25.962  0.00  0.00    +0.140 C 
ATOM     24  C   UNL A   1     -27.407   2.181  25.125  0.00  0.00    +0.030 C 
ATOM     25  F   UNL A   1     -26.066   3.738  26.133  0.00  0.00    -0.204 F 
BRANCH  24  26
ATOM     26  C   UNL A   1     -28.613   1.950  25.536  0.00  0.00    +0.002 A 
ATOM     27  C   UNL A   1     -29.690   1.437  24.715  0.00  0.00    +0.004 A 
ATOM     28  C   UNL A   1     -30.958   1.123  25.155  0.00  0.00    +0.071 A 
ATOM     29  C   UNL A   1     -31.316   1.670  26.391  0.00  0.00    +0.004 A 
ATOM     30  C   UNL A   1     -30.428   2.374  27.197  0.00  0.00    -0.000 A 
ATOM     31  C   UNL A   1     -29.124   2.546  26.826  0.00  0.00    +0.000 A 
BRANCH  28  32
ATOM     32  C   UNL A   1     -31.884   0.469  24.304  0.00  0.00    +0.419 C 
ATOM     33  F   UNL A   1     -32.481   1.082  23.571  0.00  0.00    -0.166 F 
ATOM     34  F   UNL A   1     -31.103  -0.541  23.649  0.00  0.00    -0.166 F 
ATOM     35  F   UNL A   1     -32.764  -0.319  25.057  0.00  0.00    -0.166 F 
ENDBRANCH  28  32
ENDBRANCH  24  26
ENDBRANCH   3  23
TORSDOF 9
