MODEL 2068
MODEL 1
REMARK VINA RESULT:    -7.819      0.000      0.000
REMARK INTER + INTRA:         -14.411
REMARK INTER:                 -11.932
REMARK INTRA:                  -2.479
REMARK UNBOUND:                -2.479
REMARK  Name = No_2068-gen_results/8p0m/2024-11-26-14-13-15/
REMARK  9 active torsions:
REMARK  status: ('A' for Active; 'I' for Inactive)
REMARK    1  A    between atoms: C_2  and  C_16
REMARK    2  A    between atoms: C_3  and  C_4
REMARK    3  A    between atoms: C_9  and  C_19
REMARK    4  A    between atoms: C_11  and  C_13
REMARK    5  A    between atoms: C_16  and  O_18
REMARK    6  A    between atoms: O_18  and  C_32
REMARK    7  A    between atoms: C_20  and  C_21
REMARK    8  A    between atoms: C_23  and  C_28
REMARK    9  A    between atoms: C_32  and  C_33
REMARK                            x       y       z     vdW  Elec       q    Type
REMARK                         _______ _______ _______ _____ _____    ______ ____
ROOT
ATOM      1  C   UNL A   1     -23.184  -1.256  29.622  0.00  0.00    +0.000 A 
ATOM      2  C   UNL A   1     -22.920  -0.432  28.547  0.00  0.00    +0.002 A 
ATOM      3  C   UNL A   1     -23.549   0.570  28.253  0.00  0.00    +0.028 A 
ATOM      4  C   UNL A   1     -24.461   1.148  29.231  0.00  0.00    +0.009 A 
ATOM      5  C   UNL A   1     -24.035   1.044  30.572  0.00  0.00    +0.080 A 
ATOM      6  C   UNL A   1     -23.710  -0.180  30.896  0.00  0.00    +0.007 A 
ENDROOT
BRANCH   1   9
ATOM      7  C   UNL A   1     -25.627  -2.172  29.998  0.00  0.00    +0.006 A 
ATOM      8  C   UNL A   1     -26.184  -3.066  29.965  0.00  0.00    +0.076 A 
ATOM      9  C   UNL A   1     -24.190  -2.285  29.538  0.00  0.00    +0.000 A 
ATOM     10  C   UNL A   1     -25.907  -4.371  29.351  0.00  0.00    +0.006 A 
ATOM     11  C   UNL A   1     -24.622  -4.542  28.882  0.00  0.00    +0.000 A 
ATOM     12  C   UNL A   1     -23.726  -3.505  28.926  0.00  0.00    +0.000 A 
BRANCH   8  13
ATOM     13  C   UNL A   1     -27.708  -3.003  30.462  0.00  0.00    +0.342 C 
ATOM     14  O   UNL A   1     -28.445  -3.884  30.198  0.00  0.00    -0.245 OA
BRANCH  13  15
ATOM     15  O   UNL A   1     -28.141  -1.991  31.150  0.00  0.00    -0.435 OA
BRANCH  15  16
ATOM     16  C   UNL A   1     -29.119  -1.210  30.649  0.00  0.00    +0.296 C 
BRANCH  16  17
ATOM     17  C   UNL A   1     -28.754  -0.124  29.995  0.00  0.00    +0.305 C 
ATOM     18  O   UNL A   1     -28.691   0.934  30.470  0.00  0.00    -0.268 OA
ATOM     19  N   UNL A   1     -28.597  -0.222  28.603  0.00  0.00    -0.085 NA
ENDBRANCH  16  17
ENDBRANCH  15  16
ENDBRANCH  13  15
ENDBRANCH   8  13
ENDBRANCH   1   9
BRANCH   5  20
ATOM     20  C   UNL A   1     -24.516   1.910  31.598  0.00  0.00    +0.388 C 
ATOM     21  O   UNL A   1     -24.084   3.103  31.697  0.00  0.00    -0.241 OA
ATOM     22  O   UNL A   1     -25.368   1.511  32.448  0.00  0.00    -0.241 OA
ENDBRANCH   5  20
BRANCH   3  23
ATOM     23  C   UNL A   1     -23.629   1.117  26.862  0.00  0.00    +0.140 C 
ATOM     24  C   UNL A   1     -24.388   0.576  25.906  0.00  0.00    +0.030 C 
ATOM     25  F   UNL A   1     -22.912   2.193  26.572  0.00  0.00    -0.204 F 
BRANCH  24  26
ATOM     26  C   UNL A   1     -25.659   0.807  25.814  0.00  0.00    +0.002 A 
ATOM     27  C   UNL A   1     -26.570   0.117  24.924  0.00  0.00    +0.004 A 
ATOM     28  C   UNL A   1     -27.934   0.307  24.864  0.00  0.00    +0.071 A 
ATOM     29  C   UNL A   1     -28.402   1.486  25.451  0.00  0.00    +0.004 A 
ATOM     30  C   UNL A   1     -27.585   2.357  26.165  0.00  0.00    -0.000 A 
ATOM     31  C   UNL A   1     -26.260   2.082  26.357  0.00  0.00    +0.000 A 
BRANCH  28  32
ATOM     32  C   UNL A   1     -28.754  -0.541  24.077  0.00  0.00    +0.419 C 
ATOM     33  F   UNL A   1     -28.304  -1.468  23.622  0.00  0.00    -0.166 F 
ATOM     34  F   UNL A   1     -29.864  -0.846  24.933  0.00  0.00    -0.166 F 
ATOM     35  F   UNL A   1     -29.388   0.196  23.069  0.00  0.00    -0.166 F 
ENDBRANCH  28  32
ENDBRANCH  24  26
ENDBRANCH   3  23
TORSDOF 9
ENDMDL
ENDMDL
