REMARK  Name = No_2069-gen_results/8p0m/2024-11-26-14-13-15/
REMARK  3 active torsions:
REMARK  status: ('A' for Active; 'I' for Inactive)
REMARK    1  A    between atoms: C_1  and  C_2
REMARK    2  A    between atoms: C_1  and  C_8
REMARK    3  A    between atoms: C_5  and  C_14
REMARK                            x       y       z     vdW  Elec       q    Type
REMARK                         _______ _______ _______ _____ _____    ______ ____
ROOT
ATOM      1  C   UNL A   1     -27.064  -0.119  28.608  0.00  0.00    +0.039 A 
ATOM      2  C   UNL A   1     -27.001   0.691  27.491  0.00  0.00    +0.003 A 
ATOM      3  C   UNL A   1     -25.855   1.482  27.083  0.00  0.00    +0.004 A 
ATOM      4  C   UNL A   1     -24.901   1.389  27.592  0.00  0.00    +0.071 A 
ATOM      5  C   UNL A   1     -24.678   0.576  28.830  0.00  0.00    +0.004 A 
ATOM      6  C   UNL A   1     -25.770  -0.205  29.280  0.00  0.00    +0.003 A 
ENDROOT
BRANCH   4   7
ATOM      7  C   UNL A   1     -23.568   2.135  27.285  0.00  0.00    +0.419 C 
ATOM      8  F   UNL A   1     -23.258   3.013  28.019  0.00  0.00    -0.166 F 
ATOM      9  F   UNL A   1     -23.760   2.876  26.052  0.00  0.00    -0.166 F 
ATOM     10  F   UNL A   1     -22.523   1.303  27.013  0.00  0.00    -0.166 F 
ENDBRANCH   4   7
BRANCH   1  11
ATOM     11  C   UNL A   1     -28.016  -0.814  28.878  0.00  0.00    +0.196 C 
ATOM     12  O   UNL A   1     -27.808  -2.027  29.334  0.00  0.00    -0.287 OA
BRANCH  11  13
ATOM     13  C   UNL A   1     -29.281  -0.147  29.252  0.00  0.00    +0.039 A 
ATOM     14  C   UNL A   1     -29.791   0.670  28.588  0.00  0.00    +0.003 A 
ATOM     15  C   UNL A   1     -31.087   1.146  28.896  0.00  0.00    +0.000 A 
ATOM     16  C   UNL A   1     -31.736   0.586  29.991  0.00  0.00    +0.000 A 
ATOM     17  C   UNL A   1     -30.102  -0.746  30.350  0.00  0.00    +0.003 A 
ATOM     18  C   UNL A   1     -31.241  -0.341  30.683  0.00  0.00    +0.000 A 
ENDBRANCH  11  13
ENDBRANCH   1  11
TORSDOF 3
