MODEL 2069
MODEL 1
REMARK VINA RESULT:    -7.740      0.000      0.000
REMARK INTER + INTRA:          -9.836
REMARK INTER:                  -9.098
REMARK INTRA:                  -0.739
REMARK UNBOUND:                -0.739
REMARK  Name = No_2069-gen_results/8p0m/2024-11-26-14-13-15/
REMARK  3 active torsions:
REMARK  status: ('A' for Active; 'I' for Inactive)
REMARK    1  A    between atoms: C_1  and  C_2
REMARK    2  A    between atoms: C_1  and  C_8
REMARK    3  A    between atoms: C_5  and  C_14
REMARK                            x       y       z     vdW  Elec       q    Type
REMARK                         _______ _______ _______ _____ _____    ______ ____
ROOT
ATOM      1  C   UNL A   1     -24.253  -0.430  28.884  0.00  0.00    +0.039 A 
ATOM      2  C   UNL A   1     -24.968  -0.274  27.713  0.00  0.00    +0.003 A 
ATOM      3  C   UNL A   1     -24.617   0.613  26.619  0.00  0.00    +0.004 A 
ATOM      4  C   UNL A   1     -23.669   1.142  26.609  0.00  0.00    +0.071 A 
ATOM      5  C   UNL A   1     -22.693   1.149  27.745  0.00  0.00    +0.004 A 
ATOM      6  C   UNL A   1     -22.995   0.311  28.845  0.00  0.00    +0.003 A 
ENDROOT
BRANCH   4   7
ATOM      7  C   UNL A   1     -23.118   2.111  25.521  0.00  0.00    +0.419 C 
ATOM      8  F   UNL A   1     -23.118   1.723  24.401  0.00  0.00    -0.166 F 
ATOM      9  F   UNL A   1     -21.692   2.255  25.752  0.00  0.00    -0.166 F 
ATOM     10  F   UNL A   1     -23.601   3.382  25.622  0.00  0.00    -0.166 F 
ENDBRANCH   4   7
BRANCH   1  11
ATOM     11  C   UNL A   1     -24.543  -1.229  29.744  0.00  0.00    +0.196 C 
ATOM     12  O   UNL A   1     -25.158  -0.805  30.823  0.00  0.00    -0.287 OA
BRANCH  11  13
ATOM     13  C   UNL A   1     -24.748  -2.638  29.346  0.00  0.00    +0.039 A 
ATOM     14  C   UNL A   1     -23.900  -3.298  28.883  0.00  0.00    +0.003 A 
ATOM     15  C   UNL A   1     -24.092  -4.686  28.687  0.00  0.00    +0.000 A 
ATOM     16  C   UNL A   1     -25.304  -5.233  29.093  0.00  0.00    +0.000 A 
ATOM     17  C   UNL A   1     -25.976  -3.341  29.830  0.00  0.00    +0.003 A 
ATOM     18  C   UNL A   1     -26.207  -4.561  29.655  0.00  0.00    +0.000 A 
ENDBRANCH  11  13
ENDBRANCH   1  11
TORSDOF 3
ENDMDL
ENDMDL
