MODEL 206
MODEL 1
REMARK VINA RESULT:    -5.210      0.000      0.000
REMARK INTER + INTRA:          -5.716
REMARK INTER:                  -5.515
REMARK INTRA:                  -0.201
REMARK UNBOUND:                -0.201
REMARK  Name = No_206-gen_results/8p0m/2024-11-26-14-13-15/
REMARK  1 active torsions:
REMARK  status: ('A' for Active; 'I' for Inactive)
REMARK    1  A    between atoms: C_3  and  C_7
REMARK                            x       y       z     vdW  Elec       q    Type
REMARK                         _______ _______ _______ _____ _____    ______ ____
ROOT
ATOM      1  C   UNL A   1     -25.756  -2.626  29.836  0.00  0.00    +0.004 A 
ATOM      2  C   UNL A   1     -26.331  -3.503  29.933  0.00  0.00    -0.000 A 
ATOM      3  C   UNL A   1     -24.479  -2.737  29.242  0.00  0.00    +0.071 A 
ATOM      4  C   UNL A   1     -23.978  -3.949  28.808  0.00  0.00    +0.004 A 
ATOM      5  C   UNL A   1     -24.803  -5.050  28.968  0.00  0.00    -0.000 A 
ATOM      6  C   UNL A   1     -26.058  -4.873  29.521  0.00  0.00    -0.000 A 
ENDROOT
BRANCH   3   7
ATOM      7  C   UNL A   1     -23.571  -1.557  29.016  0.00  0.00    +0.419 C 
ATOM      8  F   UNL A   1     -22.548  -1.836  28.954  0.00  0.00    -0.166 F 
ATOM      9  F   UNL A   1     -23.634  -0.601  30.036  0.00  0.00    -0.166 F 
ATOM     10  F   UNL A   1     -24.022  -0.842  27.887  0.00  0.00    -0.166 F 
ENDBRANCH   3   7
TORSDOF 1
ENDMDL
ENDMDL
