REMARK  Name = No_207-gen_results/8p0m/2024-11-26-14-13-15/
REMARK  6 active torsions:
REMARK  status: ('A' for Active; 'I' for Inactive)
REMARK    1  A    between atoms: C_1  and  C_2
REMARK    2  A    between atoms: C_1  and  N_8
REMARK    3  A    between atoms: C_5  and  C_9
REMARK    4  A    between atoms: C_13  and  C_14
REMARK    5  A    between atoms: C_15  and  C_16
REMARK    6  A    between atoms: C_17  and  C_18
REMARK                            x       y       z     vdW  Elec       q    Type
REMARK                         _______ _______ _______ _____ _____    ______ ____
ROOT
ATOM      1  C   UNL A   1     -27.064  -0.119  28.608  0.00  0.00    +0.002 A 
ATOM      2  C   UNL A   1     -26.972   0.714  27.506  0.00  0.00    -0.002 A 
ATOM      3  C   UNL A   1     -25.820   1.491  27.116  0.00  0.00    +0.004 A 
ATOM      4  C   UNL A   1     -24.858   1.342  27.601  0.00  0.00    +0.071 A 
ATOM      5  C   UNL A   1     -24.622   0.529  28.814  0.00  0.00    +0.004 A 
ATOM      6  C   UNL A   1     -25.734  -0.181  29.191  0.00  0.00    -0.002 A 
ENDROOT
BRANCH   4   7
ATOM      7  C   UNL A   1     -23.521   2.127  27.293  0.00  0.00    +0.419 C 
ATOM      8  F   UNL A   1     -23.412   2.413  26.166  0.00  0.00    -0.166 F 
ATOM      9  F   UNL A   1     -23.406   3.284  28.044  0.00  0.00    -0.166 F 
ATOM     10  F   UNL A   1     -22.344   1.442  27.663  0.00  0.00    -0.166 F 
ENDBRANCH   4   7
BRANCH   1  11
ATOM     11  C   UNL A   1     -28.016  -0.814  28.878  0.00  0.00    +0.152 C 
BRANCH  11  12
ATOM     12  N   UNL A   1     -28.615  -0.562  30.154  0.00  0.00    -0.264 NA
ATOM     13  C   UNL A   1     -29.479  -0.337  30.613  0.00  0.00    +0.093 C 
BRANCH  13  14
ATOM     14  C   UNL A   1     -30.613   0.019  29.781  0.00  0.00    +0.020 C 
ATOM     15  C   UNL A   1     -30.516   0.587  28.738  0.00  0.00    +0.002 C 
BRANCH  15  16
ATOM     16  C   UNL A   1     -31.629   0.927  27.848  0.00  0.00    +0.000 C 
ATOM     17  C   UNL A   1     -31.425   1.560  26.637  0.00  0.00    +0.000 C 
BRANCH  17  18
ATOM     18  C   UNL A   1     -30.114   1.939  26.267  0.00  0.00    +0.000 C 
ATOM     19  C   UNL A   1     -29.110   1.740  27.080  0.00  0.00    +0.000 C 
ENDBRANCH  17  18
ENDBRANCH  15  16
ENDBRANCH  13  14
ENDBRANCH  11  12
ENDBRANCH   1  11
TORSDOF 6
