REMARK  Name = No_2070-gen_results/8p0m/2024-11-26-14-13-15/
REMARK  2 active torsions:
REMARK  status: ('A' for Active; 'I' for Inactive)
REMARK    1  A    between atoms: C_1  and  C_2
REMARK    2  A    between atoms: C_5  and  C_14
REMARK                            x       y       z     vdW  Elec       q    Type
REMARK                         _______ _______ _______ _____ _____    ______ ____
ROOT
ATOM      1  C   UNL A   1     -27.064  -0.119  28.608  0.00  0.00    +0.054 A 
ATOM      2  C   UNL A   1     -27.001   0.691  27.491  0.00  0.00    +0.004 A 
ATOM      3  C   UNL A   1     -25.855   1.482  27.083  0.00  0.00    +0.004 A 
ATOM      4  C   UNL A   1     -24.690   1.453  27.881  0.00  0.00    +0.071 A 
ATOM      5  C   UNL A   1     -24.738   0.601  29.042  0.00  0.00    +0.004 A 
ATOM      6  C   UNL A   1     -25.823  -0.169  29.389  0.00  0.00    +0.004 A 
ENDROOT
BRANCH   1   7
ATOM      7  C   UNL A   1     -28.016  -0.814  28.878  0.00  0.00    +0.249 C 
ATOM      8  N   UNL A   1     -29.215  -0.173  29.013  0.00  0.00    -0.276 N 
ATOM      9  C   UNL A   1     -29.720   0.547  28.324  0.00  0.00    +0.094 C 
ATOM     10  C   UNL A   1     -30.974   1.061  28.666  0.00  0.00    +0.022 C 
ATOM     11  C   UNL A   1     -30.100  -0.658  30.131  0.00  0.00    +0.094 C 
ATOM     12  C   UNL A   1     -31.271  -0.191  30.404  0.00  0.00    +0.022 C 
ATOM     13  C   UNL A   1     -31.751   0.749  29.613  0.00  0.00    +0.004 C 
ATOM     14  O   UNL A   1     -27.788  -1.837  29.614  0.00  0.00    -0.270 OA
ENDBRANCH   1   7
BRANCH   4  15
ATOM     15  C   UNL A   1     -23.501   2.166  27.553  0.00  0.00    +0.419 C 
ATOM     16  F   UNL A   1     -23.720   3.256  27.008  0.00  0.00    -0.166 F 
ATOM     17  F   UNL A   1     -22.637   1.458  26.709  0.00  0.00    -0.166 F 
ATOM     18  F   UNL A   1     -22.772   2.441  28.681  0.00  0.00    -0.166 F 
ENDBRANCH   4  15
TORSDOF 2
