MODEL 2070
MODEL 1
REMARK VINA RESULT:    -7.697      0.000      0.000
REMARK INTER + INTRA:          -8.865
REMARK INTER:                  -8.597
REMARK INTRA:                  -0.269
REMARK UNBOUND:                -0.269
REMARK  Name = No_2070-gen_results/8p0m/2024-11-26-14-13-15/
REMARK  2 active torsions:
REMARK  status: ('A' for Active; 'I' for Inactive)
REMARK    1  A    between atoms: C_1  and  C_2
REMARK    2  A    between atoms: C_5  and  C_14
REMARK                            x       y       z     vdW  Elec       q    Type
REMARK                         _______ _______ _______ _____ _____    ______ ____
ROOT
ATOM      1  C   UNL A   1     -24.445  -0.479  28.724  0.00  0.00    +0.054 A 
ATOM      2  C   UNL A   1     -25.111  -0.293  27.528  0.00  0.00    +0.004 A 
ATOM      3  C   UNL A   1     -24.673   0.561  26.440  0.00  0.00    +0.004 A 
ATOM      4  C   UNL A   1     -23.472   1.289  26.587  0.00  0.00    +0.071 A 
ATOM      5  C   UNL A   1     -22.760   1.093  27.825  0.00  0.00    +0.004 A 
ATOM      6  C   UNL A   1     -23.175   0.249  28.828  0.00  0.00    +0.004 A 
ENDROOT
BRANCH   1   7
ATOM      7  C   UNL A   1     -24.809  -1.251  29.580  0.00  0.00    +0.249 C 
ATOM      8  N   UNL A   1     -24.740  -2.579  29.267  0.00  0.00    -0.276 N 
ATOM      9  C   UNL A   1     -23.887  -3.172  28.856  0.00  0.00    +0.094 C 
ATOM     10  C   UNL A   1     -24.045  -4.543  28.637  0.00  0.00    +0.022 C 
ATOM     11  C   UNL A   1     -25.890  -3.429  29.742  0.00  0.00    +0.094 C 
ATOM     12  C   UNL A   1     -25.995  -4.702  29.559  0.00  0.00    +0.022 C 
ATOM     13  C   UNL A   1     -24.995  -5.314  28.953  0.00  0.00    +0.004 C 
ATOM     14  O   UNL A   1     -25.759  -0.855  30.342  0.00  0.00    -0.270 OA
ENDBRANCH   1   7
BRANCH   4  15
ATOM     15  C   UNL A   1     -22.938   2.129  25.568  0.00  0.00    +0.419 C 
ATOM     16  F   UNL A   1     -21.718   2.308  25.673  0.00  0.00    -0.166 F 
ATOM     17  F   UNL A   1     -23.530   3.397  25.519  0.00  0.00    -0.166 F 
ATOM     18  F   UNL A   1     -23.140   1.579  24.329  0.00  0.00    -0.166 F 
ENDBRANCH   4  15
TORSDOF 2
ENDMDL
ENDMDL
