MODEL 2071
MODEL 1
REMARK VINA RESULT:    -4.274      0.000      0.000
REMARK INTER + INTRA:          -4.274
REMARK INTER:                  -4.274
REMARK INTRA:                   0.000
REMARK UNBOUND:                 0.000
REMARK  Name = No_2071-gen_results/8p0m/2024-11-26-14-13-15/
REMARK  0 active torsions:
REMARK  status: ('A' for Active; 'I' for Inactive)
REMARK                            x       y       z     vdW  Elec       q    Type
REMARK                         _______ _______ _______ _____ _____    ______ ____
ROOT
ATOM      1  C   UNL A   1     -24.115  -4.876  28.633  0.00  0.00    +0.000 A 
ATOM      2  C   UNL A   1     -25.010  -5.286  29.007  0.00  0.00    +0.000 A 
ATOM      3  C   UNL A   1     -24.035  -3.422  28.771  0.00  0.00    +0.000 A 
ATOM      4  C   UNL A   1     -25.037  -2.687  29.356  0.00  0.00    +0.000 A 
ATOM      5  C   UNL A   1     -26.211  -4.770  29.664  0.00  0.00    +0.000 A 
ATOM      6  C   UNL A   1     -26.143  -3.363  29.803  0.00  0.00    +0.000 A 
ENDROOT
TORSDOF 0
ENDMDL
ENDMDL
