MODEL 2072
MODEL 1
REMARK VINA RESULT:    -4.871      0.000      0.000
REMARK INTER + INTRA:          -5.168
REMARK INTER:                  -5.155
REMARK INTRA:                  -0.013
REMARK UNBOUND:                -0.013
REMARK  Name = No_2072-gen_results/8p0m/2024-11-26-14-13-15/
REMARK  1 active torsions:
REMARK  status: ('A' for Active; 'I' for Inactive)
REMARK    1  A    between atoms: C_1  and  C_2
REMARK                            x       y       z     vdW  Elec       q    Type
REMARK                         _______ _______ _______ _____ _____    ______ ____
ROOT
ATOM      1  C   UNL A   1      -7.979  -9.835  19.921  0.00  0.00    -0.003 A 
ATOM      2  C   UNL A   1      -8.097 -10.926  18.996  0.00  0.00    -0.003 A 
ATOM      3  C   UNL A   1      -9.005 -10.841  17.833  0.00  0.00    -0.000 A 
ATOM      4  C   UNL A   1     -10.161 -10.044  17.925  0.00  0.00    -0.000 A 
ATOM      5  C   UNL A   1     -10.323  -9.203  19.045  0.00  0.00    -0.000 A 
ATOM      6  C   UNL A   1      -9.401  -9.176  20.025  0.00  0.00    -0.003 A 
ENDROOT
BRANCH   1   7
ATOM      7  C   UNL A   1      -7.434 -10.028  20.801  0.00  0.00    +0.136 C 
ATOM      8  N   UNL A   1      -6.214  -9.803  21.037  0.00  0.00    -0.126 NA
ENDBRANCH   1   7
TORSDOF 1
ENDMDL
ENDMDL
