MODEL 2073
MODEL 1
REMARK VINA RESULT:    -7.900      0.000      0.000
REMARK INTER + INTRA:         -12.793
REMARK INTER:                 -10.671
REMARK INTRA:                  -2.122
REMARK UNBOUND:                -2.122
REMARK  Name = No_2073-gen_results/8p0m/2024-11-26-14-13-15/
REMARK  6 active torsions:
REMARK  status: ('A' for Active; 'I' for Inactive)
REMARK    1  A    between atoms: C_4  and  O_11
REMARK    2  A    between atoms: O_11  and  C_12
REMARK    3  A    between atoms: C_12  and  C_13
REMARK    4  A    between atoms: C_15  and  C_17
REMARK    5  A    between atoms: C_17  and  C_20
REMARK    6  A    between atoms: C_20  and  C_21
REMARK                            x       y       z     vdW  Elec       q    Type
REMARK                         _______ _______ _______ _____ _____    ______ ____
ROOT
ATOM      1  C   UNL A   1     -10.414  -0.757  37.913  0.00  0.00    +0.021 A 
ATOM      2  C   UNL A   1     -10.776  -0.570  38.982  0.00  0.00    -0.005 A 
ATOM      3  C   UNL A   1     -11.575  -1.548  39.742  0.00  0.00    -0.022 A 
ATOM      4  C   UNL A   1     -10.957  -1.924  37.183  0.00  0.00    -0.001 A 
ATOM      5  C   UNL A   1     -12.185  -2.605  39.104  0.00  0.00    -0.004 A 
ATOM      6  C   UNL A   1     -11.858  -2.796  37.754  0.00  0.00    -0.001 A 
ENDROOT
BRANCH   3   7
ATOM      7  C   UNL A   1     -11.756  -1.386  41.194  0.00  0.00    +0.027 C 
ATOM      8  C   UNL A   1     -12.659  -0.337  41.570  0.00  0.00    +0.005 C 
BRANCH   7   9
ATOM      9  C   UNL A   1     -11.059  -2.208  42.083  0.00  0.00    +0.031 C 
BRANCH   9  10
ATOM     10  C   UNL A   1      -9.697  -2.399  42.091  0.00  0.00    -0.022 A 
ATOM     11  C   UNL A   1      -8.822  -1.363  41.928  0.00  0.00    -0.004 A 
ATOM     12  C   UNL A   1      -7.364  -1.743  42.046  0.00  0.00    -0.000 A 
ATOM     13  C   UNL A   1      -7.055  -3.019  42.390  0.00  0.00    -0.000 A 
ATOM     14  C   UNL A   1      -7.970  -4.015  42.600  0.00  0.00    -0.000 A 
ATOM     15  C   UNL A   1      -9.276  -3.756  42.495  0.00  0.00    -0.004 A 
ENDBRANCH   9  10
ENDBRANCH   7   9
ENDBRANCH   3   7
BRANCH   1  16
ATOM     16  C   UNL A   1      -9.738   0.151  37.116  0.00  0.00    +0.232 C 
BRANCH  16  17
ATOM     17  O   UNL A   1     -10.082   1.578  37.040  0.00  0.00    -0.471 OA
BRANCH  17  21
ATOM     18  C   UNL A   1     -12.733   2.366  37.944  0.00  0.00    +0.003 A 
ATOM     19  C   UNL A   1     -13.664   2.828  38.115  0.00  0.00    +0.000 A 
ATOM     20  C   UNL A   1     -12.394   2.241  36.521  0.00  0.00    +0.034 A 
ATOM     21  C   UNL A   1     -11.049   1.805  36.098  0.00  0.00    +0.139 A 
ATOM     22  C   UNL A   1     -10.805   1.239  34.941  0.00  0.00    +0.037 A 
ATOM     23  C   UNL A   1     -14.773   3.119  37.249  0.00  0.00    +0.000 A 
ATOM     24  C   UNL A   1     -14.510   2.982  35.965  0.00  0.00    +0.000 A 
ATOM     25  C   UNL A   1     -13.268   2.573  35.534  0.00  0.00    +0.003 A 
ATOM     26  C   UNL A   1     -11.780   1.497  33.847  0.00  0.00    +0.003 A 
ATOM     27  C   UNL A   1     -13.040   2.012  34.200  0.00  0.00    +0.000 A 
ENDBRANCH  17  21
ENDBRANCH  16  17
ENDBRANCH   1  16
TORSDOF 6
ENDMDL
ENDMDL
