REMARK  Name = No_2073-gen_results/8p0m/2024-11-26-14-13-15/
REMARK  6 active torsions:
REMARK  status: ('A' for Active; 'I' for Inactive)
REMARK    1  A    between atoms: C_4  and  O_11
REMARK    2  A    between atoms: O_11  and  C_12
REMARK    3  A    between atoms: C_12  and  C_13
REMARK    4  A    between atoms: C_15  and  C_17
REMARK    5  A    between atoms: C_17  and  C_20
REMARK    6  A    between atoms: C_20  and  C_21
REMARK                            x       y       z     vdW  Elec       q    Type
REMARK                         _______ _______ _______ _____ _____    ______ ____
ROOT
ATOM      1  C   UNL A   1     -24.678   0.865  27.629  0.00  0.00    +0.021 A 
ATOM      2  C   UNL A   1     -24.865   0.576  28.720  0.00  0.00    -0.005 A 
ATOM      3  C   UNL A   1     -24.228   1.268  29.855  0.00  0.00    -0.022 A 
ATOM      4  C   UNL A   1     -23.584   1.818  27.334  0.00  0.00    -0.001 A 
ATOM      5  C   UNL A   1     -23.145   2.095  29.656  0.00  0.00    -0.004 A 
ATOM      6  C   UNL A   1     -22.808   2.378  28.325  0.00  0.00    -0.001 A 
ENDROOT
BRANCH   3   7
ATOM      7  C   UNL A   1     -24.727   1.055  31.224  0.00  0.00    +0.027 C 
ATOM      8  C   UNL A   1     -24.314  -0.180  31.825  0.00  0.00    +0.005 C 
BRANCH   7   9
ATOM      9  C   UNL A   1     -25.548   2.011  31.826  0.00  0.00    +0.031 C 
BRANCH   9  10
ATOM     10  C   UNL A   1     -26.032   3.144  31.216  0.00  0.00    -0.022 A 
ATOM     11  C   UNL A   1     -25.778   3.420  29.902  0.00  0.00    -0.004 A 
ATOM     12  C   UNL A   1     -26.456   4.664  29.376  0.00  0.00    -0.000 A 
ATOM     13  C   UNL A   1     -27.311   5.329  30.193  0.00  0.00    -0.000 A 
ATOM     14  C   UNL A   1     -27.580   4.983  31.490  0.00  0.00    -0.000 A 
ATOM     15  C   UNL A   1     -27.003   3.905  32.028  0.00  0.00    -0.004 A 
ENDBRANCH   9  10
ENDBRANCH   7   9
ENDBRANCH   3   7
BRANCH   1  16
ATOM     16  C   UNL A   1     -25.173   0.203  26.519  0.00  0.00    +0.232 C 
BRANCH  16  17
ATOM     17  O   UNL A   1     -26.552  -0.295  26.418  0.00  0.00    -0.471 OA
BRANCH  17  21
ATOM     18  C   UNL A   1     -28.016  -0.814  28.878  0.00  0.00    +0.003 A 
ATOM     19  C   UNL A   1     -28.469  -0.785  29.829  0.00  0.00    +0.000 A 
ATOM     20  C   UNL A   1     -28.182   0.428  28.113  0.00  0.00    +0.034 A 
ATOM     21  C   UNL A   1     -27.450   0.643  26.850  0.00  0.00    +0.139 A 
ATOM     22  C   UNL A   1     -27.860   1.457  25.908  0.00  0.00    +0.037 A 
ATOM     23  C   UNL A   1     -29.426   0.110  30.418  0.00  0.00    +0.000 A 
ATOM     24  C   UNL A   1     -29.623   1.220  29.735  0.00  0.00    +0.000 A 
ATOM     25  C   UNL A   1     -28.961   1.453  28.551  0.00  0.00    +0.003 A 
ATOM     26  C   UNL A   1     -28.787   2.547  26.317  0.00  0.00    +0.003 A 
ATOM     27  C   UNL A   1     -29.427   2.429  27.564  0.00  0.00    +0.000 A 
ENDBRANCH  17  21
ENDBRANCH  16  17
ENDBRANCH   1  16
TORSDOF 6
