MODEL 2074
MODEL 1
REMARK VINA RESULT:    -4.574      0.000      0.000
REMARK INTER + INTRA:          -4.574
REMARK INTER:                  -4.574
REMARK INTRA:                   0.000
REMARK UNBOUND:                 0.000
REMARK  Name = No_2074-gen_results/8p0m/2024-11-26-14-13-15/
REMARK  0 active torsions:
REMARK  status: ('A' for Active; 'I' for Inactive)
REMARK                            x       y       z     vdW  Elec       q    Type
REMARK                         _______ _______ _______ _____ _____    ______ ____
ROOT
ATOM      1  C   UNL A   1     -26.161  -4.558  29.587  0.00  0.00    +0.030 A 
ATOM      2  C   UNL A   1     -26.254  -3.399  29.918  0.00  0.00    +0.002 A 
ATOM      3  C   UNL A   1     -25.244  -2.487  29.631  0.00  0.00    +0.000 A 
ATOM      4  C   UNL A   1     -24.034  -2.904  28.971  0.00  0.00    +0.002 A 
ATOM      5  C   UNL A   1     -24.000  -4.266  28.645  0.00  0.00    +0.030 A 
ATOM      6  C   UNL A   1     -24.975  -5.091  28.953  0.00  0.00    +0.140 A 
ATOM      7  F   UNL A   1     -24.870  -6.362  28.614  0.00  0.00    -0.204 F 
ENDROOT
TORSDOF 0
ENDMDL
ENDMDL
