MODEL 2075
MODEL 1
REMARK VINA RESULT:    -6.305      0.000      0.000
REMARK INTER + INTRA:          -7.101
REMARK INTER:                  -6.673
REMARK INTRA:                  -0.428
REMARK UNBOUND:                -0.428
REMARK  Name = No_2075-gen_results/8p0m/2024-11-26-14-13-15/
REMARK  1 active torsions:
REMARK  status: ('A' for Active; 'I' for Inactive)
REMARK    1  A    between atoms: C_2  and  C_7
REMARK                            x       y       z     vdW  Elec       q    Type
REMARK                         _______ _______ _______ _____ _____    ______ ____
ROOT
ATOM      1  C   UNL A   1     -23.848  -3.363  28.719  0.00  0.00    +0.000 A 
ATOM      2  C   UNL A   1     -24.611  -2.658  29.337  0.00  0.00    +0.000 A 
ATOM      3  C   UNL A   1     -25.785  -3.090  29.864  0.00  0.00    +0.000 A 
ATOM      4  C   UNL A   1     -26.141  -4.440  29.683  0.00  0.00    +0.000 A 
ATOM      5  C   UNL A   1     -24.102  -4.774  28.578  0.00  0.00    +0.000 A 
ATOM      6  C   UNL A   1     -25.282  -5.253  29.064  0.00  0.00    +0.000 A 
ENDROOT
BRANCH   2   7
ATOM      7  C   UNL A   1     -24.329  -1.188  29.616  0.00  0.00    +0.000 A 
ATOM      8  C   UNL A   1     -23.065  -0.810  30.082  0.00  0.00    +0.000 A 
ATOM      9  C   UNL A   1     -24.636  -0.222  28.438  0.00  0.00    +0.000 A 
ATOM     10  C   UNL A   1     -23.720   0.332  27.628  0.00  0.00    +0.000 A 
ATOM     11  C   UNL A   1     -22.401   0.662  28.174  0.00  0.00    +0.000 A 
ATOM     12  C   UNL A   1     -22.065  -0.116  29.337  0.00  0.00    +0.000 A 
ENDBRANCH   2   7
TORSDOF 1
ENDMDL
ENDMDL
