MODEL 2076
MODEL 1
REMARK VINA RESULT:    -6.311      0.000      0.000
REMARK INTER + INTRA:          -9.435
REMARK INTER:                  -8.524
REMARK INTRA:                  -0.911
REMARK UNBOUND:                -0.911
REMARK  Name = No_2076-gen_results/8p0m/2024-11-26-14-13-15/
REMARK  6 active torsions:
REMARK  status: ('A' for Active; 'I' for Inactive)
REMARK    1  A    between atoms: C_3  and  C_5
REMARK    2  A    between atoms: C_5  and  O_10
REMARK    3  A    between atoms: C_7  and  C_11
REMARK    4  A    between atoms: O_10  and  C_14
REMARK    5  A    between atoms: C_14  and  C_15
REMARK    6  A    between atoms: C_15  and  C_16
REMARK                            x       y       z     vdW  Elec       q    Type
REMARK                         _______ _______ _______ _____ _____    ______ ____
ROOT
ATOM      1  C   UNL A   1     -24.704   0.356  31.638  0.00  0.00    +0.325 C 
ATOM      2  O   UNL A   1     -25.202   1.202  32.169  0.00  0.00    -0.250 OA
ENDROOT
BRANCH   1   5
ATOM      3  O   UNL A   1     -22.318  -1.152  31.620  0.00  0.00    -0.273 OA
ATOM      4  C   UNL A   1     -22.727  -0.419  30.712  0.00  0.00    +0.252 C 
ATOM      5  C   UNL A   1     -23.703   0.406  30.805  0.00  0.00    +0.177 C 
ATOM      6  N   UNL A   1     -21.840  -0.126  29.627  0.00  0.00    -0.204 NA
ATOM      7  C   UNL A   1     -22.083   0.599  28.608  0.00  0.00    +0.124 C 
ATOM      8  C   UNL A   1     -23.247   1.312  28.539  0.00  0.00    +0.102 C 
ATOM      9  C   UNL A   1     -24.128   1.253  29.587  0.00  0.00    +0.031 C 
BRANCH   8  10
ATOM     10  C   UNL A   1     -23.501   2.156  27.319  0.00  0.00    +0.262 C 
ATOM     11  N   UNL A   1     -24.060   3.249  27.492  0.00  0.00    -0.088 NA
ATOM     12  O   UNL A   1     -23.248   1.775  26.141  0.00  0.00    -0.272 OA
ENDBRANCH   8  10
ENDBRANCH   1   5
BRANCH   1  13
ATOM     13  O   UNL A   1     -25.550  -0.833  31.525  0.00  0.00    -0.448 OA
BRANCH  13  14
ATOM     14  C   UNL A   1     -26.744  -0.850  31.118  0.00  0.00    +0.213 C 
BRANCH  14  15
ATOM     15  C   UNL A   1     -26.945  -1.613  29.953  0.00  0.00    +0.074 C 
BRANCH  15  16
ATOM     16  C   UNL A   1     -25.903  -2.369  29.546  0.00  0.00    -0.018 A 
ATOM     17  C   UNL A   1     -25.028  -2.419  29.058  0.00  0.00    -0.004 A 
ATOM     18  C   UNL A   1     -24.047  -3.520  28.771  0.00  0.00    -0.000 A 
ATOM     19  C   UNL A   1     -24.578  -4.807  28.975  0.00  0.00    -0.000 A 
ATOM     20  C   UNL A   1     -25.842  -4.954  29.451  0.00  0.00    -0.000 A 
ATOM     21  C   UNL A   1     -26.482  -3.826  29.790  0.00  0.00    -0.004 A 
ENDBRANCH  15  16
ENDBRANCH  14  15
ENDBRANCH  13  14
ENDBRANCH   1  13
TORSDOF 6
ENDMDL
ENDMDL
