REMARK  Name = No_2076-gen_results/8p0m/2024-11-26-14-13-15/
REMARK  6 active torsions:
REMARK  status: ('A' for Active; 'I' for Inactive)
REMARK    1  A    between atoms: C_3  and  C_5
REMARK    2  A    between atoms: C_5  and  O_10
REMARK    3  A    between atoms: C_7  and  C_11
REMARK    4  A    between atoms: O_10  and  C_14
REMARK    5  A    between atoms: C_14  and  C_15
REMARK    6  A    between atoms: C_15  and  C_16
REMARK                            x       y       z     vdW  Elec       q    Type
REMARK                         _______ _______ _______ _____ _____    ______ ____
ROOT
ATOM      1  C   UNL A   1     -27.867   0.959  30.111  0.00  0.00    +0.325 C 
ATOM      2  O   UNL A   1     -28.720   1.349  29.506  0.00  0.00    -0.250 OA
ENDROOT
BRANCH   1   5
ATOM      3  O   UNL A   1     -28.123  -1.335  28.487  0.00  0.00    -0.273 OA
ATOM      4  C   UNL A   1     -27.064  -0.824  28.869  0.00  0.00    +0.252 C 
ATOM      5  C   UNL A   1     -26.959   0.093  29.758  0.00  0.00    +0.177 C 
ATOM      6  N   UNL A   1     -25.847  -1.549  28.659  0.00  0.00    -0.204 NA
ATOM      7  C   UNL A   1     -24.669  -1.185  28.978  0.00  0.00    +0.124 C 
ATOM      8  C   UNL A   1     -24.481  -0.053  29.721  0.00  0.00    +0.102 C 
ATOM      9  C   UNL A   1     -25.575   0.662  30.134  0.00  0.00    +0.031 C 
BRANCH   8  10
ATOM     10  C   UNL A   1     -23.075   0.347  30.077  0.00  0.00    +0.262 C 
ATOM     11  N   UNL A   1     -22.907   1.490  30.528  0.00  0.00    -0.088 NA
ATOM     12  O   UNL A   1     -22.066  -0.384  29.867  0.00  0.00    -0.272 OA
ENDBRANCH   8  10
ENDBRANCH   1   5
BRANCH   1  13
ATOM     13  O   UNL A   1     -28.074   1.093  31.554  0.00  0.00    -0.448 OA
BRANCH  13  14
ATOM     14  C   UNL A   1     -29.074   1.627  32.106  0.00  0.00    +0.213 C 
BRANCH  14  15
ATOM     15  C   UNL A   1     -29.180   1.365  33.485  0.00  0.00    +0.074 C 
BRANCH  15  16
ATOM     16  C   UNL A   1     -28.069   0.898  34.092  0.00  0.00    -0.018 A 
ATOM     17  C   UNL A   1     -27.378   1.017  34.810  0.00  0.00    -0.004 A 
ATOM     18  C   UNL A   1     -26.169   0.237  35.243  0.00  0.00    -0.000 A 
ATOM     19  C   UNL A   1     -25.738  -0.700  34.286  0.00  0.00    -0.000 A 
ATOM     20  C   UNL A   1     -26.440  -0.870  33.136  0.00  0.00    -0.000 A 
ATOM     21  C   UNL A   1     -27.582  -0.176  33.031  0.00  0.00    -0.004 A 
ENDBRANCH  15  16
ENDBRANCH  14  15
ENDBRANCH  13  14
ENDBRANCH   1  13
TORSDOF 6
