REMARK  Name = No_2077-gen_results/8p0m/2024-11-26-14-13-15/
REMARK  0 active torsions:
REMARK  status: ('A' for Active; 'I' for Inactive)
REMARK                            x       y       z     vdW  Elec       q    Type
REMARK                         _______ _______ _______ _____ _____    ______ ____
ROOT
ATOM      1  C   UNL A   1     -28.016  -0.814  28.878  0.00  0.00    +0.000 A 
ATOM      2  C   UNL A   1     -28.469  -0.785  29.829  0.00  0.00    +0.000 A 
ATOM      3  C   UNL A   1     -27.087   0.290  28.638  0.00  0.00    +0.000 A 
ATOM      4  C   UNL A   1     -26.252   0.411  27.422  0.00  0.00    +0.000 A 
ATOM      5  C   UNL A   1     -28.314  -0.127  30.710  0.00  0.00    +0.000 A 
ATOM      6  C   UNL A   1     -27.483   1.008  30.810  0.00  0.00    +0.000 A 
ATOM      7  C   UNL A   1     -26.777   1.172  29.687  0.00  0.00    +0.000 A 
ATOM      8  C   UNL A   1     -25.792   1.655  27.086  0.00  0.00    +0.000 A 
ATOM      9  C   UNL A   1     -25.501   2.597  28.158  0.00  0.00    +0.000 A 
ATOM     10  C   UNL A   1     -26.145   2.445  29.382  0.00  0.00    +0.000 A 
ENDROOT
TORSDOF 0
