MODEL 2078
MODEL 1
REMARK VINA RESULT:    -5.383      0.000      0.000
REMARK INTER + INTRA:          -5.926
REMARK INTER:                  -5.697
REMARK INTRA:                  -0.229
REMARK UNBOUND:                -0.229
REMARK  Name = No_2078-gen_results/8p0m/2024-11-26-14-13-15/
REMARK  1 active torsions:
REMARK  status: ('A' for Active; 'I' for Inactive)
REMARK    1  A    between atoms: C_3  and  C_4
REMARK                            x       y       z     vdW  Elec       q    Type
REMARK                         _______ _______ _______ _____ _____    ______ ____
ROOT
ATOM      1  C   UNL A   1     -26.482  -3.511  29.990  0.00  0.00    -0.000 A 
ATOM      2  C   UNL A   1     -25.757  -2.604  29.650  0.00  0.00    -0.000 A 
ATOM      3  C   UNL A   1     -24.572  -2.778  29.012  0.00  0.00    -0.004 A 
ATOM      4  C   UNL A   1     -26.109  -4.900  29.663  0.00  0.00    -0.000 A 
ATOM      5  C   UNL A   1     -24.953  -5.160  29.064  0.00  0.00    -0.000 A 
ATOM      6  C   UNL A   1     -24.136  -4.101  28.693  0.00  0.00    -0.000 A 
ENDROOT
BRANCH   3   7
ATOM      7  C   UNL A   1     -23.676  -1.680  28.588  0.00  0.00    -0.026 C 
ATOM      8  C   UNL A   1     -22.729  -1.205  29.555  0.00  0.00    -0.030 C 
ATOM      9  C   UNL A   1     -21.858  -0.145  29.263  0.00  0.00    +0.030 C 
ATOM     10  C   UNL A   1     -24.263  -0.366  28.180  0.00  0.00    +0.031 C 
ENDBRANCH   3   7
TORSDOF 1
ENDMDL
ENDMDL
