MODEL 2079
MODEL 1
REMARK VINA RESULT:    -5.845      0.000      0.000
REMARK INTER + INTRA:          -6.858
REMARK INTER:                  -6.528
REMARK INTRA:                  -0.330
REMARK UNBOUND:                -0.330
REMARK  Name = No_2079-gen_results/8p0m/2024-11-26-14-13-15/
REMARK  2 active torsions:
REMARK  status: ('A' for Active; 'I' for Inactive)
REMARK    1  A    between atoms: C_3  and  C_12
REMARK    2  A    between atoms: C_6  and  C_7
REMARK                            x       y       z     vdW  Elec       q    Type
REMARK                         _______ _______ _______ _____ _____    ______ ____
ROOT
ATOM      1  C   UNL A   1     -25.300  -0.111  24.819  0.00  0.00    +0.004 A 
ATOM      2  C   UNL A   1     -26.401  -0.405  24.415  0.00  0.00    +0.000 A 
ATOM      3  C   UNL A   1     -27.514   0.426  24.536  0.00  0.00    +0.000 A 
ATOM      4  C   UNL A   1     -27.379   1.691  25.232  0.00  0.00    +0.000 A 
ATOM      5  C   UNL A   1     -26.067   1.962  25.683  0.00  0.00    +0.004 A 
ATOM      6  C   UNL A   1     -25.082   1.114  25.528  0.00  0.00    +0.054 A 
ENDROOT
BRANCH   3   7
ATOM      7  C   UNL A   1     -28.880   0.151  23.967  0.00  0.00    +0.000 A 
ATOM      8  C   UNL A   1     -29.435  -1.107  23.927  0.00  0.00    +0.000 A 
ATOM      9  C   UNL A   1     -30.752  -1.291  23.460  0.00  0.00    +0.000 A 
ATOM     10  C   UNL A   1     -31.540  -0.131  23.116  0.00  0.00    +0.000 A 
ATOM     11  C   UNL A   1     -29.778   1.211  23.685  0.00  0.00    +0.000 A 
ATOM     12  C   UNL A   1     -31.036   1.054  23.244  0.00  0.00    +0.000 A 
ENDBRANCH   3   7
BRANCH   6  13
ATOM     13  C   UNL A   1     -23.779   1.517  26.122  0.00  0.00    +0.249 C 
ATOM     14  N   UNL A   1     -23.354   0.986  27.118  0.00  0.00    -0.273 N 
ATOM     15  O   UNL A   1     -23.107   2.451  25.533  0.00  0.00    -0.270 OA
ATOM     16  C   UNL A   1     -24.038   0.100  27.956  0.00  0.00    +0.115 C 
ATOM     17  C   UNL A   1     -22.250   1.816  27.768  0.00  0.00    +0.115 C 
ENDBRANCH   6  13
TORSDOF 2
ENDMDL
ENDMDL
