REMARK  Name = No_2079-gen_results/8p0m/2024-11-26-14-13-15/
REMARK  2 active torsions:
REMARK  status: ('A' for Active; 'I' for Inactive)
REMARK    1  A    between atoms: C_3  and  C_12
REMARK    2  A    between atoms: C_6  and  C_7
REMARK                            x       y       z     vdW  Elec       q    Type
REMARK                         _______ _______ _______ _____ _____    ______ ____
ROOT
ATOM      1  C   UNL A   1     -28.016  -0.814  28.878  0.00  0.00    +0.004 A 
ATOM      2  C   UNL A   1     -27.064  -0.119  28.608  0.00  0.00    +0.000 A 
ATOM      3  C   UNL A   1     -25.765  -0.390  29.036  0.00  0.00    +0.000 A 
ATOM      4  C   UNL A   1     -25.530  -1.530  29.901  0.00  0.00    +0.000 A 
ATOM      5  C   UNL A   1     -26.689  -2.289  30.181  0.00  0.00    +0.004 A 
ATOM      6  C   UNL A   1     -27.873  -1.951  29.737  0.00  0.00    +0.054 A 
ENDROOT
BRANCH   3   7
ATOM      7  C   UNL A   1     -24.534   0.385  28.649  0.00  0.00    +0.000 A 
ATOM      8  C   UNL A   1     -23.294   0.138  29.189  0.00  0.00    +0.000 A 
ATOM      9  C   UNL A   1     -22.162   0.838  28.726  0.00  0.00    +0.000 A 
ATOM     10  C   UNL A   1     -22.309   1.748  27.614  0.00  0.00    +0.000 A 
ATOM     11  C   UNL A   1     -24.535   1.233  27.513  0.00  0.00    +0.000 A 
ATOM     12  C   UNL A   1     -23.466   1.904  27.056  0.00  0.00    +0.000 A 
ENDBRANCH   3   7
BRANCH   6  13
ATOM     13  C   UNL A   1     -29.002  -2.814  30.179  0.00  0.00    +0.249 C 
ATOM     14  N   UNL A   1     -30.141  -2.419  30.145  0.00  0.00    -0.273 N 
ATOM     15  O   UNL A   1     -28.728  -4.007  30.593  0.00  0.00    -0.270 OA
ATOM     16  C   UNL A   1     -30.572  -1.112  29.896  0.00  0.00    +0.115 C 
ATOM     17  C   UNL A   1     -31.058  -3.279  31.011  0.00  0.00    +0.115 C 
ENDBRANCH   6  13
TORSDOF 2
