MODEL 207
MODEL 1
REMARK VINA RESULT:    -6.510      0.000      0.000
REMARK INTER + INTRA:          -9.715
REMARK INTER:                  -8.794
REMARK INTRA:                  -0.921
REMARK UNBOUND:                -0.921
REMARK  Name = No_207-gen_results/8p0m/2024-11-26-14-13-15/
REMARK  6 active torsions:
REMARK  status: ('A' for Active; 'I' for Inactive)
REMARK    1  A    between atoms: C_1  and  C_2
REMARK    2  A    between atoms: C_1  and  N_8
REMARK    3  A    between atoms: C_5  and  C_9
REMARK    4  A    between atoms: C_13  and  C_14
REMARK    5  A    between atoms: C_15  and  C_16
REMARK    6  A    between atoms: C_17  and  C_18
REMARK                            x       y       z     vdW  Elec       q    Type
REMARK                         _______ _______ _______ _____ _____    ______ ____
ROOT
ATOM      1  C   UNL A   1     -22.445  -0.167  28.943  0.00  0.00    +0.002 A 
ATOM      2  C   UNL A   1     -21.545   0.735  28.401  0.00  0.00    -0.002 A 
ATOM      3  C   UNL A   1     -21.727   1.501  27.192  0.00  0.00    +0.004 A 
ATOM      4  C   UNL A   1     -22.693   1.533  26.693  0.00  0.00    +0.071 A 
ATOM      5  C   UNL A   1     -23.857   0.680  27.016  0.00  0.00    +0.004 A 
ATOM      6  C   UNL A   1     -23.659  -0.065  28.151  0.00  0.00    -0.002 A 
ENDROOT
BRANCH   4   7
ATOM      7  C   UNL A   1     -23.035   2.310  25.359  0.00  0.00    +0.419 C 
ATOM      8  F   UNL A   1     -22.088   2.744  24.832  0.00  0.00    -0.166 F 
ATOM      9  F   UNL A   1     -23.710   1.517  24.447  0.00  0.00    -0.166 F 
ATOM     10  F   UNL A   1     -23.945   3.376  25.523  0.00  0.00    -0.166 F 
ENDBRANCH   4   7
BRANCH   1  11
ATOM     11  C   UNL A   1     -22.301  -0.747  29.995  0.00  0.00    +0.152 C 
BRANCH  11  12
ATOM     12  N   UNL A   1     -23.008  -0.183  31.105  0.00  0.00    -0.264 NA
ATOM     13  C   UNL A   1     -23.760  -0.341  31.751  0.00  0.00    +0.093 C 
BRANCH  13  14
ATOM     14  C   UNL A   1     -24.632  -1.475  31.509  0.00  0.00    +0.020 C 
ATOM     15  C   UNL A   1     -25.641  -1.411  30.878  0.00  0.00    +0.002 C 
BRANCH  15  16
ATOM     16  C   UNL A   1     -26.526  -2.538  30.574  0.00  0.00    +0.000 C 
ATOM     17  C   UNL A   1     -26.181  -3.506  29.650  0.00  0.00    +0.000 C 
BRANCH  17  18
ATOM     18  C   UNL A   1     -24.966  -3.380  28.938  0.00  0.00    +0.000 C 
ATOM     19  C   UNL A   1     -24.178  -4.412  28.782  0.00  0.00    +0.000 C 
ENDBRANCH  17  18
ENDBRANCH  15  16
ENDBRANCH  13  14
ENDBRANCH  11  12
ENDBRANCH   1  11
TORSDOF 6
ENDMDL
ENDMDL
