MODEL 2080
MODEL 1
REMARK VINA RESULT:    -7.664      0.000      0.000
REMARK INTER + INTRA:         -10.890
REMARK INTER:                  -9.904
REMARK INTRA:                  -0.986
REMARK UNBOUND:                -0.986
REMARK  Name = No_2080-gen_results/8p0m/2024-11-26-14-13-15/
REMARK  5 active torsions:
REMARK  status: ('A' for Active; 'I' for Inactive)
REMARK    1  A    between atoms: C_3  and  C_8
REMARK    2  A    between atoms: CA_7  and  C_15
REMARK    3  A    between atoms: C_8  and  C_9
REMARK    4  A    between atoms: C_8  and  C_18
REMARK    5  A    between atoms: C_18  and  C_19
REMARK                            x       y       z     vdW  Elec       q    Type
REMARK                         _______ _______ _______ _____ _____    ______ ____
ROOT
ATOM      1  C   UNL A   1     -24.251  -1.417  29.667  0.00  0.00    +0.052 C 
ENDROOT
BRANCH   1   4
ATOM      2  O   UNL A   1     -23.001  -1.565  32.135  0.00  0.00    -0.272 OA
ATOM      3  C   UNL A   1     -23.990  -0.839  31.981  0.00  0.00    +0.258 C 
ATOM      4  C   UNL A   1     -24.737  -0.811  30.941  0.00  0.00    +0.155 C 
ATOM      5  N   UNL A   1     -24.625  -0.302  33.147  0.00  0.00    -0.202 NA
ATOM      6  N   UNL A   1     -25.848   0.005  30.801  0.00  0.00    -0.199 NA
ATOM      7  C   UNL A   1     -25.765   0.513  33.110  0.00  0.00    +0.144 C 
ATOM      8  CA  UNL A   1     -26.370   0.649  31.902  0.00  0.00    +0.198 C 
BRANCH   8   9
ATOM      9  C   UNL A   1     -27.606   1.446  31.782  0.00  0.00    +0.382 C 
ATOM     10  O   UNL A   1     -28.203   1.877  32.818  0.00  0.00    -0.244 OA
ATOM     11  OXT UNL A   1     -28.053   1.773  30.583  0.00  0.00    -0.244 OA
ENDBRANCH   8   9
ENDBRANCH   1   4
BRANCH   1  12
ATOM     12  C   UNL A   1     -24.650  -2.697  29.365  0.00  0.00    -0.020 A 
ATOM     13  C   UNL A   1     -25.759  -3.089  29.811  0.00  0.00    -0.004 A 
ATOM     14  C   UNL A   1     -26.156  -4.496  29.634  0.00  0.00    -0.000 A 
ATOM     15  C   UNL A   1     -25.399  -5.242  29.266  0.00  0.00    -0.000 A 
ATOM     16  C   UNL A   1     -23.863  -3.704  28.635  0.00  0.00    -0.004 A 
ATOM     17  C   UNL A   1     -24.181  -4.957  28.564  0.00  0.00    -0.000 A 
ENDBRANCH   1  12
BRANCH   1  18
ATOM     18  C   UNL A   1     -23.322  -0.658  28.950  0.00  0.00    +0.033 C 
BRANCH  18  19
ATOM     19  C   UNL A   1     -23.421   0.458  28.248  0.00  0.00    -0.022 A 
ATOM     20  C   UNL A   1     -22.563   1.266  28.161  0.00  0.00    -0.004 A 
ATOM     21  C   UNL A   1     -22.028   1.891  26.970  0.00  0.00    -0.000 A 
ATOM     22  C   UNL A   1     -23.041   2.101  26.013  0.00  0.00    -0.000 A 
ATOM     23  C   UNL A   1     -24.179   1.223  26.033  0.00  0.00    -0.000 A 
ATOM     24  C   UNL A   1     -24.393   0.369  27.104  0.00  0.00    -0.004 A 
ENDBRANCH  18  19
ENDBRANCH   1  18
TORSDOF 5
ENDMDL
ENDMDL
