REMARK  Name = No_2080-gen_results/8p0m/2024-11-26-14-13-15/
REMARK  5 active torsions:
REMARK  status: ('A' for Active; 'I' for Inactive)
REMARK    1  A    between atoms: C_3  and  C_8
REMARK    2  A    between atoms: CA_7  and  C_15
REMARK    3  A    between atoms: C_8  and  C_9
REMARK    4  A    between atoms: C_8  and  C_18
REMARK    5  A    between atoms: C_18  and  C_19
REMARK                            x       y       z     vdW  Elec       q    Type
REMARK                         _______ _______ _______ _____ _____    ______ ____
ROOT
ATOM      1  C   UNL A   1     -28.165   0.877  30.155  0.00  0.00    +0.052 C 
ENDROOT
BRANCH   1   4
ATOM      2  O   UNL A   1     -28.123  -1.335  28.487  0.00  0.00    -0.272 OA
ATOM      3  C   UNL A   1     -27.064  -0.824  28.869  0.00  0.00    +0.258 C 
ATOM      4  C   UNL A   1     -26.959   0.093  29.758  0.00  0.00    +0.155 C 
ATOM      5  N   UNL A   1     -25.847  -1.549  28.659  0.00  0.00    -0.202 NA
ATOM      6  N   UNL A   1     -25.756   0.639  30.176  0.00  0.00    -0.199 NA
ATOM      7  C   UNL A   1     -24.586  -1.092  29.066  0.00  0.00    +0.144 C 
ATOM      8  CA  UNL A   1     -24.569   0.023  29.841  0.00  0.00    +0.198 C 
BRANCH   8   9
ATOM      9  C   UNL A   1     -23.289   0.543  30.358  0.00  0.00    +0.382 C 
ATOM     10  O   UNL A   1     -22.195  -0.046  30.091  0.00  0.00    -0.244 OA
ATOM     11  OXT UNL A   1     -23.277   1.672  31.043  0.00  0.00    -0.244 OA
ENDBRANCH   8   9
ENDBRANCH   1   4
BRANCH   1  12
ATOM     12  C   UNL A   1     -28.699   1.752  29.240  0.00  0.00    -0.020 A 
ATOM     13  C   UNL A   1     -29.932   1.994  29.307  0.00  0.00    -0.004 A 
ATOM     14  C   UNL A   1     -30.569   2.809  28.259  0.00  0.00    -0.000 A 
ATOM     15  C   UNL A   1     -29.994   3.055  27.324  0.00  0.00    -0.000 A 
ATOM     16  C   UNL A   1     -27.985   2.378  28.116  0.00  0.00    -0.004 A 
ATOM     17  C   UNL A   1     -28.570   3.017  27.154  0.00  0.00    -0.000 A 
ENDBRANCH   1  12
BRANCH   1  18
ATOM     18  C   UNL A   1     -28.570   0.734  31.485  0.00  0.00    +0.033 C 
BRANCH  18  19
ATOM     19  C   UNL A   1     -28.037   0.121  32.528  0.00  0.00    -0.022 A 
ATOM     20  C   UNL A   1     -26.875  -0.004  32.703  0.00  0.00    -0.004 A 
ATOM     21  C   UNL A   1     -26.105   0.279  33.895  0.00  0.00    -0.000 A 
ATOM     22  C   UNL A   1     -26.843  -0.028  35.056  0.00  0.00    -0.000 A 
ATOM     23  C   UNL A   1     -28.277   0.030  34.978  0.00  0.00    -0.000 A 
ATOM     24  C   UNL A   1     -28.913   0.135  33.751  0.00  0.00    -0.004 A 
ENDBRANCH  18  19
ENDBRANCH   1  18
TORSDOF 5
