MODEL 2081
MODEL 1
REMARK VINA RESULT:    -5.549      0.000      0.000
REMARK INTER + INTRA:          -5.549
REMARK INTER:                  -5.549
REMARK INTRA:                   0.000
REMARK UNBOUND:                 0.000
REMARK  Name = No_2081-gen_results/8p0m/2024-11-26-14-13-15/
REMARK  0 active torsions:
REMARK  status: ('A' for Active; 'I' for Inactive)
REMARK                            x       y       z     vdW  Elec       q    Type
REMARK                         _______ _______ _______ _____ _____    ______ ____
ROOT
ATOM      1  C   UNL A   1     -25.403  -2.462  30.077  0.00  0.00    -0.016 A 
ATOM      2  C   UNL A   1     -25.796  -1.484  30.067  0.00  0.00    +0.073 C 
ATOM      3  C   UNL A   1     -24.321  -2.738  29.056  0.00  0.00    -0.002 A 
ATOM      4  C   UNL A   1     -23.250  -1.861  28.990  0.00  0.00    +0.020 C 
ATOM      5  C   UNL A   1     -24.861  -0.242  30.287  0.00  0.00    +0.077 C 
ATOM      6  N   UNL A   1     -23.801  -0.489  30.432  0.00  0.00    -0.247 NA
ATOM      7  C   UNL A   1     -22.871  -0.886  29.641  0.00  0.00    +0.099 C 
ATOM      8  C   UNL A   1     -26.473  -3.547  29.846  0.00  0.00    -0.004 A 
ATOM      9  C   UNL A   1     -26.047  -4.889  29.651  0.00  0.00    -0.000 A 
ATOM     10  C   UNL A   1     -24.803  -5.122  28.909  0.00  0.00    -0.000 A 
ATOM     11  C   UNL A   1     -23.929  -4.121  28.658  0.00  0.00    -0.000 A 
ENDROOT
TORSDOF 0
ENDMDL
ENDMDL
