REMARK  Name = No_2081-gen_results/8p0m/2024-11-26-14-13-15/
REMARK  0 active torsions:
REMARK  status: ('A' for Active; 'I' for Inactive)
REMARK                            x       y       z     vdW  Elec       q    Type
REMARK                         _______ _______ _______ _____ _____    ______ ____
ROOT
ATOM      1  C   UNL A   1     -28.016  -0.814  28.878  0.00  0.00    -0.016 A 
ATOM      2  C   UNL A   1     -28.469  -0.785  29.829  0.00  0.00    +0.073 C 
ATOM      3  C   UNL A   1     -26.504  -0.778  28.877  0.00  0.00    -0.002 A 
ATOM      4  C   UNL A   1     -25.831  -1.681  29.685  0.00  0.00    +0.020 C 
ATOM      5  C   UNL A   1     -28.149  -1.885  30.903  0.00  0.00    +0.077 C 
ATOM      6  N   UNL A   1     -27.425  -2.644  30.577  0.00  0.00    -0.247 NA
ATOM      7  C   UNL A   1     -26.154  -2.632  30.398  0.00  0.00    +0.099 C 
ATOM      8  C   UNL A   1     -28.456   0.345  27.962  0.00  0.00    -0.004 A 
ATOM      9  C   UNL A   1     -27.780   0.527  26.726  0.00  0.00    -0.000 A 
ATOM     10  C   UNL A   1     -26.340   0.250  26.674  0.00  0.00    -0.000 A 
ATOM     11  C   UNL A   1     -25.711  -0.423  27.664  0.00  0.00    -0.000 A 
ENDROOT
TORSDOF 0
