MODEL 2082
MODEL 1
REMARK VINA RESULT:    -4.576      0.000      0.000
REMARK INTER + INTRA:          -4.576
REMARK INTER:                  -4.576
REMARK INTRA:                   0.000
REMARK UNBOUND:                 0.000
REMARK  Name = No_2082-gen_results/8p0m/2024-11-26-14-13-15/
REMARK  0 active torsions:
REMARK  status: ('A' for Active; 'I' for Inactive)
REMARK                            x       y       z     vdW  Elec       q    Type
REMARK                         _______ _______ _______ _____ _____    ______ ____
ROOT
ATOM      1  C   UNL A   1     -10.139  -9.791  18.405  0.00  0.00    +0.030 A 
ATOM      2  C   UNL A   1      -9.120 -10.343  18.060  0.00  0.00    +0.140 A 
ATOM      3  C   UNL A   1      -8.019 -10.414  18.907  0.00  0.00    +0.030 A 
ATOM      4  C   UNL A   1      -8.042  -9.791  20.205  0.00  0.00    +0.002 A 
ATOM      5  C   UNL A   1      -9.251  -9.154  20.514  0.00  0.00    +0.000 A 
ATOM      6  C   UNL A   1     -10.256  -9.101  19.671  0.00  0.00    +0.002 A 
ATOM      7  F   UNL A   1      -8.944 -10.905  16.863  0.00  0.00    -0.204 F 
ENDROOT
TORSDOF 0
ENDMDL
ENDMDL
