REMARK  Name = No_2083-gen_results/8p0m/2024-11-26-14-13-15/
REMARK  4 active torsions:
REMARK  status: ('A' for Active; 'I' for Inactive)
REMARK    1  A    between atoms: C_2  and  C_8
REMARK    2  A    between atoms: C_3  and  C_11
REMARK    3  A    between atoms: C_11  and  C_12
REMARK    4  A    between atoms: C_12  and  C_13
REMARK                            x       y       z     vdW  Elec       q    Type
REMARK                         _______ _______ _______ _____ _____    ______ ____
ROOT
ATOM      1  C   UNL A   1     -28.016  -0.814  28.878  0.00  0.00    +0.004 A 
ATOM      2  C   UNL A   1     -28.469  -0.785  29.829  0.00  0.00    +0.080 A 
ATOM      3  C   UNL A   1     -26.546  -0.876  28.850  0.00  0.00    +0.006 A 
ATOM      4  C   UNL A   1     -25.804  -1.032  30.057  0.00  0.00    +0.136 A 
ATOM      5  C   UNL A   1     -26.537  -1.039  31.217  0.00  0.00    +0.029 A 
ATOM      6  C   UNL A   1     -27.884  -0.953  31.186  0.00  0.00    +0.009 A 
ATOM      7  F   UNL A   1     -24.526  -1.085  30.037  0.00  0.00    -0.204 F 
ENDROOT
BRANCH   2   8
ATOM      8  C   UNL A   1     -30.067  -0.719  29.932  0.00  0.00    +0.388 C 
ATOM      9  O   UNL A   1     -30.762  -1.535  30.187  0.00  0.00    -0.241 OA
ATOM     10  O   UNL A   1     -30.516   0.368  29.197  0.00  0.00    -0.241 OA
ENDBRANCH   2   8
BRANCH   3  11
ATOM     11  C   UNL A   1     -25.682  -0.791  27.602  0.00  0.00    +0.035 C 
BRANCH  11  12
ATOM     12  C   UNL A   1     -24.519   0.021  27.692  0.00  0.00    +0.052 C 
BRANCH  12  13
ATOM     13  C   UNL A   1     -23.800  -0.385  28.965  0.00  0.00    +0.090 C 
ATOM     14  C   UNL A   1     -22.370  -0.126  29.173  0.00  0.00    +0.028 C 
ATOM     15 CL   UNL A   1     -23.295   0.282  29.557  0.00  0.00    -0.077 Cl
ATOM     16  N   UNL A   1     -21.425  -0.680  29.556  0.00  0.00    -0.095 NA
ENDBRANCH  12  13
ENDBRANCH  11  12
ENDBRANCH   3  11
TORSDOF 4
