MODEL 2083
MODEL 1
REMARK VINA RESULT:    -6.135      0.000      0.000
REMARK INTER + INTRA:          -8.115
REMARK INTER:                  -7.570
REMARK INTRA:                  -0.545
REMARK UNBOUND:                -0.545
REMARK  Name = No_2083-gen_results/8p0m/2024-11-26-14-13-15/
REMARK  4 active torsions:
REMARK  status: ('A' for Active; 'I' for Inactive)
REMARK    1  A    between atoms: C_2  and  C_8
REMARK    2  A    between atoms: C_3  and  C_11
REMARK    3  A    between atoms: C_11  and  C_12
REMARK    4  A    between atoms: C_12  and  C_13
REMARK                            x       y       z     vdW  Elec       q    Type
REMARK                         _______ _______ _______ _____ _____    ______ ____
ROOT
ATOM      1  C   UNL A   1     -23.833   0.888  27.421  0.00  0.00    +0.004 A 
ATOM      2  C   UNL A   1     -23.038   1.380  26.936  0.00  0.00    +0.080 A 
ATOM      3  C   UNL A   1     -23.472  -0.033  28.511  0.00  0.00    +0.006 A 
ATOM      4  C   UNL A   1     -22.124  -0.127  28.963  0.00  0.00    +0.136 A 
ATOM      5  C   UNL A   1     -21.204   0.622  28.273  0.00  0.00    +0.029 A 
ATOM      6  C   UNL A   1     -21.588   1.432  27.263  0.00  0.00    +0.009 A 
ATOM      7  F   UNL A   1     -21.806  -0.927  29.909  0.00  0.00    -0.204 F 
ENDROOT
BRANCH   2   8
ATOM      8  C   UNL A   1     -23.361   2.399  25.742  0.00  0.00    +0.388 C 
ATOM      9  O   UNL A   1     -22.705   2.688  24.905  0.00  0.00    -0.241 OA
ATOM     10  O   UNL A   1     -24.387   3.242  26.141  0.00  0.00    -0.241 OA
ENDBRANCH   2   8
BRANCH   3  11
ATOM     11  C   UNL A   1     -24.436  -0.945  29.253  0.00  0.00    +0.035 C 
BRANCH  11  12
ATOM     12  C   UNL A   1     -24.927  -2.067  28.532  0.00  0.00    +0.052 C 
BRANCH  12  13
ATOM     13  C   UNL A   1     -24.293  -3.297  29.155  0.00  0.00    +0.090 C 
ATOM     14  C   UNL A   1     -24.784  -4.654  28.882  0.00  0.00    +0.028 C 
ATOM     15 CL   UNL A   1     -23.917  -4.072  28.599  0.00  0.00    -0.077 Cl
ATOM     16  N   UNL A   1     -25.043  -5.625  29.461  0.00  0.00    -0.095 NA
ENDBRANCH  12  13
ENDBRANCH  11  12
ENDBRANCH   3  11
TORSDOF 4
ENDMDL
ENDMDL
