MODEL 2084
MODEL 1
REMARK VINA RESULT:    -6.186      0.000      0.000
REMARK INTER + INTRA:          -8.670
REMARK INTER:                  -7.271
REMARK INTRA:                  -1.400
REMARK UNBOUND:                -1.400
REMARK  Name = No_2084-gen_results/8p0m/2024-11-26-14-13-15/
REMARK  3 active torsions:
REMARK  status: ('A' for Active; 'I' for Inactive)
REMARK    1  A    between atoms: C_1  and  C_3
REMARK    2  A    between atoms: C_3  and  C_4
REMARK    3  A    between atoms: C_5  and  C_6
REMARK                            x       y       z     vdW  Elec       q    Type
REMARK                         _______ _______ _______ _____ _____    ______ ____
ROOT
ATOM      1  C   UNL A   1     -24.604  -3.333  29.075  0.00  0.00    -0.022 C 
ATOM      2  C   UNL A   1     -25.507  -3.293  29.652  0.00  0.00    -0.022 C 
ATOM      3  C   UNL A   1     -24.001  -4.575  28.536  0.00  0.00    -0.009 C 
ATOM      4  C   UNL A   1     -24.959  -5.520  28.904  0.00  0.00    -0.022 C 
ATOM      5  C   UNL A   1     -25.984  -4.810  29.634  0.00  0.00    +0.052 C 
ENDROOT
BRANCH   2   6
ATOM      6  C   UNL A   1     -26.629  -2.725  29.927  0.00  0.00    -0.009 C 
ATOM      7  C   UNL A   1     -26.824  -1.778  30.921  0.00  0.00    -0.026 C 
ATOM      8  C   UNL A   1     -26.768  -0.736  31.422  0.00  0.00    +0.031 C 
ENDBRANCH   2   6
BRANCH   1   9
ATOM      9  C   UNL A   1     -23.506  -2.357  28.932  0.00  0.00    +0.052 C 
BRANCH   9  10
ATOM     10  C   UNL A   1     -23.737  -0.925  29.158  0.00  0.00    -0.018 A 
ATOM     11  C   UNL A   1     -23.833  -0.369  28.268  0.00  0.00    -0.004 A 
ATOM     12  C   UNL A   1     -23.970   1.218  28.330  0.00  0.00    -0.000 A 
ATOM     13  C   UNL A   1     -23.918   1.706  29.618  0.00  0.00    -0.000 A 
ATOM     14  C   UNL A   1     -23.449   1.006  30.651  0.00  0.00    -0.000 A 
ATOM     15  C   UNL A   1     -23.247  -0.392  30.402  0.00  0.00    -0.004 A 
ENDBRANCH   9  10
ENDBRANCH   1   9
TORSDOF 3
ENDMDL
ENDMDL
