REMARK  Name = No_2084-gen_results/8p0m/2024-11-26-14-13-15/
REMARK  3 active torsions:
REMARK  status: ('A' for Active; 'I' for Inactive)
REMARK    1  A    between atoms: C_1  and  C_3
REMARK    2  A    between atoms: C_3  and  C_4
REMARK    3  A    between atoms: C_5  and  C_6
REMARK                            x       y       z     vdW  Elec       q    Type
REMARK                         _______ _______ _______ _____ _____    ______ ____
ROOT
ATOM      1  C   UNL A   1     -27.450   0.643  26.850  0.00  0.00    -0.022 C 
ATOM      2  C   UNL A   1     -26.453   0.994  26.668  0.00  0.00    -0.022 C 
ATOM      3  C   UNL A   1     -28.537   0.632  25.843  0.00  0.00    -0.009 C 
ATOM      4  C   UNL A   1     -27.857   1.075  24.708  0.00  0.00    -0.022 C 
ATOM      5  C   UNL A   1     -26.497   1.343  25.117  0.00  0.00    +0.052 C 
ENDROOT
BRANCH   2   6
ATOM      6  C   UNL A   1     -25.181   0.862  26.816  0.00  0.00    -0.009 C 
ATOM      7  C   UNL A   1     -24.219   1.677  26.240  0.00  0.00    -0.026 C 
ATOM      8  C   UNL A   1     -23.579   2.632  26.102  0.00  0.00    +0.031 C 
ENDBRANCH   2   6
BRANCH   1   9
ATOM      9  C   UNL A   1     -28.182   0.428  28.113  0.00  0.00    +0.052 C 
BRANCH   9  10
ATOM     10  C   UNL A   1     -28.016  -0.814  28.878  0.00  0.00    -0.018 A 
ATOM     11  C   UNL A   1     -28.469  -0.785  29.829  0.00  0.00    -0.004 A 
ATOM     12  C   UNL A   1     -28.285  -2.006  30.838  0.00  0.00    -0.000 A 
ATOM     13  C   UNL A   1     -27.485  -3.004  30.323  0.00  0.00    -0.000 A 
ATOM     14  C   UNL A   1     -26.671  -2.830  29.283  0.00  0.00    -0.000 A 
ATOM     15  C   UNL A   1     -26.866  -1.614  28.548  0.00  0.00    -0.004 A 
ENDBRANCH   9  10
ENDBRANCH   1   9
TORSDOF 3
