REMARK  Name = No_2085-gen_results/8p0m/2024-11-26-14-13-15/
REMARK  3 active torsions:
REMARK  status: ('A' for Active; 'I' for Inactive)
REMARK    1  A    between atoms: C_5  and  C_8
REMARK    2  A    between atoms: N_9  and  C_11
REMARK    3  A    between atoms: C_11  and  C_12
REMARK                            x       y       z     vdW  Elec       q    Type
REMARK                         _______ _______ _______ _____ _____    ______ ____
ROOT
ATOM      1 CL   UNL A   1     -28.149  -0.820  28.908  0.00  0.00    -0.082 Cl
ATOM      2  C   UNL A   1     -27.834   0.496  29.060  0.00  0.00    +0.058 A 
ATOM      3  C   UNL A   1     -27.514   1.238  28.049  0.00  0.00    +0.011 A 
ATOM      4  C   UNL A   1     -27.055   2.625  28.133  0.00  0.00    +0.005 A 
ATOM      5  C   UNL A   1     -26.707   3.014  29.006  0.00  0.00    +0.055 A 
ATOM      6  C   UNL A   1     -26.814   2.367  30.319  0.00  0.00    +0.005 A 
ATOM      7  C   UNL A   1     -27.278   1.089  30.251  0.00  0.00    +0.011 A 
ENDROOT
BRANCH   5   8
ATOM      8  C   UNL A   1     -26.168   4.503  29.242  0.00  0.00    +0.265 C 
ATOM      9  N   UNL A   1     -25.629   4.880  30.277  0.00  0.00    -0.197 NA
ATOM     10  O   UNL A   1     -26.119   5.252  28.174  0.00  0.00    -0.268 OA
BRANCH   9  11
ATOM     11  C   UNL A   1     -25.090   6.295  30.462  0.00  0.00    +0.141 C 
BRANCH  11  12
ATOM     12  C   UNL A   1     -25.485   7.154  29.457  0.00  0.00    -0.003 C 
ATOM     13  C   UNL A   1     -25.136   8.580  29.564  0.00  0.00    -0.003 C 
ENDBRANCH  11  12
ENDBRANCH   9  11
ENDBRANCH   5   8
TORSDOF 3
