MODEL 2085
MODEL 1
REMARK VINA RESULT:    -4.982      0.000      0.000
REMARK INTER + INTRA:          -6.080
REMARK INTER:                  -5.856
REMARK INTRA:                  -0.225
REMARK UNBOUND:                -0.225
REMARK  Name = No_2085-gen_results/8p0m/2024-11-26-14-13-15/
REMARK  3 active torsions:
REMARK  status: ('A' for Active; 'I' for Inactive)
REMARK    1  A    between atoms: C_5  and  C_8
REMARK    2  A    between atoms: N_9  and  C_11
REMARK    3  A    between atoms: C_11  and  C_12
REMARK                            x       y       z     vdW  Elec       q    Type
REMARK                         _______ _______ _______ _____ _____    ______ ____
ROOT
ATOM      1 CL   UNL A   1     -23.083   2.887  25.159  0.00  0.00    -0.082 Cl
ATOM      2  C   UNL A   1     -23.085   2.156  26.309  0.00  0.00    +0.058 A 
ATOM      3  C   UNL A   1     -21.987   1.863  26.928  0.00  0.00    +0.011 A 
ATOM      4  C   UNL A   1     -21.887   0.994  28.101  0.00  0.00    +0.005 A 
ATOM      5  C   UNL A   1     -22.638   0.353  28.349  0.00  0.00    +0.055 A 
ATOM      6  C   UNL A   1     -23.977   0.351  27.748  0.00  0.00    +0.005 A 
ATOM      7  C   UNL A   1     -24.087   1.188  26.681  0.00  0.00    +0.011 A 
ENDROOT
BRANCH   5   8
ATOM      8  C   UNL A   1     -22.662  -0.657  29.591  0.00  0.00    +0.265 C 
ATOM      9  N   UNL A   1     -22.813  -0.305  30.756  0.00  0.00    -0.197 NA
ATOM     10  O   UNL A   1     -22.747  -1.921  29.278  0.00  0.00    -0.268 OA
BRANCH   9  11
ATOM     11  C   UNL A   1     -22.870  -1.292  31.918  0.00  0.00    +0.141 C 
BRANCH  11  12
ATOM     12  C   UNL A   1     -23.884  -1.010  32.810  0.00  0.00    -0.003 C 
ATOM     13  C   UNL A   1     -25.042  -0.228  32.345  0.00  0.00    -0.003 C 
ENDBRANCH  11  12
ENDBRANCH   9  11
ENDBRANCH   5   8
TORSDOF 3
ENDMDL
ENDMDL
