MODEL 2086
MODEL 1
REMARK VINA RESULT:    -6.650      0.000      0.000
REMARK INTER + INTRA:         -10.805
REMARK INTER:                  -8.982
REMARK INTRA:                  -1.823
REMARK UNBOUND:                -1.823
REMARK  Name = No_2086-gen_results/8p0m/2024-11-26-14-13-15/
REMARK  6 active torsions:
REMARK  status: ('A' for Active; 'I' for Inactive)
REMARK    1  A    between atoms: C_3  and  C_8
REMARK    2  A    between atoms: C_5  and  C_18
REMARK    3  A    between atoms: C_23  and  C_24
REMARK    4  A    between atoms: C_24  and  N_25
REMARK    5  A    between atoms: N_25  and  C_26
REMARK    6  A    between atoms: C_26  and  C_28
REMARK                            x       y       z     vdW  Elec       q    Type
REMARK                         _______ _______ _______ _____ _____    ______ ____
ROOT
ATOM      1  O   UNL A   1     -28.044  -6.361   8.075  0.00  0.00    -0.273 OA
ATOM      2  C   UNL A   1     -28.986  -6.717   8.637  0.00  0.00    +0.251 C 
ATOM      3  C   UNL A   1     -29.449  -7.618   9.023  0.00  0.00    +0.109 C 
ATOM      4  N   UNL A   1     -29.827  -5.493   9.078  0.00  0.00    -0.160 NA
ATOM      5  C   UNL A   1     -30.670  -8.004   9.744  0.00  0.00    +0.060 C 
ATOM      6  C   UNL A   1     -31.018  -5.628   9.740  0.00  0.00    +0.151 A 
ATOM      7  C   UNL A   1     -31.463  -6.889  10.108  0.00  0.00    +0.016 A 
ATOM      8  N   UNL A   1     -31.719  -4.548  10.084  0.00  0.00    -0.228 NA
ATOM      9  C   UNL A   1     -32.852  -4.640  10.876  0.00  0.00    +0.100 A 
ATOM     10  C   UNL A   1     -33.362  -5.907  11.172  0.00  0.00    +0.021 A 
ATOM     11  C   UNL A   1     -32.698  -7.022  10.830  0.00  0.00    +0.001 A 
ENDROOT
BRANCH   3  12
ATOM     12  C   UNL A   1     -28.638  -8.994   8.739  0.00  0.00    -0.013 A 
ATOM     13  C   UNL A   1     -28.982  -9.534   7.409  0.00  0.00    -0.004 A 
ATOM     14  C   UNL A   1     -28.215 -10.447   7.037  0.00  0.00    -0.000 A 
ATOM     15  C   UNL A   1     -27.118 -11.001   7.839  0.00  0.00    -0.000 A 
ATOM     16  C   UNL A   1     -26.882 -10.421   9.043  0.00  0.00    -0.000 A 
ATOM     17  C   UNL A   1     -27.611  -9.373   9.507  0.00  0.00    -0.004 A 
ENDBRANCH   3  12
BRANCH   5  18
ATOM     18  C   UNL A   1     -31.112  -9.414  10.090  0.00  0.00    -0.018 A 
ATOM     19  C   UNL A   1     -30.908 -10.015  10.920  0.00  0.00    -0.004 A 
ATOM     20  C   UNL A   1     -31.455 -11.417  11.149  0.00  0.00    -0.003 A 
ATOM     21  C   UNL A   1     -32.054  -9.956   9.057  0.00  0.00    -0.004 A 
ATOM     22  C   UNL A   1     -32.657 -11.138   9.155  0.00  0.00    -0.003 A 
ATOM     23  C   UNL A   1     -32.314 -11.916  10.281  0.00  0.00    -0.005 A 
BRANCH  23  24
ATOM     24  C   UNL A   1     -32.895 -13.279  10.492  0.00  0.00    +0.115 C 
BRANCH  24  25
ATOM     25  N   UNL A   1     -32.287 -14.029  11.069  0.00  0.00    -0.209 NA
BRANCH  25  26
ATOM     26  C   UNL A   1     -31.481 -14.952  10.481  0.00  0.00    +0.140 C 
ATOM     27  C   UNL A   1     -31.343 -15.374   9.491  0.00  0.00    +0.025 C 
BRANCH  26  28
ATOM     28  C   UNL A   1     -30.201 -15.270  11.446  0.00  0.00    +0.334 C 
ATOM     29  F   UNL A   1     -29.427 -16.128  10.981  0.00  0.00    -0.197 F 
ATOM     30  F   UNL A   1     -29.480 -14.065  11.654  0.00  0.00    -0.197 F 
ENDBRANCH  26  28
ENDBRANCH  25  26
ENDBRANCH  24  25
ENDBRANCH  23  24
ENDBRANCH   5  18
TORSDOF 6
ENDMDL
ENDMDL
