REMARK  Name = No_2086-gen_results/8p0m/2024-11-26-14-13-15/
REMARK  6 active torsions:
REMARK  status: ('A' for Active; 'I' for Inactive)
REMARK    1  A    between atoms: C_3  and  C_8
REMARK    2  A    between atoms: C_5  and  C_18
REMARK    3  A    between atoms: C_23  and  C_24
REMARK    4  A    between atoms: C_24  and  N_25
REMARK    5  A    between atoms: N_25  and  C_26
REMARK    6  A    between atoms: C_26  and  C_28
REMARK                            x       y       z     vdW  Elec       q    Type
REMARK                         _______ _______ _______ _____ _____    ______ ____
ROOT
ATOM      1  O   UNL A   1     -28.123  -1.335  28.487  0.00  0.00    -0.273 OA
ATOM      2  C   UNL A   1     -27.481  -0.404  28.709  0.00  0.00    +0.251 C 
ATOM      3  C   UNL A   1     -27.190   0.246  29.527  0.00  0.00    +0.109 C 
ATOM      4  N   UNL A   1     -26.687  -0.000  27.442  0.00  0.00    -0.160 NA
ATOM      5  C   UNL A   1     -26.350   1.433  29.742  0.00  0.00    +0.060 C 
ATOM      6  C   UNL A   1     -25.865   1.094  27.415  0.00  0.00    +0.151 A 
ATOM      7  C   UNL A   1     -25.659   1.831  28.572  0.00  0.00    +0.016 A 
ATOM      8  N   UNL A   1     -25.215   1.417  26.297  0.00  0.00    -0.228 NA
ATOM      9  C   UNL A   1     -24.269   2.429  26.273  0.00  0.00    +0.100 A 
ATOM     10  C   UNL A   1     -24.123   3.237  27.403  0.00  0.00    +0.021 A 
ATOM     11  C   UNL A   1     -24.770   2.959  28.546  0.00  0.00    +0.001 A 
ENDROOT
BRANCH   3  12
ATOM     12  C   UNL A   1     -27.853  -0.105  30.965  0.00  0.00    -0.013 A 
ATOM     13  C   UNL A   1     -29.058   0.717  31.195  0.00  0.00    -0.004 A 
ATOM     14  C   UNL A   1     -29.743   0.324  32.162  0.00  0.00    -0.000 A 
ATOM     15  C   UNL A   1     -29.386  -0.793  33.045  0.00  0.00    -0.000 A 
ATOM     16  C   UNL A   1     -28.262  -1.488  32.735  0.00  0.00    -0.000 A 
ATOM     17  C   UNL A   1     -27.488  -1.187  31.660  0.00  0.00    -0.004 A 
ENDBRANCH   3  12
BRANCH   5  18
ATOM     18  C   UNL A   1     -26.193   2.211  31.036  0.00  0.00    -0.018 A 
ATOM     19  C   UNL A   1     -25.587   2.044  31.870  0.00  0.00    -0.004 A 
ATOM     20  C   UNL A   1     -25.511   2.940  33.098  0.00  0.00    -0.003 A 
ATOM     21  C   UNL A   1     -27.029   3.456  31.024  0.00  0.00    -0.004 A 
ATOM     22  C   UNL A   1     -27.017   4.362  31.999  0.00  0.00    -0.003 A 
ATOM     23  C   UNL A   1     -26.204   4.063  33.112  0.00  0.00    -0.005 A 
BRANCH  23  24
ATOM     24  C   UNL A   1     -26.128   4.982  34.291  0.00  0.00    +0.115 C 
BRANCH  24  25
ATOM     25  N   UNL A   1     -25.297   5.739  34.318  0.00  0.00    -0.209 NA
BRANCH  25  26
ATOM     26  C   UNL A   1     -24.420   5.927  33.296  0.00  0.00    +0.140 C 
ATOM     27  C   UNL A   1     -24.470   6.140  32.233  0.00  0.00    +0.025 C 
BRANCH  26  28
ATOM     28  C   UNL A   1     -22.924   6.208  33.889  0.00  0.00    +0.334 C 
ATOM     29  F   UNL A   1     -22.018   5.649  33.243  0.00  0.00    -0.197 F 
ATOM     30  F   UNL A   1     -22.692   7.609  33.887  0.00  0.00    -0.197 F 
ENDBRANCH  26  28
ENDBRANCH  25  26
ENDBRANCH  24  25
ENDBRANCH  23  24
ENDBRANCH   5  18
TORSDOF 6
