MODEL 2087
MODEL 1
REMARK VINA RESULT:    -8.552      0.000      0.000
REMARK INTER + INTRA:         -13.693
REMARK INTER:                 -12.552
REMARK INTRA:                  -1.141
REMARK UNBOUND:                -1.141
REMARK  Name = No_2087-gen_results/8p0m/2024-11-26-14-13-15/
REMARK  8 active torsions:
REMARK  status: ('A' for Active; 'I' for Inactive)
REMARK    1  A    between atoms: C_2  and  O_7
REMARK    2  A    between atoms: C_4  and  C_9
REMARK    3  A    between atoms: O_7  and  C_8
REMARK    4  A    between atoms: C_11  and  C_12
REMARK    5  A    between atoms: C_15  and  C_22
REMARK    6  A    between atoms: C_18  and  C_26
REMARK    7  A    between atoms: C_26  and  C_27
REMARK    8  A    between atoms: C_28  and  C_29
REMARK                            x       y       z     vdW  Elec       q    Type
REMARK                         _______ _______ _______ _____ _____    ______ ____
ROOT
ATOM      1  C   UNL A   1     -25.716  -0.219  25.346  0.00  0.00    +0.145 A 
ATOM      2  C   UNL A   1     -24.848   0.755  25.017  0.00  0.00    +0.041 A 
ATOM      3  C   UNL A   1     -23.912   1.199  26.016  0.00  0.00    +0.074 A 
ATOM      4  C   UNL A   1     -23.986   0.575  27.293  0.00  0.00    +0.000 A 
ATOM      5  C   UNL A   1     -25.619  -0.753  26.691  0.00  0.00    +0.034 A 
ATOM      6  C   UNL A   1     -24.820  -0.367  27.597  0.00  0.00    -0.015 A 
ENDROOT
BRANCH   3   7
ATOM      7  C   UNL A   1     -22.944   2.276  25.714  0.00  0.00    +0.419 C 
ATOM      8  F   UNL A   1     -22.398   2.232  24.640  0.00  0.00    -0.166 F 
ATOM      9  F   UNL A   1     -21.989   2.239  26.717  0.00  0.00    -0.166 F 
ATOM     10  F   UNL A   1     -23.689   3.446  25.842  0.00  0.00    -0.166 F 
ENDBRANCH   3   7
BRANCH   1  11
ATOM     11  O   UNL A   1     -26.524  -0.510  24.432  0.00  0.00    -0.454 OA
BRANCH  11  13
ATOM     12  C   UNL A   1     -27.452   1.323  24.033  0.00  0.00    +0.037 A 
ATOM     13  C   UNL A   1     -27.679   0.294  24.044  0.00  0.00    +0.145 A 
ATOM     14  C   UNL A   1     -28.520   2.228  23.580  0.00  0.00    +0.003 A 
ATOM     15  C   UNL A   1     -29.829   1.729  23.314  0.00  0.00    +0.000 A 
ATOM     16  C   UNL A   1     -28.948  -0.465  23.875  0.00  0.00    +0.037 A 
ATOM     17  C   UNL A   1     -29.961   0.340  23.445  0.00  0.00    +0.003 A 
BRANCH  15  18
ATOM     18  C   UNL A   1     -30.916   2.569  22.879  0.00  0.00    -0.000 A 
ATOM     19  C   UNL A   1     -31.299   2.685  21.646  0.00  0.00    -0.004 A 
ATOM     20  C   UNL A   1     -32.613   2.746  21.270  0.00  0.00    -0.022 A 
ATOM     21  C   UNL A   1     -31.637   3.389  23.905  0.00  0.00    -0.000 A 
ATOM     22  C   UNL A   1     -33.034   3.613  23.572  0.00  0.00    -0.000 A 
ATOM     23  C   UNL A   1     -33.547   3.280  22.285  0.00  0.00    -0.004 A 
BRANCH  20  24
ATOM     24  C   UNL A   1     -33.081   2.537  19.977  0.00  0.00    +0.026 C 
ATOM     25  C   UNL A   1     -33.339   3.905  19.338  0.00  0.00    +0.005 C 
ENDBRANCH  20  24
ENDBRANCH  15  18
ENDBRANCH  11  13
ENDBRANCH   1  11
BRANCH   6  26
ATOM     26  C   UNL A   1     -24.822  -1.026  28.911  0.00  0.00    +0.052 C 
BRANCH  26  27
ATOM     27  C   UNL A   1     -23.811  -1.862  29.159  0.00  0.00    -0.020 C 
ATOM     28  C   UNL A   1     -24.093  -3.028  29.640  0.00  0.00    +0.041 C 
BRANCH  28  29
ATOM     29  C   UNL A   1     -24.408  -4.013  28.899  0.00  0.00    +0.341 C 
ATOM     30  F   UNL A   1     -25.705  -4.377  28.883  0.00  0.00    -0.193 F 
ATOM     31  F   UNL A   1     -23.712  -4.617  28.073  0.00  0.00    -0.193 F 
ENDBRANCH  28  29
ENDBRANCH  26  27
ENDBRANCH   6  26
TORSDOF 8
ENDMDL
ENDMDL
