REMARK  Name = No_2087-gen_results/8p0m/2024-11-26-14-13-15/
REMARK  8 active torsions:
REMARK  status: ('A' for Active; 'I' for Inactive)
REMARK    1  A    between atoms: C_2  and  O_7
REMARK    2  A    between atoms: C_4  and  C_9
REMARK    3  A    between atoms: O_7  and  C_8
REMARK    4  A    between atoms: C_11  and  C_12
REMARK    5  A    between atoms: C_15  and  C_22
REMARK    6  A    between atoms: C_18  and  C_26
REMARK    7  A    between atoms: C_26  and  C_27
REMARK    8  A    between atoms: C_28  and  C_29
REMARK                            x       y       z     vdW  Elec       q    Type
REMARK                         _______ _______ _______ _____ _____    ______ ____
ROOT
ATOM      1  C   UNL A   1     -30.755  -1.391  30.294  0.00  0.00    +0.145 A 
ATOM      2  C   UNL A   1     -31.989  -0.861  30.380  0.00  0.00    +0.041 A 
ATOM      3  C   UNL A   1     -33.035  -1.661  30.962  0.00  0.00    +0.074 A 
ATOM      4  C   UNL A   1     -32.682  -2.970  31.394  0.00  0.00    +0.000 A 
ATOM      5  C   UNL A   1     -30.584  -2.733  30.817  0.00  0.00    +0.034 A 
ATOM      6  C   UNL A   1     -31.490  -3.467  31.314  0.00  0.00    -0.015 A 
ENDROOT
BRANCH   3   7
ATOM      7  C   UNL A   1     -34.413  -1.134  31.069  0.00  0.00    +0.419 C 
ATOM      8  F   UNL A   1     -34.530   0.049  31.267  0.00  0.00    -0.166 F 
ATOM      9  F   UNL A   1     -35.023  -1.835  32.096  0.00  0.00    -0.166 F 
ATOM     10  F   UNL A   1     -35.007  -1.493  29.861  0.00  0.00    -0.166 F 
ENDBRANCH   3   7
BRANCH   1  11
ATOM     11  O   UNL A   1     -29.919  -0.644  29.733  0.00  0.00    -0.454 OA
BRANCH  11  13
ATOM     12  C   UNL A   1     -28.016  -0.814  28.878  0.00  0.00    +0.037 A 
ATOM     13  C   UNL A   1     -28.469  -0.785  29.829  0.00  0.00    +0.145 A 
ATOM     14  C   UNL A   1     -26.546  -0.876  28.850  0.00  0.00    +0.003 A 
ATOM     15  C   UNL A   1     -25.804  -1.032  30.057  0.00  0.00    +0.000 A 
ATOM     16  C   UNL A   1     -27.944  -0.987  31.207  0.00  0.00    +0.037 A 
ATOM     17  C   UNL A   1     -26.582  -1.039  31.223  0.00  0.00    +0.003 A 
BRANCH  15  18
ATOM     18  C   UNL A   1     -24.365  -1.110  30.090  0.00  0.00    -0.000 A 
ATOM     19  C   UNL A   1     -23.607  -1.030  29.041  0.00  0.00    -0.004 A 
ATOM     20  C   UNL A   1     -22.427  -0.338  29.019  0.00  0.00    -0.022 A 
ATOM     21  C   UNL A   1     -23.694  -1.329  31.411  0.00  0.00    -0.000 A 
ATOM     22  C   UNL A   1     -22.375  -0.721  31.484  0.00  0.00    -0.000 A 
ATOM     23  C   UNL A   1     -21.738  -0.201  30.320  0.00  0.00    -0.004 A 
BRANCH  20  24
ATOM     24  C   UNL A   1     -21.757   0.054  27.865  0.00  0.00    +0.026 C 
ATOM     25  C   UNL A   1     -20.592   0.960  28.275  0.00  0.00    +0.005 C 
ENDBRANCH  20  24
ENDBRANCH  15  18
ENDBRANCH  11  13
ENDBRANCH   1  11
BRANCH   6  26
ATOM     26  C   UNL A   1     -31.156  -4.803  31.829  0.00  0.00    +0.052 C 
BRANCH  26  27
ATOM     27  C   UNL A   1     -30.321  -4.848  32.870  0.00  0.00    -0.020 C 
ATOM     28  C   UNL A   1     -29.418  -3.928  32.962  0.00  0.00    +0.041 C 
BRANCH  28  29
ATOM     29  C   UNL A   1     -29.647  -2.799  33.503  0.00  0.00    +0.341 C 
ATOM     30  F   UNL A   1     -28.582  -2.012  33.751  0.00  0.00    -0.193 F 
ATOM     31  F   UNL A   1     -30.734  -2.249  33.721  0.00  0.00    -0.193 F 
ENDBRANCH  28  29
ENDBRANCH  26  27
ENDBRANCH   6  26
TORSDOF 8
