MODEL 2088
MODEL 1
REMARK VINA RESULT:    -5.551      0.000      0.000
REMARK INTER + INTRA:          -6.519
REMARK INTER:                  -6.200
REMARK INTRA:                  -0.320
REMARK UNBOUND:                -0.320
REMARK  Name = No_2088-gen_results/8p0m/2024-11-26-14-13-15/
REMARK  2 active torsions:
REMARK  status: ('A' for Active; 'I' for Inactive)
REMARK    1  A    between atoms: C_3  and  C_7
REMARK    2  A    between atoms: C_7  and  C_8
REMARK                            x       y       z     vdW  Elec       q    Type
REMARK                         _______ _______ _______ _____ _____    ______ ____
ROOT
ATOM      1  C   UNL A   1     -24.518  -4.815  28.815  0.00  0.00    -0.000 A 
ATOM      2  C   UNL A   1     -23.891  -3.782  28.868  0.00  0.00    -0.004 A 
ATOM      3  C   UNL A   1     -24.370  -2.618  29.468  0.00  0.00    -0.018 A 
ATOM      4  C   UNL A   1     -25.714  -2.606  30.012  0.00  0.00    -0.004 A 
ATOM      5  C   UNL A   1     -26.389  -3.843  29.906  0.00  0.00    -0.000 A 
ATOM      6  C   UNL A   1     -25.858  -4.885  29.318  0.00  0.00    -0.000 A 
ENDROOT
BRANCH   3   7
ATOM      7  C   UNL A   1     -23.653  -1.321  29.580  0.00  0.00    +0.044 C 
ATOM      8  C   UNL A   1     -23.151  -0.856  30.885  0.00  0.00    +0.009 C 
BRANCH   7   9
ATOM      9  C   UNL A   1     -23.342  -0.612  28.525  0.00  0.00    -0.027 C 
ATOM     10  C   UNL A   1     -22.708   0.629  28.659  0.00  0.00    -0.030 C 
ATOM     11  C   UNL A   1     -22.386   1.467  27.576  0.00  0.00    +0.030 C 
ENDBRANCH   7   9
ENDBRANCH   3   7
TORSDOF 2
ENDMDL
ENDMDL
