MODEL 2089
MODEL 1
REMARK VINA RESULT:    -5.472      0.000      0.000
REMARK INTER + INTRA:          -5.842
REMARK INTER:                  -5.792
REMARK INTRA:                  -0.050
REMARK UNBOUND:                -0.050
REMARK  Name = No_2089-gen_results/8p0m/2024-11-26-14-13-15/
REMARK  1 active torsions:
REMARK  status: ('A' for Active; 'I' for Inactive)
REMARK    1  A    between atoms: C_2  and  C_7
REMARK                            x       y       z     vdW  Elec       q    Type
REMARK                         _______ _______ _______ _____ _____    ______ ____
ROOT
ATOM      1  C   UNL A   1     -23.842  -3.438  28.741  0.00  0.00    +0.004 A 
ATOM      2  C   UNL A   1     -24.564  -2.786  29.146  0.00  0.00    +0.054 A 
ATOM      3  C   UNL A   1     -24.192  -4.867  28.703  0.00  0.00    +0.000 A 
ATOM      4  C   UNL A   1     -25.246  -5.267  29.184  0.00  0.00    +0.000 A 
ATOM      5  C   UNL A   1     -25.926  -3.014  29.664  0.00  0.00    +0.004 A 
ATOM      6  C   UNL A   1     -26.232  -4.340  29.691  0.00  0.00    +0.000 A 
ENDROOT
BRANCH   2   7
ATOM      7  C   UNL A   1     -24.084  -1.272  29.133  0.00  0.00    +0.249 C 
ATOM      8  O   UNL A   1     -24.176  -0.734  28.163  0.00  0.00    -0.270 OA
ATOM      9  N   UNL A   1     -23.617  -0.702  30.335  0.00  0.00    -0.273 N 
ATOM     10  C   UNL A   1     -23.481  -1.252  31.588  0.00  0.00    +0.115 C 
ATOM     11  C   UNL A   1     -23.222   0.717  30.185  0.00  0.00    +0.115 C 
ENDBRANCH   2   7
TORSDOF 1
ENDMDL
ENDMDL
