REMARK  Name = No_2089-gen_results/8p0m/2024-11-26-14-13-15/
REMARK  1 active torsions:
REMARK  status: ('A' for Active; 'I' for Inactive)
REMARK    1  A    between atoms: C_2  and  C_7
REMARK                            x       y       z     vdW  Elec       q    Type
REMARK                         _______ _______ _______ _____ _____    ______ ____
ROOT
ATOM      1  C   UNL A   1     -28.016  -0.814  28.878  0.00  0.00    +0.004 A 
ATOM      2  C   UNL A   1     -28.469  -0.785  29.829  0.00  0.00    +0.054 A 
ATOM      3  C   UNL A   1     -26.546  -0.876  28.850  0.00  0.00    +0.000 A 
ATOM      4  C   UNL A   1     -25.897  -0.827  29.889  0.00  0.00    +0.000 A 
ATOM      5  C   UNL A   1     -27.913  -0.839  31.194  0.00  0.00    +0.004 A 
ATOM      6  C   UNL A   1     -26.552  -0.832  31.177  0.00  0.00    +0.000 A 
ENDROOT
BRANCH   2   7
ATOM      7  C   UNL A   1     -30.054  -0.725  29.740  0.00  0.00    +0.249 C 
ATOM      8  O   UNL A   1     -30.479  -0.315  28.797  0.00  0.00    -0.270 OA
ATOM      9  N   UNL A   1     -30.809  -1.222  30.822  0.00  0.00    -0.273 N 
ATOM     10  C   UNL A   1     -30.402  -1.768  32.016  0.00  0.00    +0.115 C 
ATOM     11  C   UNL A   1     -32.270  -1.123  30.599  0.00  0.00    +0.115 C 
ENDBRANCH   2   7
TORSDOF 1
