MODEL 208
MODEL 1
REMARK VINA RESULT:    -4.923      0.000      0.000
REMARK INTER + INTRA:          -5.954
REMARK INTER:                  -5.786
REMARK INTRA:                  -0.168
REMARK UNBOUND:                -0.168
REMARK  Name = No_208-gen_results/8p0m/2024-11-26-14-13-15/
REMARK  3 active torsions:
REMARK  status: ('A' for Active; 'I' for Inactive)
REMARK    1  A    between atoms: C_2  and  C_7
REMARK    2  A    between atoms: C_7  and  N_8
REMARK    3  A    between atoms: N_8  and  C_9
REMARK                            x       y       z     vdW  Elec       q    Type
REMARK                         _______ _______ _______ _____ _____    ______ ____
ROOT
ATOM      1  C   UNL A   1     -23.860  -3.257  28.815  0.00  0.00    -0.003 A 
ATOM      2  C   UNL A   1     -24.600  -2.778  29.393  0.00  0.00    -0.001 A 
ATOM      3  C   UNL A   1     -24.042  -4.698  28.576  0.00  0.00    -0.000 A 
ATOM      4  C   UNL A   1     -25.235  -5.357  28.992  0.00  0.00    -0.000 A 
ATOM      5  C   UNL A   1     -25.937  -3.209  29.886  0.00  0.00    -0.003 A 
ATOM      6  C   UNL A   1     -26.138  -4.543  29.691  0.00  0.00    -0.000 A 
ENDROOT
BRANCH   2   7
ATOM      7  C   UNL A   1     -24.449  -1.213  29.658  0.00  0.00    +0.139 C 
BRANCH   7   8
ATOM      8  N   UNL A   1     -23.438  -0.787  30.335  0.00  0.00    -0.232 NA
BRANCH   8   9
ATOM      9  C   UNL A   1     -22.553  -0.251  30.185  0.00  0.00    +0.081 C 
ATOM     10  C   UNL A   1     -21.670  -0.207  29.005  0.00  0.00    +0.019 C 
ENDBRANCH   8   9
ENDBRANCH   7   8
ENDBRANCH   2   7
TORSDOF 3
ENDMDL
ENDMDL
