REMARK  Name = No_209-gen_results/8p0m/2024-11-26-14-13-15/
REMARK  6 active torsions:
REMARK  status: ('A' for Active; 'I' for Inactive)
REMARK    1  A    between atoms: C_2  and  C_7
REMARK    2  A    between atoms: C_3  and  C_17
REMARK    3  A    between atoms: N_9  and  C_10
REMARK    4  A    between atoms: N_9  and  C_11
REMARK    5  A    between atoms: C_10  and  C_25
REMARK    6  A    between atoms: C_17  and  C_18
REMARK                            x       y       z     vdW  Elec       q    Type
REMARK                         _______ _______ _______ _____ _____    ______ ____
ROOT
ATOM      1  C   UNL A   1     -30.074  -0.836  29.861  0.00  0.00    +0.253 C 
ATOM      2  O   UNL A   1     -30.689  -1.655  30.223  0.00  0.00    -0.270 OA
ATOM      3  N   UNL A   1     -30.614   0.285  29.223  0.00  0.00    -0.251 N 
ENDROOT
BRANCH   3   4
ATOM      4  C   UNL A   1     -29.843   1.426  28.750  0.00  0.00    +0.054 A 
ATOM      5  C   UNL A   1     -30.070   2.592  29.573  0.00  0.00    +0.015 A 
ATOM      6  C   UNL A   1     -29.322   3.564  29.249  0.00  0.00    -0.003 A 
ATOM      7  C   UNL A   1     -28.350   3.629  28.179  0.00  0.00    -0.022 A 
ATOM      8  C   UNL A   1     -28.234   2.480  27.445  0.00  0.00    -0.003 A 
ATOM      9  C   UNL A   1     -28.944   1.338  27.782  0.00  0.00    +0.015 A 
ATOM     10  C   UNL A   1     -27.554   4.854  27.877  0.00  0.00    +0.031 C 
ENDBRANCH   3   4
BRANCH   1  12
ATOM     11  C   UNL A   1     -28.016  -0.814  28.878  0.00  0.00    +0.001 A 
ATOM     12  C   UNL A   1     -28.469  -0.785  29.829  0.00  0.00    +0.054 A 
ATOM     13  C   UNL A   1     -26.504  -0.778  28.877  0.00  0.00    -0.018 A 
ATOM     14  C   UNL A   1     -25.810  -0.853  30.103  0.00  0.00    -0.004 A 
ATOM     15  C   UNL A   1     -27.991  -0.892  31.226  0.00  0.00    +0.004 A 
ATOM     16  C   UNL A   1     -26.604  -0.868  31.265  0.00  0.00    -0.000 A 
BRANCH  13  17
ATOM     17  C   UNL A   1     -25.659  -0.704  27.676  0.00  0.00    +0.053 C 
BRANCH  17  18
ATOM     18  C   UNL A   1     -25.152   0.612  27.342  0.00  0.00    -0.018 A 
ATOM     19  C   UNL A   1     -24.991   0.984  26.093  0.00  0.00    -0.004 A 
ATOM     20  C   UNL A   1     -24.328   2.227  25.775  0.00  0.00    -0.000 A 
ATOM     21  C   UNL A   1     -23.840   2.985  26.889  0.00  0.00    -0.000 A 
ATOM     22  C   UNL A   1     -24.463   1.575  28.218  0.00  0.00    -0.004 A 
ATOM     23  C   UNL A   1     -23.916   2.685  28.042  0.00  0.00    -0.000 A 
ENDBRANCH  17  18
ENDBRANCH  13  17
ENDBRANCH   1  12
BRANCH   3  24
ATOM     24  C   UNL A   1     -32.020   0.338  29.021  0.00  0.00    +0.125 C 
BRANCH  24  25
ATOM     25  C   UNL A   1     -32.524   1.088  28.302  0.00  0.00    -0.002 A 
ATOM     26  C   UNL A   1     -31.982   1.978  27.432  0.00  0.00    -0.003 A 
ATOM     27  C   UNL A   1     -32.776   2.836  26.493  0.00  0.00    -0.000 A 
ATOM     28  C   UNL A   1     -33.844   2.570  26.385  0.00  0.00    -0.000 A 
ATOM     29  C   UNL A   1     -34.610   1.615  27.120  0.00  0.00    -0.000 A 
ATOM     30  C   UNL A   1     -33.967   0.880  28.068  0.00  0.00    -0.003 A 
ENDBRANCH  24  25
ENDBRANCH   3  24
TORSDOF 6
