MODEL 2090
MODEL 1
REMARK VINA RESULT:    -6.319      0.000      0.000
REMARK INTER + INTRA:          -6.319
REMARK INTER:                  -6.319
REMARK INTRA:                   0.000
REMARK UNBOUND:                 0.000
REMARK  Name = No_2090-gen_results/8p0m/2024-11-26-14-13-15/
REMARK  0 active torsions:
REMARK  status: ('A' for Active; 'I' for Inactive)
REMARK                            x       y       z     vdW  Elec       q    Type
REMARK                         _______ _______ _______ _____ _____    ______ ____
ROOT
ATOM      1  C   UNL A   1     -23.960  -2.300  29.446  0.00  0.00    +0.272 C 
ATOM      2  C   UNL A   1     -23.986  -1.374  28.669  0.00  0.00    +0.031 C 
ATOM      3  C   UNL A   1     -23.000  -0.410  28.546  0.00  0.00    +0.107 C 
ATOM      4  C   UNL A   1     -23.041   0.750  27.687  0.00  0.00    +0.041 C 
ATOM      5  C   UNL A   1     -24.182   0.949  26.875  0.00  0.00    -0.025 A 
ATOM      6  C   UNL A   1     -25.229  -0.005  26.951  0.00  0.00    -0.022 A 
ATOM      7  C   UNL A   1     -25.110  -1.051  27.814  0.00  0.00    +0.054 C 
ATOM      8  F   UNL A   1     -24.987  -2.641  30.092  0.00  0.00    -0.173 F 
ATOM      9  F   UNL A   1     -23.551  -3.478  28.779  0.00  0.00    -0.173 F 
ATOM     10  C   UNL A   1     -24.273   2.069  25.947  0.00  0.00    -0.004 A 
ATOM     11  C   UNL A   1     -25.676   2.576  25.845  0.00  0.00    -0.000 A 
ATOM     12  C   UNL A   1     -26.773   1.768  25.813  0.00  0.00    -0.000 A 
ATOM     13  C   UNL A   1     -26.616   0.385  26.489  0.00  0.00    -0.004 A 
ATOM     14  C   UNL A   1     -21.929   1.647  27.589  0.00  0.00    +0.006 C 
ATOM     15 CL   UNL A   1     -21.627  -0.474  29.624  0.00  0.00    -0.110 Cl
ENDROOT
TORSDOF 0
ENDMDL
ENDMDL
