REMARK  Name = No_2090-gen_results/8p0m/2024-11-26-14-13-15/
REMARK  0 active torsions:
REMARK  status: ('A' for Active; 'I' for Inactive)
REMARK                            x       y       z     vdW  Elec       q    Type
REMARK                         _______ _______ _______ _____ _____    ______ ____
ROOT
ATOM      1  C   UNL A   1     -28.016  -0.814  28.878  0.00  0.00    +0.272 C 
ATOM      2  C   UNL A   1     -27.064  -0.119  28.608  0.00  0.00    +0.031 C 
ATOM      3  C   UNL A   1     -26.972   0.714  27.506  0.00  0.00    +0.107 C 
ATOM      4  C   UNL A   1     -25.820   1.491  27.116  0.00  0.00    +0.041 C 
ATOM      5  C   UNL A   1     -24.656   1.424  27.918  0.00  0.00    -0.025 A 
ATOM      6  C   UNL A   1     -24.685   0.590  29.066  0.00  0.00    -0.022 A 
ATOM      7  C   UNL A   1     -25.810  -0.127  29.334  0.00  0.00    +0.054 C 
ATOM      8  F   UNL A   1     -27.868  -1.997  29.285  0.00  0.00    -0.173 F 
ATOM      9  F   UNL A   1     -28.803  -0.190  29.873  0.00  0.00    -0.173 F 
ATOM     10  C   UNL A   1     -23.473   2.218  27.615  0.00  0.00    -0.004 A 
ATOM     11  C   UNL A   1     -22.220   1.478  27.961  0.00  0.00    -0.000 A 
ATOM     12  C   UNL A   1     -22.076   0.714  29.080  0.00  0.00    -0.000 A 
ATOM     13  C   UNL A   1     -23.379   0.123  29.669  0.00  0.00    -0.004 A 
ATOM     14  C   UNL A   1     -25.861   2.376  25.990  0.00  0.00    +0.006 C 
ATOM     15 CL   UNL A   1     -28.293   0.739  26.363  0.00  0.00    -0.110 Cl
ENDROOT
TORSDOF 0
