MODEL 2091
MODEL 1
REMARK VINA RESULT:    -5.323      0.000      0.000
REMARK INTER + INTRA:          -5.776
REMARK INTER:                  -5.634
REMARK INTRA:                  -0.142
REMARK UNBOUND:                -0.142
REMARK  Name = No_2091-gen_results/8p0m/2024-11-26-14-13-15/
REMARK  1 active torsions:
REMARK  status: ('A' for Active; 'I' for Inactive)
REMARK    1  A    between atoms: C_4  and  C_6
REMARK                            x       y       z     vdW  Elec       q    Type
REMARK                         _______ _______ _______ _____ _____    ______ ____
ROOT
ATOM      1  C   UNL A   1     -26.609  -4.028  29.827  0.00  0.00    -0.000 A 
ATOM      2  C   UNL A   1     -26.100  -4.909  29.552  0.00  0.00    -0.000 A 
ATOM      3  C   UNL A   1     -25.805  -2.751  29.712  0.00  0.00    +0.004 A 
ATOM      4  C   UNL A   1     -24.522  -2.793  29.128  0.00  0.00    +0.071 A 
ATOM      5  C   UNL A   1     -24.809  -5.218  28.898  0.00  0.00    -0.000 A 
ATOM      6  C   UNL A   1     -24.036  -4.041  28.746  0.00  0.00    +0.004 A 
ENDROOT
BRANCH   4   7
ATOM      7  C   UNL A   1     -23.720  -1.638  28.979  0.00  0.00    +0.419 C 
ATOM      8  F   UNL A   1     -22.587  -1.845  28.782  0.00  0.00    -0.166 F 
ATOM      9  F   UNL A   1     -24.175  -0.814  27.933  0.00  0.00    -0.166 F 
ATOM     10  F   UNL A   1     -23.835  -0.820  30.085  0.00  0.00    -0.166 F 
ENDBRANCH   4   7
TORSDOF 1
ENDMDL
ENDMDL
