REMARK  Name = No_2091-gen_results/8p0m/2024-11-26-14-13-15/
REMARK  1 active torsions:
REMARK  status: ('A' for Active; 'I' for Inactive)
REMARK    1  A    between atoms: C_4  and  C_6
REMARK                            x       y       z     vdW  Elec       q    Type
REMARK                         _______ _______ _______ _____ _____    ______ ____
ROOT
ATOM      1  C   UNL A   1     -28.016  -0.814  28.878  0.00  0.00    -0.000 A 
ATOM      2  C   UNL A   1     -28.469  -0.785  29.829  0.00  0.00    -0.000 A 
ATOM      3  C   UNL A   1     -26.504  -0.778  28.877  0.00  0.00    +0.004 A 
ATOM      4  C   UNL A   1     -25.810  -0.853  30.103  0.00  0.00    +0.071 A 
ATOM      5  C   UNL A   1     -27.991  -0.892  31.226  0.00  0.00    -0.000 A 
ATOM      6  C   UNL A   1     -26.575  -0.890  31.266  0.00  0.00    +0.004 A 
ENDROOT
BRANCH   4   7
ATOM      7  C   UNL A   1     -24.398  -0.836  30.177  0.00  0.00    +0.419 C 
ATOM      8  F   UNL A   1     -23.940  -1.477  31.040  0.00  0.00    -0.166 F 
ATOM      9  F   UNL A   1     -23.804  -1.274  28.980  0.00  0.00    -0.166 F 
ATOM     10  F   UNL A   1     -23.934   0.459  30.293  0.00  0.00    -0.166 F 
ENDBRANCH   4   7
TORSDOF 1
