REMARK  Name = No_2092-gen_results/8p0m/2024-11-26-14-13-15/
REMARK  9 active torsions:
REMARK  status: ('A' for Active; 'I' for Inactive)
REMARK    1  A    between atoms: C_2  and  C_27
REMARK    2  A    between atoms: C_3  and  C_7
REMARK    3  A    between atoms: C_7  and  C_8
REMARK    4  A    between atoms: C_10  and  C_11
REMARK    5  A    between atoms: C_11  and  C_15
REMARK    6  A    between atoms: C_15  and  C_16
REMARK    7  A    between atoms: C_16  and  C_17
REMARK    8  A    between atoms: C_17  and  C_18
REMARK    9  A    between atoms: C_22  and  C_24
REMARK                            x       y       z     vdW  Elec       q    Type
REMARK                         _______ _______ _______ _____ _____    ______ ____
ROOT
ATOM      1  C   UNL A   1     -26.466   1.408  26.565  0.00  0.00    -0.018 A 
ATOM      2  C   UNL A   1     -25.242   1.067  26.070  0.00  0.00    -0.008 A 
ATOM      3  C   UNL A   1     -24.185   2.032  25.976  0.00  0.00    -0.022 A 
ATOM      4  C   UNL A   1     -24.648   3.401  26.399  0.00  0.00    -0.004 A 
ATOM      5  C   UNL A   1     -25.889   3.715  26.818  0.00  0.00    -0.001 A 
ATOM      6  C   UNL A   1     -26.821   2.704  26.944  0.00  0.00    -0.004 A 
ENDROOT
BRANCH   1   7
ATOM      7  C   UNL A   1     -27.460   0.380  26.709  0.00  0.00    +0.053 C 
BRANCH   7  10
ATOM      8  C   UNL A   1     -28.016  -0.814  28.878  0.00  0.00    -0.002 A 
ATOM      9  C   UNL A   1     -28.469  -0.785  29.829  0.00  0.00    +0.021 A 
ATOM     10  C   UNL A   1     -28.196   0.348  28.055  0.00  0.00    -0.018 A 
ATOM     11  C   UNL A   1     -29.019   1.350  28.378  0.00  0.00    -0.004 A 
ATOM     12  C   UNL A   1     -29.411   0.180  30.378  0.00  0.00    +0.002 A 
ATOM     13  C   UNL A   1     -29.606   1.250  29.619  0.00  0.00    -0.000 A 
BRANCH   9  14
ATOM     14  C   UNL A   1     -28.284  -2.020  30.869  0.00  0.00    +0.122 C 
ATOM     15  N   UNL A   1     -28.727  -2.065  31.935  0.00  0.00    -0.146 NA
ENDBRANCH   9  14
ENDBRANCH   7  10
ENDBRANCH   1   7
BRANCH   3  16
ATOM     16  C   UNL A   1     -22.830   1.732  25.838  0.00  0.00    +0.026 C 
BRANCH  16  17
ATOM     17  C   UNL A   1     -21.808   2.359  26.630  0.00  0.00    +0.005 C 
BRANCH  17  18
ATOM     18  C   UNL A   1     -20.771   1.448  27.076  0.00  0.00    +0.005 C 
BRANCH  18  19
ATOM     19  C   UNL A   1     -21.063   0.220  27.618  0.00  0.00    +0.026 C 
BRANCH  19  20
ATOM     20  C   UNL A   1     -22.237   0.125  28.555  0.00  0.00    -0.022 A 
ATOM     21  C   UNL A   1     -22.629  -1.083  29.092  0.00  0.00    -0.004 A 
ATOM     22  C   UNL A   1     -23.837  -1.174  29.852  0.00  0.00    -0.000 A 
ATOM     23  C   UNL A   1     -24.428  -0.289  30.058  0.00  0.00    +0.007 A 
ATOM     24  C   UNL A   1     -24.169   1.111  29.684  0.00  0.00    +0.080 A 
ATOM     25  C   UNL A   1     -23.007   1.290  28.886  0.00  0.00    +0.002 A 
BRANCH  24  26
ATOM     26  C   UNL A   1     -24.996   2.276  30.040  0.00  0.00    +0.388 C 
ATOM     27  O   UNL A   1     -26.147   2.013  30.460  0.00  0.00    -0.241 OA
ATOM     28  O   UNL A   1     -24.479   3.408  30.328  0.00  0.00    -0.241 OA
ENDBRANCH  24  26
ENDBRANCH  19  20
ENDBRANCH  18  19
ENDBRANCH  17  18
ENDBRANCH  16  17
ENDBRANCH   3  16
TORSDOF 9
