MODEL 2092
MODEL 1
REMARK VINA RESULT:    -5.886      0.000      0.000
REMARK INTER + INTRA:         -12.997
REMARK INTER:                  -8.984
REMARK INTRA:                  -4.013
REMARK UNBOUND:                -4.013
REMARK  Name = No_2092-gen_results/8p0m/2024-11-26-14-13-15/
REMARK  9 active torsions:
REMARK  status: ('A' for Active; 'I' for Inactive)
REMARK    1  A    between atoms: C_2  and  C_27
REMARK    2  A    between atoms: C_3  and  C_7
REMARK    3  A    between atoms: C_7  and  C_8
REMARK    4  A    between atoms: C_10  and  C_11
REMARK    5  A    between atoms: C_11  and  C_15
REMARK    6  A    between atoms: C_15  and  C_16
REMARK    7  A    between atoms: C_16  and  C_17
REMARK    8  A    between atoms: C_17  and  C_18
REMARK    9  A    between atoms: C_22  and  C_24
REMARK                            x       y       z     vdW  Elec       q    Type
REMARK                         _______ _______ _______ _____ _____    ______ ____
ROOT
ATOM      1  C   UNL A   1     -29.133 -10.997  10.272  0.00  0.00    -0.018 A 
ATOM      2  C   UNL A   1     -29.057 -11.887  11.303  0.00  0.00    -0.008 A 
ATOM      3  C   UNL A   1     -30.226 -12.273  12.038  0.00  0.00    -0.022 A 
ATOM      4  C   UNL A   1     -31.444 -11.518  11.574  0.00  0.00    -0.004 A 
ATOM      5  C   UNL A   1     -31.468 -10.592  10.596  0.00  0.00    -0.001 A 
ATOM      6  C   UNL A   1     -30.306 -10.339   9.895  0.00  0.00    -0.004 A 
ENDROOT
BRANCH   1   7
ATOM      7  C   UNL A   1     -27.942 -10.710   9.522  0.00  0.00    +0.053 C 
BRANCH   7  10
ATOM      8  C   UNL A   1     -28.144  -9.217   7.480  0.00  0.00    -0.002 A 
ATOM      9  C   UNL A   1     -28.166  -8.243   7.077  0.00  0.00    +0.021 A 
ATOM     10  C   UNL A   1     -27.874  -9.315   8.886  0.00  0.00    -0.018 A 
ATOM     11  C   UNL A   1     -27.504  -8.270   9.632  0.00  0.00    -0.004 A 
ATOM     12  C   UNL A   1     -27.782  -6.979   7.689  0.00  0.00    +0.002 A 
ATOM     13  C   UNL A   1     -27.507  -7.056   8.984  0.00  0.00    -0.000 A 
BRANCH   9  14
ATOM     14  C   UNL A   1     -28.519  -8.006   5.509  0.00  0.00    +0.122 C 
ATOM     15  N   UNL A   1     -28.020  -7.220   4.825  0.00  0.00    -0.146 NA
ENDBRANCH   9  14
ENDBRANCH   7  10
ENDBRANCH   1   7
BRANCH   3  16
ATOM     16  C   UNL A   1     -30.335 -13.408  12.841  0.00  0.00    +0.026 C 
BRANCH  16  17
ATOM     17  C   UNL A   1     -29.823 -14.692  12.450  0.00  0.00    +0.005 C 
BRANCH  17  18
ATOM     18  C   UNL A   1     -30.569 -15.317  11.374  0.00  0.00    +0.005 C 
BRANCH  18  19
ATOM     19  C   UNL A   1     -29.964 -15.737  10.215  0.00  0.00    +0.026 C 
BRANCH  19  20
ATOM     20  C   UNL A   1     -29.718 -14.713   9.139  0.00  0.00    -0.022 A 
ATOM     21  C   UNL A   1     -30.740 -13.925   8.653  0.00  0.00    -0.004 A 
ATOM     22  C   UNL A   1     -30.517 -13.073   7.526  0.00  0.00    -0.000 A 
ATOM     23  C   UNL A   1     -29.534 -12.998   7.076  0.00  0.00    +0.007 A 
ATOM     24  C   UNL A   1     -28.277 -13.653   7.472  0.00  0.00    +0.080 A 
ATOM     25  C   UNL A   1     -28.414 -14.556   8.561  0.00  0.00    +0.002 A 
BRANCH  24  26
ATOM     26  C   UNL A   1     -26.960 -13.468   6.840  0.00  0.00    +0.388 C 
ATOM     27  O   UNL A   1     -26.631 -12.279   6.616  0.00  0.00    -0.241 OA
ATOM     28  O   UNL A   1     -26.045 -14.356   6.912  0.00  0.00    -0.241 OA
ENDBRANCH  24  26
ENDBRANCH  19  20
ENDBRANCH  18  19
ENDBRANCH  17  18
ENDBRANCH  16  17
ENDBRANCH   3  16
TORSDOF 9
ENDMDL
ENDMDL
