MODEL 2093
MODEL 1
REMARK VINA RESULT:    -7.673      0.000      0.000
REMARK INTER + INTRA:          -9.093
REMARK INTER:                  -8.571
REMARK INTRA:                  -0.523
REMARK UNBOUND:                -0.523
REMARK  Name = No_2093-gen_results/8p0m/2024-11-26-14-13-15/
REMARK  2 active torsions:
REMARK  status: ('A' for Active; 'I' for Inactive)
REMARK    1  A    between atoms: C_2  and  C_7
REMARK    2  A    between atoms: C_11  and  C_14
REMARK                            x       y       z     vdW  Elec       q    Type
REMARK                         _______ _______ _______ _____ _____    ______ ____
ROOT
ATOM      1  C   UNL A   1     -23.463  -1.486  28.861  0.00  0.00    -0.000 A 
ATOM      2  C   UNL A   1     -22.551  -1.286  29.278  0.00  0.00    -0.000 A 
ATOM      3  C   UNL A   1     -21.584  -0.153  29.030  0.00  0.00    -0.000 A 
ATOM      4  C   UNL A   1     -21.980   0.829  28.143  0.00  0.00    +0.004 A 
ATOM      5  C   UNL A   1     -23.242   0.732  27.553  0.00  0.00    +0.071 A 
ATOM      6  C   UNL A   1     -24.020  -0.354  27.827  0.00  0.00    +0.004 A 
ENDROOT
BRANCH   1   8
ATOM      7  C   UNL A   1     -25.579  -2.334  29.605  0.00  0.00    +0.011 A 
ATOM      8  C   UNL A   1     -24.479  -2.535  29.146  0.00  0.00    +0.001 A 
ATOM      9  C   UNL A   1     -24.062  -3.820  28.815  0.00  0.00    +0.000 A 
ATOM     10  C   UNL A   1     -24.912  -4.958  29.052  0.00  0.00    +0.001 A 
ATOM     11  C   UNL A   1     -26.158  -4.638  29.608  0.00  0.00    +0.011 A 
ATOM     12  C   UNL A   1     -26.497  -3.407  29.918  0.00  0.00    +0.058 A 
ATOM     13 CL   UNL A   1     -28.001  -3.158  30.683  0.00  0.00    -0.082 Cl
ENDBRANCH   1   8
BRANCH   5  14
ATOM     14  C   UNL A   1     -23.665   1.744  26.595  0.00  0.00    +0.419 C 
ATOM     15  F   UNL A   1     -24.143   2.810  27.028  0.00  0.00    -0.166 F 
ATOM     16  F   UNL A   1     -24.440   1.267  25.555  0.00  0.00    -0.166 F 
ATOM     17  F   UNL A   1     -22.500   2.211  25.879  0.00  0.00    -0.166 F 
ENDBRANCH   5  14
TORSDOF 2
ENDMDL
ENDMDL
