REMARK  Name = No_2093-gen_results/8p0m/2024-11-26-14-13-15/
REMARK  2 active torsions:
REMARK  status: ('A' for Active; 'I' for Inactive)
REMARK    1  A    between atoms: C_2  and  C_7
REMARK    2  A    between atoms: C_11  and  C_14
REMARK                            x       y       z     vdW  Elec       q    Type
REMARK                         _______ _______ _______ _____ _____    ______ ____
ROOT
ATOM      1  C   UNL A   1     -27.106   1.102  27.759  0.00  0.00    -0.000 A 
ATOM      2  C   UNL A   1     -27.858   1.531  27.216  0.00  0.00    -0.000 A 
ATOM      3  C   UNL A   1     -27.843   2.721  26.286  0.00  0.00    -0.000 A 
ATOM      4  C   UNL A   1     -26.622   3.325  26.057  0.00  0.00    +0.004 A 
ATOM      5  C   UNL A   1     -25.485   2.796  26.672  0.00  0.00    +0.071 A 
ATOM      6  C   UNL A   1     -25.622   1.736  27.519  0.00  0.00    +0.004 A 
ENDROOT
BRANCH   1   8
ATOM      7  C   UNL A   1     -28.016  -0.814  28.878  0.00  0.00    +0.011 A 
ATOM      8  C   UNL A   1     -27.064  -0.119  28.608  0.00  0.00    +0.001 A 
ATOM      9  C   UNL A   1     -25.792  -0.430  29.076  0.00  0.00    +0.000 A 
ATOM     10  C   UNL A   1     -25.576  -1.565  29.936  0.00  0.00    +0.001 A 
ATOM     11  C   UNL A   1     -26.735  -2.300  30.217  0.00  0.00    +0.011 A 
ATOM     12  C   UNL A   1     -27.918  -1.954  29.763  0.00  0.00    +0.058 A 
ATOM     13 CL   UNL A   1     -29.268  -2.872  30.259  0.00  0.00    -0.082 Cl
ENDBRANCH   1   8
BRANCH   5  14
ATOM     14  C   UNL A   1     -24.194   3.437  26.464  0.00  0.00    +0.419 C 
ATOM     15  F   UNL A   1     -24.133   4.681  26.512  0.00  0.00    -0.166 F 
ATOM     16  F   UNL A   1     -23.487   2.971  25.372  0.00  0.00    -0.166 F 
ATOM     17  F   UNL A   1     -23.315   3.056  27.545  0.00  0.00    -0.166 F 
ENDBRANCH   5  14
TORSDOF 2
