MODEL 2094
MODEL 1
REMARK VINA RESULT:    -5.183      0.000      0.000
REMARK INTER + INTRA:          -5.695
REMARK INTER:                  -5.486
REMARK INTRA:                  -0.208
REMARK UNBOUND:                -0.208
REMARK  Name = No_2094-gen_results/8p0m/2024-11-26-14-13-15/
REMARK  1 active torsions:
REMARK  status: ('A' for Active; 'I' for Inactive)
REMARK    1  A    between atoms: C_3  and  C_4
REMARK                            x       y       z     vdW  Elec       q    Type
REMARK                         _______ _______ _______ _____ _____    ______ ____
ROOT
ATOM      1  C   UNL A   1     -25.754  -2.622  29.838  0.00  0.00    +0.004 A 
ATOM      2  C   UNL A   1     -26.342  -3.494  29.907  0.00  0.00    -0.000 A 
ATOM      3  C   UNL A   1     -24.466  -2.739  29.269  0.00  0.00    +0.071 A 
ATOM      4  C   UNL A   1     -26.064  -4.888  29.519  0.00  0.00    -0.000 A 
ATOM      5  C   UNL A   1     -24.805  -5.080  28.950  0.00  0.00    -0.000 A 
ATOM      6  C   UNL A   1     -23.990  -4.009  28.766  0.00  0.00    +0.004 A 
ENDROOT
BRANCH   3   7
ATOM      7  C   UNL A   1     -23.557  -1.595  28.998  0.00  0.00    +0.419 C 
ATOM      8  F   UNL A   1     -24.106  -0.883  28.251  0.00  0.00    -0.166 F 
ATOM      9  F   UNL A   1     -22.368  -1.787  28.911  0.00  0.00    -0.166 F 
ATOM     10  F   UNL A   1     -23.593  -0.731  30.235  0.00  0.00    -0.166 F 
ENDBRANCH   3   7
TORSDOF 1
ENDMDL
ENDMDL
