REMARK  Name = No_2095-gen_results/8p0m/2024-11-26-14-13-15/
REMARK  2 active torsions:
REMARK  status: ('A' for Active; 'I' for Inactive)
REMARK    1  A    between atoms: C_2  and  C_8
REMARK    2  A    between atoms: C_3  and  O_11
REMARK                            x       y       z     vdW  Elec       q    Type
REMARK                         _______ _______ _______ _____ _____    ______ ____
ROOT
ATOM      1  C   UNL A   1     -28.016  -0.814  28.878  0.00  0.00    +0.046 A 
ATOM      2  C   UNL A   1     -28.469  -0.785  29.829  0.00  0.00    +0.083 A 
ATOM      3  C   UNL A   1     -26.504  -0.778  28.877  0.00  0.00    +0.166 A 
ATOM      4  C   UNL A   1     -25.810  -0.853  30.103  0.00  0.00    +0.174 A 
ATOM      5  C   UNL A   1     -27.991  -0.892  31.226  0.00  0.00    +0.009 A 
ATOM      6  C   UNL A   1     -26.604  -0.868  31.265  0.00  0.00    +0.033 A 
ATOM      7  F   UNL A   1     -24.553  -0.787  30.141  0.00  0.00    -0.201 F 
ENDROOT
BRANCH   2   8
ATOM      8  C   UNL A   1     -30.095  -0.841  29.850  0.00  0.00    +0.388 C 
ATOM      9  O   UNL A   1     -30.739  -1.668  30.174  0.00  0.00    -0.241 OA
ATOM     10  O   UNL A   1     -30.620   0.235  29.297  0.00  0.00    -0.241 OA
ENDBRANCH   2   8
BRANCH   3  11
ATOM     11  O   UNL A   1     -25.735  -0.733  27.759  0.00  0.00    -0.469 OA
ATOM     12  C   UNL A   1     -24.579  -0.056  27.861  0.00  0.00    +0.253 C 
ENDBRANCH   3  11
TORSDOF 2
