MODEL 2095
MODEL 1
REMARK VINA RESULT:    -4.993      0.000      0.000
REMARK INTER + INTRA:          -5.711
REMARK INTER:                  -5.576
REMARK INTRA:                  -0.134
REMARK UNBOUND:                -0.134
REMARK  Name = No_2095-gen_results/8p0m/2024-11-26-14-13-15/
REMARK  2 active torsions:
REMARK  status: ('A' for Active; 'I' for Inactive)
REMARK    1  A    between atoms: C_2  and  C_8
REMARK    2  A    between atoms: C_3  and  O_11
REMARK                            x       y       z     vdW  Elec       q    Type
REMARK                         _______ _______ _______ _____ _____    ______ ____
ROOT
ATOM      1  C   UNL A   1     -28.878 -10.498  32.793  0.00  0.00    +0.046 A 
ATOM      2  C   UNL A   1     -28.160 -11.232  32.554  0.00  0.00    +0.083 A 
ATOM      3  C   UNL A   1     -29.744 -10.037  31.642  0.00  0.00    +0.166 A 
ATOM      4  C   UNL A   1     -29.646 -10.694  30.397  0.00  0.00    +0.174 A 
ATOM      5  C   UNL A   1     -27.879 -12.085  31.378  0.00  0.00    +0.009 A 
ATOM      6  C   UNL A   1     -28.661 -11.695  30.300  0.00  0.00    +0.033 A 
ATOM      7  F   UNL A   1     -30.324 -10.311  29.407  0.00  0.00    -0.201 F 
ENDROOT
BRANCH   2   8
ATOM      8  C   UNL A   1     -27.232 -11.753  33.785  0.00  0.00    +0.388 C 
ATOM      9  O   UNL A   1     -26.787 -12.746  33.922  0.00  0.00    -0.241 OA
ATOM     10  O   UNL A   1     -27.141 -10.845  34.736  0.00  0.00    -0.241 OA
ENDBRANCH   2   8
BRANCH   3  11
ATOM     11  O   UNL A   1     -30.673  -9.051  31.724  0.00  0.00    -0.469 OA
ATOM     12  C   UNL A   1     -30.201  -7.801  31.868  0.00  0.00    +0.253 C 
ENDBRANCH   3  11
TORSDOF 2
ENDMDL
ENDMDL
