MODEL 2096
MODEL 1
REMARK VINA RESULT:    -5.104      0.000      0.000
REMARK INTER + INTRA:          -5.442
REMARK INTER:                  -5.402
REMARK INTRA:                  -0.040
REMARK UNBOUND:                -0.040
REMARK  Name = No_2096-gen_results/8p0m/2024-11-26-14-13-15/
REMARK  1 active torsions:
REMARK  status: ('A' for Active; 'I' for Inactive)
REMARK    1  A    between atoms: C_4  and  C_6
REMARK                            x       y       z     vdW  Elec       q    Type
REMARK                         _______ _______ _______ _____ _____    ______ ____
ROOT
ATOM      1  C   UNL A   1     -26.541  -3.868  29.850  0.00  0.00    +0.000 A 
ATOM      2  C   UNL A   1     -26.187  -4.831  29.610  0.00  0.00    +0.000 A 
ATOM      3  C   UNL A   1     -25.585  -2.759  29.703  0.00  0.00    +0.002 A 
ATOM      4  C   UNL A   1     -24.300  -2.981  29.128  0.00  0.00    +0.019 A 
ATOM      5  C   UNL A   1     -24.943  -5.318  28.953  0.00  0.00    +0.000 A 
ATOM      6  C   UNL A   1     -24.021  -4.300  28.771  0.00  0.00    +0.002 A 
ENDROOT
BRANCH   4   7
ATOM      7  C   UNL A   1     -23.344  -1.965  28.961  0.00  0.00    +0.093 C 
ATOM      8  N   UNL A   1     -23.139  -1.080  29.761  0.00  0.00    -0.267 NA
ATOM      9  C   UNL A   1     -22.048  -0.211  29.588  0.00  0.00    +0.152 C 
ENDBRANCH   4   7
TORSDOF 1
ENDMDL
ENDMDL
