MODEL 2097
MODEL 1
REMARK VINA RESULT:    -5.003      0.000      0.000
REMARK INTER + INTRA:          -5.393
REMARK INTER:                  -5.295
REMARK INTRA:                  -0.098
REMARK UNBOUND:                -0.098
REMARK  Name = No_2097-gen_results/8p0m/2024-11-26-14-13-15/
REMARK  1 active torsions:
REMARK  status: ('A' for Active; 'I' for Inactive)
REMARK    1  A    between atoms: C_3  and  C_4
REMARK                            x       y       z     vdW  Elec       q    Type
REMARK                         _______ _______ _______ _____ _____    ______ ____
ROOT
ATOM      1  C   UNL A   1     -25.747  -2.559  29.709  0.00  0.00    -0.000 A 
ATOM      2  C   UNL A   1     -26.347  -3.418  29.826  0.00  0.00    -0.000 A 
ATOM      3  C   UNL A   1     -24.441  -2.732  29.200  0.00  0.00    -0.000 A 
ATOM      4  C   UNL A   1     -26.069  -4.841  29.562  0.00  0.00    -0.000 A 
ATOM      5  C   UNL A   1     -24.792  -5.089  29.059  0.00  0.00    -0.000 A 
ATOM      6  C   UNL A   1     -23.960  -4.042  28.820  0.00  0.00    -0.000 A 
ENDROOT
BRANCH   3   7
ATOM      7  C   UNL A   1     -23.510  -1.621  28.873  0.00  0.00    -0.005 C 
ATOM      8  C   UNL A   1     -22.846  -0.920  29.467  0.00  0.00    -0.026 C 
ATOM      9  C   UNL A   1     -23.106  -1.007  30.981  0.00  0.00    +0.031 C 
ENDBRANCH   3   7
TORSDOF 1
ENDMDL
ENDMDL
