REMARK  Name = No_2098-gen_results/8p0m/2024-11-26-14-13-15/
REMARK  8 active torsions:
REMARK  status: ('A' for Active; 'I' for Inactive)
REMARK    1  A    between atoms: C_4  and  C_8
REMARK    2  A    between atoms: C_8  and  C_9
REMARK    3  A    between atoms: C_9  and  C_18
REMARK    4  A    between atoms: C_10  and  C_11
REMARK    5  A    between atoms: C_11  and  C_12
REMARK    6  A    between atoms: C_15  and  C_22
REMARK    7  A    between atoms: C_22  and  C_24
REMARK    8  A    between atoms: C_24  and  C_25
REMARK                            x       y       z     vdW  Elec       q    Type
REMARK                         _______ _______ _______ _____ _____    ______ ____
ROOT
ATOM      1  C   UNL A   1     -24.554   2.601  30.414  0.00  0.00    +0.052 C 
ENDROOT
BRANCH   1   2
ATOM      2  C   UNL A   1     -25.810   3.511  30.322  0.00  0.00    -0.018 A 
ATOM      3  C   UNL A   1     -25.798   4.800  30.022  0.00  0.00    -0.004 A 
ATOM      4  C   UNL A   1     -26.622   5.535  30.276  0.00  0.00    -0.003 A 
ATOM      5  C   UNL A   1     -27.956   5.062  30.625  0.00  0.00    -0.007 A 
ATOM      6  C   UNL A   1     -28.078   3.676  30.852  0.00  0.00    -0.003 A 
ATOM      7  C   UNL A   1     -26.965   2.869  30.811  0.00  0.00    -0.004 A 
BRANCH   5   8
ATOM      8  C   UNL A   1     -29.186   5.918  30.782  0.00  0.00    +0.106 C 
ATOM      9 CL   UNL A   1     -29.090   7.375  31.363  0.00  0.00    -0.110 Cl
BRANCH   8  10
ATOM     10  C   UNL A   1     -30.386   5.394  30.308  0.00  0.00    +0.047 C 
BRANCH  10  11
ATOM     11  C   UNL A   1     -31.001   5.747  29.426  0.00  0.00    -0.021 A 
ATOM     12  C   UNL A   1     -30.593   6.876  28.567  0.00  0.00    -0.004 A 
ATOM     13  C   UNL A   1     -31.406   7.213  27.352  0.00  0.00    -0.000 A 
ATOM     14  C   UNL A   1     -32.477   6.399  27.037  0.00  0.00    -0.000 A 
ATOM     15  C   UNL A   1     -32.838   5.331  27.766  0.00  0.00    -0.000 A 
ATOM     16  C   UNL A   1     -32.146   5.000  28.868  0.00  0.00    -0.004 A 
ENDBRANCH  10  11
ENDBRANCH   8  10
ENDBRANCH   5   8
ENDBRANCH   1   2
BRANCH   1  18
ATOM     17  C   UNL A   1     -23.791   0.537  30.125  0.00  0.00    +0.058 C 
ATOM     18  C   UNL A   1     -24.192   1.553  30.591  0.00  0.00    -0.019 C 
BRANCH  17  19
ATOM     19  C   UNL A   1     -22.578   0.555  29.212  0.00  0.00    +0.384 C 
ATOM     20  O   UNL A   1     -22.462   1.380  28.379  0.00  0.00    -0.241 OA
ATOM     21  O   UNL A   1     -21.873  -0.606  29.145  0.00  0.00    -0.241 OA
ENDBRANCH  17  19
BRANCH  17  22
ATOM     22  C   UNL A   1     -24.370  -0.821  30.139  0.00  0.00    +0.059 C 
BRANCH  22  26
ATOM     23  C   UNL A   1     -28.016  -0.814  28.878  0.00  0.00    +0.007 A 
ATOM     24  C   UNL A   1     -28.469  -0.785  29.829  0.00  0.00    +0.057 A 
ATOM     25  C   UNL A   1     -26.504  -0.778  28.877  0.00  0.00    -0.025 A 
ATOM     26  C   UNL A   1     -25.810  -0.853  30.103  0.00  0.00    -0.021 A 
ATOM     27  C   UNL A   1     -27.991  -0.892  31.226  0.00  0.00    +0.011 A 
ATOM     28  C   UNL A   1     -26.604  -0.868  31.265  0.00  0.00    -0.003 A 
ATOM     29 CL   UNL A   1     -30.294  -0.838  29.835  0.00  0.00    -0.082 Cl
ATOM     30  C   UNL A   1     -25.729  -0.652  27.639  0.00  0.00    +0.031 C 
ENDBRANCH  22  26
ENDBRANCH  17  22
ENDBRANCH   1  18
TORSDOF 8
