MODEL 2098
MODEL 1
REMARK VINA RESULT:    -7.630      0.000      0.000
REMARK INTER + INTRA:         -12.956
REMARK INTER:                 -11.199
REMARK INTRA:                  -1.757
REMARK UNBOUND:                -1.757
REMARK  Name = No_2098-gen_results/8p0m/2024-11-26-14-13-15/
REMARK  8 active torsions:
REMARK  status: ('A' for Active; 'I' for Inactive)
REMARK    1  A    between atoms: C_4  and  C_8
REMARK    2  A    between atoms: C_8  and  C_9
REMARK    3  A    between atoms: C_9  and  C_18
REMARK    4  A    between atoms: C_10  and  C_11
REMARK    5  A    between atoms: C_11  and  C_12
REMARK    6  A    between atoms: C_15  and  C_22
REMARK    7  A    between atoms: C_22  and  C_24
REMARK    8  A    between atoms: C_24  and  C_25
REMARK                            x       y       z     vdW  Elec       q    Type
REMARK                         _______ _______ _______ _____ _____    ______ ____
ROOT
ATOM      1  C   UNL A   1     -26.844   2.664  26.608  0.00  0.00    +0.052 C 
ENDROOT
BRANCH   1   2
ATOM      2  C   UNL A   1     -25.712   1.807  27.240  0.00  0.00    -0.018 A 
ATOM      3  C   UNL A   1     -25.000   0.893  26.601  0.00  0.00    -0.004 A 
ATOM      4  C   UNL A   1     -24.432   0.047  27.096  0.00  0.00    -0.003 A 
ATOM      5  C   UNL A   1     -24.113   0.100  28.518  0.00  0.00    -0.007 A 
ATOM      6  C   UNL A   1     -24.748   1.122  29.253  0.00  0.00    -0.003 A 
ATOM      7  C   UNL A   1     -25.663   1.947  28.641  0.00  0.00    -0.004 A 
BRANCH   5   8
ATOM      8  C   UNL A   1     -23.198  -0.841  29.256  0.00  0.00    +0.106 C 
ATOM      9 CL   UNL A   1     -22.285  -0.331  30.429  0.00  0.00    -0.110 Cl
BRANCH   8  10
ATOM     10  C   UNL A   1     -23.266  -2.189  28.912  0.00  0.00    +0.047 C 
BRANCH  10  11
ATOM     11  C   UNL A   1     -24.134  -2.902  29.052  0.00  0.00    -0.021 A 
ATOM     12  C   UNL A   1     -24.044  -4.342  28.743  0.00  0.00    -0.004 A 
ATOM     13  C   UNL A   1     -25.202  -5.241  29.060  0.00  0.00    -0.000 A 
ATOM     14  C   UNL A   1     -26.295  -4.694  29.705  0.00  0.00    -0.000 A 
ATOM     15  C   UNL A   1     -26.382  -3.400  30.051  0.00  0.00    -0.000 A 
ATOM     16  C   UNL A   1     -25.374  -2.557  29.776  0.00  0.00    -0.004 A 
ENDBRANCH  10  11
ENDBRANCH   8  10
ENDBRANCH   5   8
ENDBRANCH   1   2
BRANCH   1  18
ATOM     17  C   UNL A   1     -28.255   3.145  24.963  0.00  0.00    +0.058 C 
ATOM     18  C   UNL A   1     -27.288   3.029  25.644  0.00  0.00    -0.019 C 
BRANCH  17  19
ATOM     19  C   UNL A   1     -29.491   3.827  25.523  0.00  0.00    +0.384 C 
ATOM     20  O   UNL A   1     -30.163   3.292  26.329  0.00  0.00    -0.241 OA
ATOM     21  O   UNL A   1     -29.978   4.861  24.786  0.00  0.00    -0.241 OA
ENDBRANCH  17  19
BRANCH  17  22
ATOM     22  C   UNL A   1     -28.568   2.584  23.634  0.00  0.00    +0.059 C 
BRANCH  22  26
ATOM     23  C   UNL A   1     -31.465   0.081  23.161  0.00  0.00    +0.007 A 
ATOM     24  C   UNL A   1     -31.039  -0.700  23.725  0.00  0.00    +0.057 A 
ATOM     25  C   UNL A   1     -30.658   1.359  23.106  0.00  0.00    -0.025 A 
ATOM     26  C   UNL A   1     -29.364   1.384  23.668  0.00  0.00    -0.021 A 
ATOM     27  C   UNL A   1     -29.726  -0.940  24.366  0.00  0.00    +0.011 A 
ATOM     28  C   UNL A   1     -28.953   0.211  24.329  0.00  0.00    -0.003 A 
ATOM     29 CL   UNL A   1     -32.006  -2.247  23.786  0.00  0.00    -0.082 Cl
ATOM     30  C   UNL A   1     -31.182   2.586  22.498  0.00  0.00    +0.031 C 
ENDBRANCH  22  26
ENDBRANCH  17  22
ENDBRANCH   1  18
TORSDOF 8
ENDMDL
ENDMDL
