REMARK  Name = No_2099-gen_results/8p0m/2024-11-26-14-13-15/
REMARK  3 active torsions:
REMARK  status: ('A' for Active; 'I' for Inactive)
REMARK    1  A    between atoms: C_1  and  C_2
REMARK    2  A    between atoms: C_1  and  N_8
REMARK    3  A    between atoms: C_5  and  C_9
REMARK                            x       y       z     vdW  Elec       q    Type
REMARK                         _______ _______ _______ _____ _____    ______ ____
ROOT
ATOM      1  C   UNL A   1     -27.064  -0.119  28.608  0.00  0.00    -0.005 A 
ATOM      2  C   UNL A   1     -26.972   0.714  27.506  0.00  0.00    -0.003 A 
ATOM      3  C   UNL A   1     -25.820   1.491  27.116  0.00  0.00    +0.008 A 
ATOM      4  C   UNL A   1     -24.656   1.424  27.918  0.00  0.00    +0.098 A 
ATOM      5  C   UNL A   1     -24.685   0.590  29.066  0.00  0.00    +0.008 A 
ATOM      6  C   UNL A   1     -25.810  -0.127  29.334  0.00  0.00    -0.003 A 
ENDROOT
BRANCH   4   7
ATOM      7  C   UNL A   1     -23.463   2.176  27.608  0.00  0.00    +0.477 C 
ATOM      8  N   UNL A   1     -22.293   1.770  28.148  0.00  0.00    +0.205 NA
ATOM      9  N   UNL A   1     -23.445   3.014  26.567  0.00  0.00    +0.205 NA
ENDBRANCH   4   7
BRANCH   1  10
ATOM     10  C   UNL A   1     -28.016  -0.814  28.878  0.00  0.00    +0.115 C 
BRANCH  10  11
ATOM     11  N   UNL A   1     -29.194  -0.190  29.016  0.00  0.00    -0.212 NA
ATOM     12  C   UNL A   1     -30.288  -0.764  29.586  0.00  0.00    +0.108 C 
ENDBRANCH  10  11
ENDBRANCH   1  10
TORSDOF 3
