MODEL 2099
MODEL 1
REMARK VINA RESULT:    -5.143      0.000      0.000
REMARK INTER + INTRA:          -6.189
REMARK INTER:                  -6.045
REMARK INTRA:                  -0.144
REMARK UNBOUND:                -0.144
REMARK  Name = No_2099-gen_results/8p0m/2024-11-26-14-13-15/
REMARK  3 active torsions:
REMARK  status: ('A' for Active; 'I' for Inactive)
REMARK    1  A    between atoms: C_1  and  C_2
REMARK    2  A    between atoms: C_1  and  N_8
REMARK    3  A    between atoms: C_5  and  C_9
REMARK                            x       y       z     vdW  Elec       q    Type
REMARK                         _______ _______ _______ _____ _____    ______ ____
ROOT
ATOM      1  C   UNL A   1     -29.694 -10.731  30.081  0.00  0.00    -0.005 A 
ATOM      2  C   UNL A   1     -29.883 -10.057  31.276  0.00  0.00    -0.003 A 
ATOM      3  C   UNL A   1     -29.171 -10.289  32.510  0.00  0.00    +0.008 A 
ATOM      4  C   UNL A   1     -28.182 -11.301  32.540  0.00  0.00    +0.098 A 
ATOM      5  C   UNL A   1     -27.941 -12.033  31.348  0.00  0.00    +0.008 A 
ATOM      6  C   UNL A   1     -28.645 -11.720  30.226  0.00  0.00    -0.003 A 
ENDROOT
BRANCH   4   7
ATOM      7  C   UNL A   1     -27.430 -11.607  33.733  0.00  0.00    +0.477 C 
ATOM      8  N   UNL A   1     -26.787 -12.794  33.797  0.00  0.00    +0.205 NA
ATOM      9  N   UNL A   1     -27.090 -10.635  34.585  0.00  0.00    +0.205 NA
ENDBRANCH   4   7
BRANCH   1  10
ATOM     10  C   UNL A   1     -30.254 -10.474  29.041  0.00  0.00    +0.115 C 
BRANCH  10  11
ATOM     11  N   UNL A   1     -30.047 -11.322  28.023  0.00  0.00    -0.212 NA
ATOM     12  C   UNL A   1     -30.128 -10.961  26.714  0.00  0.00    +0.108 C 
ENDBRANCH  10  11
ENDBRANCH   1  10
TORSDOF 3
ENDMDL
ENDMDL
