MODEL 209
MODEL 1
REMARK VINA RESULT:    -8.564      0.000      0.000
REMARK INTER + INTRA:         -13.281
REMARK INTER:                 -11.568
REMARK INTRA:                  -1.713
REMARK UNBOUND:                -1.713
REMARK  Name = No_209-gen_results/8p0m/2024-11-26-14-13-15/
REMARK  6 active torsions:
REMARK  status: ('A' for Active; 'I' for Inactive)
REMARK    1  A    between atoms: C_2  and  C_7
REMARK    2  A    between atoms: C_3  and  C_17
REMARK    3  A    between atoms: N_9  and  C_10
REMARK    4  A    between atoms: N_9  and  C_11
REMARK    5  A    between atoms: C_10  and  C_25
REMARK    6  A    between atoms: C_17  and  C_18
REMARK                            x       y       z     vdW  Elec       q    Type
REMARK                         _______ _______ _______ _____ _____    ______ ____
ROOT
ATOM      1  C   UNL A   1     -25.398   0.237  25.137  0.00  0.00    +0.253 C 
ATOM      2  O   UNL A   1     -24.989  -0.160  24.212  0.00  0.00    -0.270 OA
ATOM      3  N   UNL A   1     -26.640   0.875  25.198  0.00  0.00    -0.251 N 
ENDROOT
BRANCH   3   4
ATOM      4  C   UNL A   1     -27.252   1.393  26.413  0.00  0.00    +0.054 A 
ATOM      5  C   UNL A   1     -27.085   2.825  26.518  0.00  0.00    +0.015 A 
ATOM      6  C   UNL A   1     -27.708   3.312  27.509  0.00  0.00    -0.003 A 
ATOM      7  C   UNL A   1     -28.491   2.615  28.506  0.00  0.00    -0.022 A 
ATOM      8  C   UNL A   1     -28.562   1.260  28.329  0.00  0.00    -0.003 A 
ATOM      9  C   UNL A   1     -27.989   0.650  27.224  0.00  0.00    +0.015 A 
ATOM     10  C   UNL A   1     -29.149   3.306  29.653  0.00  0.00    +0.031 C 
ENDBRANCH   3   4
BRANCH   1  12
ATOM     11  C   UNL A   1     -24.954  -0.366  27.291  0.00  0.00    +0.001 A 
ATOM     12  C   UNL A   1     -24.649   0.323  26.555  0.00  0.00    +0.054 A 
ATOM     13  C   UNL A   1     -24.242  -0.254  28.621  0.00  0.00    -0.018 A 
ATOM     14  C   UNL A   1     -23.350   0.817  28.840  0.00  0.00    -0.004 A 
ATOM     15  C   UNL A   1     -23.790   1.529  26.533  0.00  0.00    +0.004 A 
ATOM     16  C   UNL A   1     -23.123   1.669  27.742  0.00  0.00    -0.000 A 
BRANCH  13  17
ATOM     17  C   UNL A   1     -24.423  -1.168  29.759  0.00  0.00    +0.053 C 
BRANCH  17  18
ATOM     18  C   UNL A   1     -24.800  -2.526  29.422  0.00  0.00    -0.018 A 
ATOM     19  C   UNL A   1     -25.910  -3.059  29.879  0.00  0.00    -0.004 A 
ATOM     20  C   UNL A   1     -26.190  -4.462  29.678  0.00  0.00    -0.000 A 
ATOM     21  C   UNL A   1     -25.179  -5.216  28.997  0.00  0.00    -0.000 A 
ATOM     22  C   UNL A   1     -23.959  -3.593  28.853  0.00  0.00    -0.004 A 
ATOM     23  C   UNL A   1     -24.134  -4.804  28.595  0.00  0.00    -0.000 A 
ENDBRANCH  17  18
ENDBRANCH  13  17
ENDBRANCH   1  12
BRANCH   3  24
ATOM     24  C   UNL A   1     -27.382   1.031  23.995  0.00  0.00    +0.125 C 
BRANCH  24  25
ATOM     25  C   UNL A   1     -28.345   0.436  23.769  0.00  0.00    -0.002 A 
ATOM     26  C   UNL A   1     -28.599  -0.895  23.841  0.00  0.00    -0.003 A 
ATOM     27  C   UNL A   1     -29.940  -1.517  23.594  0.00  0.00    -0.000 A 
ATOM     28  C   UNL A   1     -30.794  -0.816  23.544  0.00  0.00    -0.000 A 
ATOM     29  C   UNL A   1     -30.783   0.612  23.539  0.00  0.00    -0.000 A 
ATOM     30  C   UNL A   1     -29.580   1.238  23.649  0.00  0.00    -0.003 A 
ENDBRANCH  24  25
ENDBRANCH   3  24
TORSDOF 6
ENDMDL
ENDMDL
