MODEL 20
MODEL 1
REMARK VINA RESULT:    -6.584      0.000      0.000
REMARK INTER + INTRA:          -7.292
REMARK INTER:                  -6.969
REMARK INTRA:                  -0.323
REMARK UNBOUND:                -0.323
REMARK  Name = No_20-gen_results/8p0m/2024-11-26-14-13-15/
REMARK  1 active torsions:
REMARK  status: ('A' for Active; 'I' for Inactive)
REMARK    1  A    between atoms: C_3  and  C_7
REMARK                            x       y       z     vdW  Elec       q    Type
REMARK                         _______ _______ _______ _____ _____    ______ ____
ROOT
ATOM      1  C   UNL A   1     -24.606  -4.948  28.918  0.00  0.00    +0.000 A 
ATOM      2  C   UNL A   1     -23.982  -3.937  28.693  0.00  0.00    +0.000 A 
ATOM      3  C   UNL A   1     -24.433  -2.661  29.028  0.00  0.00    +0.000 A 
ATOM      4  C   UNL A   1     -25.746  -2.511  29.626  0.00  0.00    +0.000 A 
ATOM      5  C   UNL A   1     -26.438  -3.700  29.850  0.00  0.00    +0.000 A 
ATOM      6  C   UNL A   1     -25.939  -4.867  29.491  0.00  0.00    +0.000 A 
ENDROOT
BRANCH   3   7
ATOM      7  C   UNL A   1     -23.720  -1.373  28.790  0.00  0.00    +0.000 A 
ATOM      8  C   UNL A   1     -22.469  -1.148  29.118  0.00  0.00    +0.000 A 
ATOM      9  C   UNL A   1     -21.838   0.087  28.844  0.00  0.00    +0.000 A 
ATOM     10  C   UNL A   1     -22.438   0.941  27.877  0.00  0.00    +0.000 A 
ATOM     11  C   UNL A   1     -24.278  -0.382  27.905  0.00  0.00    +0.000 A 
ATOM     12  C   UNL A   1     -23.659   0.718  27.503  0.00  0.00    +0.000 A 
ENDBRANCH   3   7
TORSDOF 1
ENDMDL
ENDMDL
