REMARK  Name = No_21-gen_results/8p0m/2024-11-26-14-13-15/
REMARK  3 active torsions:
REMARK  status: ('A' for Active; 'I' for Inactive)
REMARK    1  A    between atoms: C_4  and  C_7
REMARK    2  A    between atoms: C_7  and  C_8
REMARK    3  A    between atoms: C_8  and  C_9
REMARK                            x       y       z     vdW  Elec       q    Type
REMARK                         _______ _______ _______ _____ _____    ______ ____
ROOT
ATOM      1  C   UNL A   1     -24.381  -1.108  30.085  0.00  0.00    +0.031 C 
ENDROOT
BRANCH   1   5
ATOM      2  C   UNL A   1     -28.016  -0.814  28.878  0.00  0.00    +0.029 A 
ATOM      3  C   UNL A   1     -28.469  -0.785  29.829  0.00  0.00    +0.140 A 
ATOM      4  C   UNL A   1     -26.546  -0.876  28.850  0.00  0.00    -0.002 A 
ATOM      5  C   UNL A   1     -25.804  -1.032  30.057  0.00  0.00    -0.022 A 
ATOM      6  C   UNL A   1     -27.944  -0.987  31.207  0.00  0.00    +0.029 A 
ATOM      7  C   UNL A   1     -26.582  -1.039  31.223  0.00  0.00    -0.002 A 
ATOM      8  F   UNL A   1     -29.939  -0.729  29.852  0.00  0.00    -0.204 F 
ENDBRANCH   1   5
BRANCH   1   9
ATOM      9  C   UNL A   1     -23.705   0.096  29.844  0.00  0.00    +0.027 C 
ATOM     10  C   UNL A   1     -23.328   0.854  31.060  0.00  0.00    +0.005 C 
BRANCH   9  11
ATOM     11  C   UNL A   1     -23.308   0.521  28.655  0.00  0.00    -0.022 A 
ATOM     12  C   UNL A   1     -22.597   1.678  28.411  0.00  0.00    -0.004 A 
ATOM     13  C   UNL A   1     -22.210   1.900  27.079  0.00  0.00    -0.000 A 
ATOM     14  C   UNL A   1     -23.169   1.708  26.025  0.00  0.00    -0.000 A 
ATOM     15  C   UNL A   1     -24.180   0.724  26.330  0.00  0.00    -0.000 A 
ATOM     16  C   UNL A   1     -24.287   0.152  27.599  0.00  0.00    -0.004 A 
ENDBRANCH   9  11
ENDBRANCH   1   9
TORSDOF 3
