REMARK  Name = No_210-gen_results/8p0m/2024-11-26-14-13-15/
REMARK  6 active torsions:
REMARK  status: ('A' for Active; 'I' for Inactive)
REMARK    1  A    between atoms: C_1  and  C_2
REMARK    2  A    between atoms: C_5  and  C_11
REMARK    3  A    between atoms: N_8  and  CA_10
REMARK    4  A    between atoms: CA_10  and  C_14
REMARK    5  A    between atoms: CA_10  and  C_17
REMARK    6  A    between atoms: C_14  and  C_15
REMARK                            x       y       z     vdW  Elec       q    Type
REMARK                         _______ _______ _______ _____ _____    ______ ____
ROOT
ATOM      1  C   UNL A   1     -28.016  -0.814  28.878  0.00  0.00    +0.265 C 
ATOM      2  N   UNL A   1     -27.974  -1.726  29.961  0.00  0.00    -0.192 NA
ATOM      3  O   UNL A   1     -29.206  -0.344  28.718  0.00  0.00    -0.268 OA
ENDROOT
BRANCH   1   4
ATOM      4  C   UNL A   1     -27.064  -0.119  28.608  0.00  0.00    +0.055 A 
ATOM      5  C   UNL A   1     -25.792  -0.430  29.076  0.00  0.00    +0.005 A 
ATOM      6  C   UNL A   1     -24.546   0.349  28.823  0.00  0.00    +0.007 A 
ATOM      7  C   UNL A   1     -24.659   1.420  27.888  0.00  0.00    +0.080 A 
ATOM      8  C   UNL A   1     -25.947   1.681  27.379  0.00  0.00    +0.007 A 
ATOM      9  C   UNL A   1     -27.044   0.974  27.687  0.00  0.00    +0.005 A 
BRANCH   7  10
ATOM     10  C   UNL A   1     -23.454   2.167  27.611  0.00  0.00    +0.388 C 
ATOM     11  O   UNL A   1     -23.481   3.153  26.933  0.00  0.00    -0.241 OA
ATOM     12  O   UNL A   1     -22.192   1.550  27.747  0.00  0.00    -0.241 OA
ENDBRANCH   7  10
ENDBRANCH   1   4
BRANCH   2  13
ATOM     13  CA  UNL A   1     -29.055  -2.514  30.511  0.00  0.00    +0.202 C 
BRANCH  13  14
ATOM     14  C   UNL A   1     -29.242  -3.873  30.334  0.00  0.00    +0.385 C 
ATOM     15  O   UNL A   1     -29.089  -4.734  29.523  0.00  0.00    -0.244 OA
ATOM     16  OXT UNL A   1     -28.408  -4.042  31.228  0.00  0.00    -0.244 OA
ENDBRANCH  13  14
BRANCH  13  17
ATOM     17  C   UNL A   1     -29.313  -2.107  31.745  0.00  0.00    +0.059 C 
BRANCH  17  18
ATOM     18  C   UNL A   1     -30.212  -3.077  32.479  0.00  0.00    -0.032 C 
ATOM     19  C   UNL A   1     -30.380  -4.226  31.893  0.00  0.00    -0.048 C 
ATOM     20  C   UNL A   1     -31.774  -4.318  31.328  0.00  0.00    +0.026 C 
ATOM     21  C   UNL A   1     -29.929  -5.378  32.449  0.00  0.00    +0.026 C 
ENDBRANCH  17  18
ENDBRANCH  13  17
ENDBRANCH   2  13
TORSDOF 6
