REMARK  Name = No_2100-gen_results/8p0m/2024-11-26-14-13-15/
REMARK  3 active torsions:
REMARK  status: ('A' for Active; 'I' for Inactive)
REMARK    1  A    between atoms: C_2  and  C_3
REMARK    2  A    between atoms: C_3  and  C_5
REMARK    3  A    between atoms: N_4  and  C_11
REMARK                            x       y       z     vdW  Elec       q    Type
REMARK                         _______ _______ _______ _____ _____    ______ ____
ROOT
ATOM      1  O   UNL A   1     -28.123  -1.335  28.487  0.00  0.00    -0.273 OA
ATOM      2  C   UNL A   1     -27.481  -0.404  28.709  0.00  0.00    +0.250 C 
ATOM      3  N   UNL A   1     -27.666   0.447  29.899  0.00  0.00    -0.179 NA
ENDROOT
BRANCH   3   4
ATOM      4  C   UNL A   1     -28.590   0.715  30.361  0.00  0.00    +0.073 A 
ATOM      5  C   UNL A   1     -29.276   1.544  30.394  0.00  0.00    +0.017 A 
ATOM      6  C   UNL A   1     -30.549   1.817  31.150  0.00  0.00    +0.001 A 
ATOM      7  C   UNL A   1     -29.085  -0.452  31.328  0.00  0.00    +0.017 A 
ATOM      8  C   UNL A   1     -30.275  -0.343  32.075  0.00  0.00    +0.001 A 
ATOM      9  C   UNL A   1     -30.960   0.832  31.995  0.00  0.00    +0.000 A 
ENDBRANCH   3   4
BRANCH   2  10
ATOM     10  C   UNL A   1     -26.380  -0.087  27.939  0.00  0.00    +0.114 C 
BRANCH  10  11
ATOM     11  C   UNL A   1     -25.177  -0.439  28.395  0.00  0.00    -0.013 A 
ATOM     12  C   UNL A   1     -23.928  -0.247  27.668  0.00  0.00    -0.004 A 
ATOM     13  C   UNL A   1     -22.698  -0.405  28.436  0.00  0.00    -0.000 A 
ATOM     14  C   UNL A   1     -22.794  -1.087  29.706  0.00  0.00    -0.000 A 
ATOM     15  C   UNL A   1     -23.966  -1.407  30.303  0.00  0.00    -0.000 A 
ATOM     16  C   UNL A   1     -25.132  -1.055  29.716  0.00  0.00    -0.004 A 
ENDBRANCH  10  11
ENDBRANCH   2  10
TORSDOF 3
