MODEL 2100
MODEL 1
REMARK VINA RESULT:    -6.369      0.000      0.000
REMARK INTER + INTRA:          -7.883
REMARK INTER:                  -7.486
REMARK INTRA:                  -0.397
REMARK UNBOUND:                -0.397
REMARK  Name = No_2100-gen_results/8p0m/2024-11-26-14-13-15/
REMARK  3 active torsions:
REMARK  status: ('A' for Active; 'I' for Inactive)
REMARK    1  A    between atoms: C_2  and  C_3
REMARK    2  A    between atoms: C_3  and  C_5
REMARK    3  A    between atoms: N_4  and  C_11
REMARK                            x       y       z     vdW  Elec       q    Type
REMARK                         _______ _______ _______ _____ _____    ______ ____
ROOT
ATOM      1  O   UNL A   1     -25.393   0.721  29.776  0.00  0.00    -0.273 OA
ATOM      2  C   UNL A   1     -24.468   0.037  29.715  0.00  0.00    +0.250 C 
ATOM      3  N   UNL A   1     -23.264   0.365  28.929  0.00  0.00    -0.179 NA
ENDROOT
BRANCH   3   4
ATOM      4  C   UNL A   1     -23.228   0.850  27.980  0.00  0.00    +0.073 A 
ATOM      5  C   UNL A   1     -22.702   1.653  27.493  0.00  0.00    +0.017 A 
ATOM      6  C   UNL A   1     -22.791   2.285  26.129  0.00  0.00    +0.001 A 
ATOM      7  C   UNL A   1     -24.312   0.221  26.994  0.00  0.00    +0.017 A 
ATOM      8  C   UNL A   1     -24.483   0.695  25.678  0.00  0.00    +0.001 A 
ATOM      9  C   UNL A   1     -23.732   1.765  25.294  0.00  0.00    +0.000 A 
ENDBRANCH   3   4
BRANCH   2  10
ATOM     10  C   UNL A   1     -24.356  -1.095  30.497  0.00  0.00    +0.114 C 
BRANCH  10  11
ATOM     11  C   UNL A   1     -24.701  -2.264  29.956  0.00  0.00    -0.013 A 
ATOM     12  C   UNL A   1     -23.841  -3.062  29.091  0.00  0.00    -0.004 A 
ATOM     13  C   UNL A   1     -24.261  -4.438  28.846  0.00  0.00    -0.000 A 
ATOM     14  C   UNL A   1     -25.633  -4.774  29.149  0.00  0.00    -0.000 A 
ATOM     15  C   UNL A   1     -26.480  -3.956  29.817  0.00  0.00    -0.000 A 
ATOM     16  C   UNL A   1     -26.037  -2.760  30.267  0.00  0.00    -0.004 A 
ENDBRANCH  10  11
ENDBRANCH   2  10
TORSDOF 3
ENDMDL
ENDMDL
