MODEL 2101
MODEL 1
REMARK VINA RESULT:    -6.849      0.000      0.000
REMARK INTER + INTRA:          -7.575
REMARK INTER:                  -7.249
REMARK INTRA:                  -0.326
REMARK UNBOUND:                -0.326
REMARK  Name = No_2101-gen_results/8p0m/2024-11-26-14-13-15/
REMARK  1 active torsions:
REMARK  status: ('A' for Active; 'I' for Inactive)
REMARK    1  A    between atoms: C_4  and  C_8
REMARK                            x       y       z     vdW  Elec       q    Type
REMARK                         _______ _______ _______ _____ _____    ______ ____
ROOT
ATOM      1  C   UNL A   1     -21.925   0.103  28.685  0.00  0.00    +0.030 A 
ATOM      2  C   UNL A   1     -22.474   0.750  28.060  0.00  0.00    +0.140 A 
ATOM      3  C   UNL A   1     -22.659  -1.139  29.140  0.00  0.00    +0.002 A 
ATOM      4  C   UNL A   1     -23.933  -1.424  28.605  0.00  0.00    +0.000 A 
ATOM      5  C   UNL A   1     -23.769   0.675  27.345  0.00  0.00    +0.030 A 
ATOM      6  C   UNL A   1     -24.470  -0.458  27.733  0.00  0.00    +0.002 A 
ATOM      7  F   UNL A   1     -21.761   1.934  27.616  0.00  0.00    -0.204 F 
ENDROOT
BRANCH   4   8
ATOM      8  C   UNL A   1     -24.665  -2.580  29.026  0.00  0.00    +0.000 A 
ATOM      9  C   UNL A   1     -25.702  -2.710  29.289  0.00  0.00    +0.000 A 
ATOM     10  C   UNL A   1     -24.008  -3.899  28.660  0.00  0.00    +0.000 A 
ATOM     11  C   UNL A   1     -24.650  -5.078  29.099  0.00  0.00    +0.000 A 
ATOM     12  C   UNL A   1     -26.479  -3.809  29.854  0.00  0.00    +0.000 A 
ATOM     13  C   UNL A   1     -25.867  -5.033  29.606  0.00  0.00    +0.000 A 
ENDBRANCH   4   8
TORSDOF 1
ENDMDL
ENDMDL
