MODEL 2102
MODEL 1
REMARK VINA RESULT:    -7.974      0.000      0.000
REMARK INTER + INTRA:         -11.154
REMARK INTER:                  -9.373
REMARK INTRA:                  -1.782
REMARK UNBOUND:                -1.782
REMARK  Name = No_2102-gen_results/8p0m/2024-11-26-14-13-15/
REMARK  3 active torsions:
REMARK  status: ('A' for Active; 'I' for Inactive)
REMARK    1  A    between atoms: C_16  and  C_20
REMARK    2  A    between atoms: C_17  and  C_26
REMARK    3  A    between atoms: C_29  and  C_33
REMARK                            x       y       z     vdW  Elec       q    Type
REMARK                         _______ _______ _______ _____ _____    ______ ____
ROOT
ATOM      1  C   UNL A   1     -30.127 -14.660  12.013  0.00  0.00    +0.005 A 
ATOM      2  C   UNL A   1     -29.837 -15.603  11.643  0.00  0.00    -0.000 A 
ATOM      3  C   UNL A   1     -29.947 -13.572  11.052  0.00  0.00    +0.055 A 
ATOM      4  C   UNL A   1     -30.377 -12.178  11.299  0.00  0.00    +0.198 A 
ATOM      5  C   UNL A   1     -29.291 -16.091  10.384  0.00  0.00    -0.003 A 
ATOM      6  C   UNL A   1     -29.094 -15.091   9.454  0.00  0.00    -0.001 A 
ATOM      7  C   UNL A   1     -29.462 -13.830   9.743  0.00  0.00    +0.066 A 
ATOM      8  C   UNL A   1     -29.869 -11.216  10.406  0.00  0.00    +0.055 A 
ATOM      9  C   UNL A   1     -30.468  -9.956  10.419  0.00  0.00    +0.005 A 
ATOM     10  C   UNL A   1     -30.093  -9.043   9.316  0.00  0.00    +0.000 A 
ATOM     11  C   UNL A   1     -29.043  -9.399   8.447  0.00  0.00    +0.002 A 
ATOM     12  C   UNL A   1     -28.428 -10.614   8.615  0.00  0.00    +0.018 A 
ATOM     13  C   UNL A   1     -28.890 -11.558   9.503  0.00  0.00    +0.070 A 
ATOM     14  N   UNL A   1     -28.947 -12.789   9.012  0.00  0.00    -0.278 N 
ATOM     15  C   UNL A   1     -28.324 -13.172   7.689  0.00  0.00    +0.245 C 
ATOM     16  C   UNL A   1     -27.772 -14.314   7.482  0.00  0.00    +0.112 C 
ATOM     17  C   UNL A   1     -28.507 -15.476   8.135  0.00  0.00    +0.059 C 
ATOM     18  O   UNL A   1     -30.996 -11.904  12.320  0.00  0.00    -0.286 OA
ATOM     19  O   UNL A   1     -28.078 -12.197   6.878  0.00  0.00    -0.271 OA
ENDROOT
BRANCH  16  20
ATOM     20  C   UNL A   1     -26.675 -14.614   6.611  0.00  0.00    +0.015 A 
ATOM     21  C   UNL A   1     -26.809 -14.957   5.550  0.00  0.00    +0.137 A 
ATOM     22  C   UNL A   1     -25.759 -15.419   4.707  0.00  0.00    +0.029 A 
ATOM     23  C   UNL A   1     -24.480 -15.385   5.208  0.00  0.00    +0.002 A 
ATOM     24  C   UNL A   1     -25.386 -14.556   7.321  0.00  0.00    -0.002 A 
ATOM     25  C   UNL A   1     -24.240 -14.935   6.573  0.00  0.00    -0.000 A 
ATOM     26  F   UNL A   1     -27.957 -15.064   4.883  0.00  0.00    -0.204 F 
ENDBRANCH  16  20
BRANCH  17  27
ATOM     27  C   UNL A   1     -28.284 -16.860   7.745  0.00  0.00    -0.017 A 
ATOM     28  C   UNL A   1     -29.231 -17.419   6.887  0.00  0.00    -0.004 A 
ATOM     29  C   UNL A   1     -27.216 -17.561   8.226  0.00  0.00    +0.001 A 
ATOM     30  C   UNL A   1     -26.991 -18.887   7.741  0.00  0.00    +0.056 A 
ATOM     31  C   UNL A   1     -29.101 -18.745   6.396  0.00  0.00    -0.000 A 
ATOM     32  C   UNL A   1     -27.955 -19.469   6.839  0.00  0.00    +0.005 A 
BRANCH  30  33
ATOM     33  C   UNL A   1     -25.807 -19.658   8.130  0.00  0.00    +0.284 C 
ATOM     34  O   UNL A   1     -25.051 -19.303   8.937  0.00  0.00    -0.267 OA
ATOM     35  N   UNL A   1     -25.602 -20.863   7.393  0.00  0.00    -0.084 NA
ENDBRANCH  30  33
ENDBRANCH  17  27
TORSDOF 3
ENDMDL
ENDMDL
