REMARK  Name = No_2102-gen_results/8p0m/2024-11-26-14-13-15/
REMARK  3 active torsions:
REMARK  status: ('A' for Active; 'I' for Inactive)
REMARK    1  A    between atoms: C_16  and  C_20
REMARK    2  A    between atoms: C_17  and  C_26
REMARK    3  A    between atoms: C_29  and  C_33
REMARK                            x       y       z     vdW  Elec       q    Type
REMARK                         _______ _______ _______ _____ _____    ______ ____
ROOT
ATOM      1  C   UNL A   1     -28.016  -0.814  28.878  0.00  0.00    +0.005 A 
ATOM      2  C   UNL A   1     -28.469  -0.785  29.829  0.00  0.00    -0.000 A 
ATOM      3  C   UNL A   1     -27.087   0.290  28.638  0.00  0.00    +0.055 A 
ATOM      4  C   UNL A   1     -26.252   0.411  27.422  0.00  0.00    +0.198 A 
ATOM      5  C   UNL A   1     -28.391   0.104  30.980  0.00  0.00    -0.003 A 
ATOM      6  C   UNL A   1     -27.533   1.167  30.787  0.00  0.00    -0.001 A 
ATOM      7  C   UNL A   1     -26.828   1.256  29.645  0.00  0.00    +0.066 A 
ATOM      8  C   UNL A   1     -25.644   1.665  27.222  0.00  0.00    +0.055 A 
ATOM      9  C   UNL A   1     -24.632   1.737  26.265  0.00  0.00    +0.005 A 
ATOM     10  C   UNL A   1     -23.843   2.989  26.242  0.00  0.00    +0.000 A 
ATOM     11  C   UNL A   1     -24.258   4.086  27.022  0.00  0.00    +0.002 A 
ATOM     12  C   UNL A   1     -25.359   3.945  27.829  0.00  0.00    +0.018 A 
ATOM     13  C   UNL A   1     -25.986   2.734  28.016  0.00  0.00    +0.070 A 
ATOM     14  N   UNL A   1     -26.276   2.459  29.281  0.00  0.00    -0.278 N 
ATOM     15  C   UNL A   1     -26.164   3.482  30.388  0.00  0.00    +0.245 C 
ATOM     16  C   UNL A   1     -26.982   3.531  31.379  0.00  0.00    +0.112 C 
ATOM     17  C   UNL A   1     -27.400   2.161  31.895  0.00  0.00    +0.059 C 
ATOM     18  O   UNL A   1     -26.254  -0.488  26.590  0.00  0.00    -0.286 OA
ATOM     19  O   UNL A   1     -25.417   4.505  30.137  0.00  0.00    -0.271 OA
ENDROOT
BRANCH  16  20
ATOM     20  C   UNL A   1     -27.401   4.686  32.115  0.00  0.00    +0.015 A 
ATOM     21  C   UNL A   1     -28.306   5.292  31.844  0.00  0.00    +0.137 A 
ATOM     22  C   UNL A   1     -28.664   6.532  32.444  0.00  0.00    +0.029 A 
ATOM     23  C   UNL A   1     -27.877   6.990  33.473  0.00  0.00    +0.002 A 
ATOM     24  C   UNL A   1     -26.426   5.049  33.158  0.00  0.00    -0.002 A 
ATOM     25  C   UNL A   1     -26.696   6.240  33.882  0.00  0.00    -0.000 A 
ATOM     26  F   UNL A   1     -29.190   5.024  30.883  0.00  0.00    -0.204 F 
ENDBRANCH  16  20
BRANCH  17  27
ATOM     27  C   UNL A   1     -28.011   1.972  33.202  0.00  0.00    -0.017 A 
ATOM     28  C   UNL A   1     -27.176   1.481  34.206  0.00  0.00    -0.004 A 
ATOM     29  C   UNL A   1     -29.334   2.240  33.404  0.00  0.00    +0.001 A 
ATOM     30  C   UNL A   1     -29.863   2.124  34.727  0.00  0.00    +0.056 A 
ATOM     31  C   UNL A   1     -27.640   1.298  35.536  0.00  0.00    -0.000 A 
ATOM     32  C   UNL A   1     -29.004   1.635  35.778  0.00  0.00    +0.005 A 
BRANCH  30  33
ATOM     33  C   UNL A   1     -31.245   2.499  35.038  0.00  0.00    +0.284 C 
ATOM     34  O   UNL A   1     -32.148   1.782  34.899  0.00  0.00    -0.267 OA
ATOM     35  N   UNL A   1     -31.422   3.849  35.468  0.00  0.00    -0.084 NA
ENDBRANCH  30  33
ENDBRANCH  17  27
TORSDOF 3
