MODEL 2103
MODEL 1
REMARK VINA RESULT:    -5.105      0.000      0.000
REMARK INTER + INTRA:          -5.536
REMARK INTER:                  -5.403
REMARK INTRA:                  -0.132
REMARK UNBOUND:                -0.132
REMARK  Name = No_2103-gen_results/8p0m/2024-11-26-14-13-15/
REMARK  1 active torsions:
REMARK  status: ('A' for Active; 'I' for Inactive)
REMARK    1  A    between atoms: C_4  and  C_8
REMARK                            x       y       z     vdW  Elec       q    Type
REMARK                         _______ _______ _______ _____ _____    ______ ____
ROOT
ATOM      1  C   UNL A   1     -23.960  -4.460  28.641  0.00  0.00    +0.030 A 
ATOM      2  C   UNL A   1     -24.866  -4.957  28.845  0.00  0.00    +0.140 A 
ATOM      3  C   UNL A   1     -23.904  -3.028  28.979  0.00  0.00    +0.006 A 
ATOM      4  C   UNL A   1     -24.982  -2.405  29.674  0.00  0.00    +0.072 A 
ATOM      5  C   UNL A   1     -26.090  -4.566  29.597  0.00  0.00    +0.030 A 
ATOM      6  C   UNL A   1     -26.079  -3.241  29.918  0.00  0.00    +0.006 A 
ATOM      7  F   UNL A   1     -24.923  -6.363  28.531  0.00  0.00    -0.204 F 
ENDROOT
BRANCH   4   8
ATOM      8  C   UNL A   1     -24.962  -1.019  30.019  0.00  0.00    +0.419 C 
ATOM      9  F   UNL A   1     -24.437  -0.850  31.222  0.00  0.00    -0.166 F 
ATOM     10  F   UNL A   1     -26.177  -0.419  30.114  0.00  0.00    -0.166 F 
ATOM     11  F   UNL A   1     -24.182  -0.259  29.177  0.00  0.00    -0.166 F 
ENDBRANCH   4   8
TORSDOF 1
ENDMDL
ENDMDL
