REMARK  Name = No_2104-gen_results/8p0m/2024-11-26-14-13-15/
REMARK  1 active torsions:
REMARK  status: ('A' for Active; 'I' for Inactive)
REMARK    1  A    between atoms: C_6  and  P_8
REMARK                            x       y       z     vdW  Elec       q    Type
REMARK                         _______ _______ _______ _____ _____    ______ ____
ROOT
ATOM      1  O   UNL A   1     -28.123  -1.335  28.487  0.00  0.00    -0.273 OA
ATOM      2  C   UNL A   1     -27.064  -0.824  28.869  0.00  0.00    +0.242 C 
ATOM      3  N   UNL A   1     -26.894  -0.266  29.681  0.00  0.00    -0.202 NA
ATOM      4  C   UNL A   1     -25.743  -1.210  28.036  0.00  0.00    +0.090 C 
ATOM      5  C   UNL A   1     -24.480  -0.728  28.547  0.00  0.00    +0.051 C 
ATOM      6  C   UNL A   1     -24.490   0.086  29.649  0.00  0.00    +0.199 C 
ATOM      7  C   UNL A   1     -25.716   0.323  30.307  0.00  0.00    +0.155 C 
ATOM      8  F   UNL A   1     -24.666   0.962  29.023  0.00  0.00    -0.231 F 
ENDROOT
BRANCH   6   9
ATOM      9  P   UNL A   1     -23.009   0.746  30.242  0.00  0.00    +0.148 P 
ATOM     10  O   UNL A   1     -22.387   1.571  29.411  0.00  0.00    -0.355 OA
ATOM     11  O   UNL A   1     -23.503   1.553  31.502  0.00  0.00    -0.355 OA
ATOM     12  O   UNL A   1     -22.259  -0.439  30.730  0.00  0.00    -0.458 OA
ENDBRANCH   6   9
TORSDOF 1
