MODEL 2104
MODEL 1
REMARK VINA RESULT:    -5.039      0.000      0.000
REMARK INTER + INTRA:          -5.376
REMARK INTER:                  -5.333
REMARK INTRA:                  -0.042
REMARK UNBOUND:                -0.042
REMARK  Name = No_2104-gen_results/8p0m/2024-11-26-14-13-15/
REMARK  1 active torsions:
REMARK  status: ('A' for Active; 'I' for Inactive)
REMARK    1  A    between atoms: C_6  and  P_8
REMARK                            x       y       z     vdW  Elec       q    Type
REMARK                         _______ _______ _______ _____ _____    ______ ____
ROOT
ATOM      1  O   UNL A   1     -27.077  -4.518  29.925  0.00  0.00    -0.273 OA
ATOM      2  C   UNL A   1     -26.195  -3.665  29.769  0.00  0.00    +0.242 C 
ATOM      3  N   UNL A   1     -26.152  -2.734  30.131  0.00  0.00    -0.202 NA
ATOM      4  C   UNL A   1     -24.866  -4.144  29.001  0.00  0.00    +0.090 C 
ATOM      5  C   UNL A   1     -23.773  -3.201  28.927  0.00  0.00    +0.051 C 
ATOM      6  C   UNL A   1     -23.962  -1.943  29.437  0.00  0.00    +0.199 C 
ATOM      7  C   UNL A   1     -25.166  -1.660  30.116  0.00  0.00    +0.155 C 
ATOM      8  F   UNL A   1     -24.420  -1.613  28.503  0.00  0.00    -0.231 F 
ENDROOT
BRANCH   6   9
ATOM      9  P   UNL A   1     -22.709  -0.764  29.297  0.00  0.00    +0.148 P 
ATOM     10  O   UNL A   1     -21.510  -1.247  29.001  0.00  0.00    -0.355 OA
ATOM     11  O   UNL A   1     -23.229   0.110  28.093  0.00  0.00    -0.355 OA
ATOM     12  O   UNL A   1     -22.842   0.048  30.533  0.00  0.00    -0.458 OA
ENDBRANCH   6   9
TORSDOF 1
ENDMDL
ENDMDL
