MODEL 2105
MODEL 1
REMARK VINA RESULT:    -5.746      0.000      0.000
REMARK INTER + INTRA:          -6.245
REMARK INTER:                  -6.082
REMARK INTRA:                  -0.163
REMARK UNBOUND:                -0.163
REMARK  Name = No_2105-gen_results/8p0m/2024-11-26-14-13-15/
REMARK  1 active torsions:
REMARK  status: ('A' for Active; 'I' for Inactive)
REMARK    1  A    between atoms: C_4  and  C_8
REMARK                            x       y       z     vdW  Elec       q    Type
REMARK                         _______ _______ _______ _____ _____    ______ ____
ROOT
ATOM      1  C   UNL A   1     -26.405  -3.479  29.927  0.00  0.00    +0.004 C 
ATOM      2  C   UNL A   1     -25.534  -2.649  29.812  0.00  0.00    +0.022 C 
ATOM      3  C   UNL A   1     -24.320  -2.960  29.208  0.00  0.00    -0.044 C 
ATOM      4  C   UNL A   1     -23.295  -2.005  28.984  0.00  0.00    -0.009 C 
ATOM      5  C   UNL A   1     -26.117  -4.888  29.649  0.00  0.00    +0.001 C 
ATOM      6  C   UNL A   1     -24.989  -5.272  28.967  0.00  0.00    +0.004 C 
ATOM      7  C   UNL A   1     -24.021  -4.292  28.733  0.00  0.00    +0.022 C 
ENDROOT
BRANCH   4   8
ATOM      8  C   UNL A   1     -23.453  -0.674  29.121  0.00  0.00    -0.005 C 
ATOM      9  C   UNL A   1     -22.377   0.218  28.990  0.00  0.00    -0.026 C 
ATOM     10  C   UNL A   1     -21.115  -0.190  28.708  0.00  0.00    +0.031 C 
ENDBRANCH   4   8
TORSDOF 1
ENDMDL
ENDMDL
