MODEL 2106
MODEL 1
REMARK VINA RESULT:    -4.980      0.000      0.000
REMARK INTER + INTRA:          -4.980
REMARK INTER:                  -4.980
REMARK INTRA:                   0.000
REMARK UNBOUND:                 0.000
REMARK  Name = No_2106-gen_results/8p0m/2024-11-26-14-13-15/
REMARK  0 active torsions:
REMARK  status: ('A' for Active; 'I' for Inactive)
REMARK                            x       y       z     vdW  Elec       q    Type
REMARK                         _______ _______ _______ _____ _____    ______ ____
ROOT
ATOM      1  C   UNL A   1     -10.571  -9.298  19.138  0.00  0.00    +0.042 A 
ATOM      2  C   UNL A   1      -9.862  -9.104  20.098  0.00  0.00    +0.003 A 
ATOM      3  C   UNL A   1      -8.564  -9.601  20.144  0.00  0.00    +0.000 A 
ATOM      4  C   UNL A   1      -8.038 -10.402  19.068  0.00  0.00    +0.003 A 
ATOM      5  C   UNL A   1      -8.934 -10.597  18.009  0.00  0.00    +0.042 A 
ATOM      6  C   UNL A   1     -10.158 -10.119  18.021  0.00  0.00    +0.196 A 
ATOM      7  O   UNL A   1     -10.977 -10.387  16.968  0.00  0.00    -0.287 OA
ENDROOT
TORSDOF 0
ENDMDL
ENDMDL
