REMARK  Name = No_2107-gen_results/8p0m/2024-11-26-14-13-15/
REMARK  6 active torsions:
REMARK  status: ('A' for Active; 'I' for Inactive)
REMARK    1  A    between atoms: C_2  and  C_3
REMARK    2  A    between atoms: N_4  and  C_10
REMARK    3  A    between atoms: C_12  and  C_13
REMARK    4  A    between atoms: C_20  and  C_22
REMARK    5  A    between atoms: C_24  and  C_25
REMARK    6  A    between atoms: C_26  and  C_27
REMARK                            x       y       z     vdW  Elec       q    Type
REMARK                         _______ _______ _______ _____ _____    ______ ____
ROOT
ATOM      1  C   UNL A   1     -28.783   2.375  30.148  0.00  0.00    +0.004 A 
ATOM      2  C   UNL A   1     -28.840   3.457  30.639  0.00  0.00    +0.000 A 
ATOM      3  C   UNL A   1     -28.100   4.572  30.072  0.00  0.00    +0.002 A 
ATOM      4  C   UNL A   1     -27.399   4.400  28.843  0.00  0.00    +0.019 A 
ATOM      5  C   UNL A   1     -27.381   3.142  28.320  0.00  0.00    +0.081 A 
ATOM      6  C   UNL A   1     -27.972   2.135  28.988  0.00  0.00    +0.019 A 
ATOM      7  C   UNL A   1     -29.087   1.667  27.925  0.00  0.00    +0.021 A 
ATOM      8  C   UNL A   1     -29.001   2.386  26.645  0.00  0.00    +0.081 A 
ATOM      9  N   UNL A   1     -27.937   3.426  26.924  0.00  0.00    -0.245 NA
ENDROOT
BRANCH   1  11
ATOM     10  C   UNL A   1     -28.514   0.177  30.773  0.00  0.00    +0.131 C 
ATOM     11  C   UNL A   1     -29.214   1.173  30.764  0.00  0.00    +0.028 C 
ATOM     12 CL   UNL A   1     -28.810  -1.243  31.710  0.00  0.00    -0.064 Cl
BRANCH  10  15
ATOM     13  O   UNL A   1     -28.123  -1.335  28.487  0.00  0.00    -0.268 OA
ATOM     14  C   UNL A   1     -27.481  -0.404  28.709  0.00  0.00    +0.270 C 
ATOM     15  N   UNL A   1     -27.423   0.175  30.055  0.00  0.00    -0.164 NA
BRANCH  14  16
ATOM     16  C   UNL A   1     -26.380  -0.087  27.939  0.00  0.00    +0.056 A 
ATOM     17  C   UNL A   1     -26.156   0.116  26.968  0.00  0.00    +0.005 A 
ATOM     18  C   UNL A   1     -24.900   0.604  26.225  0.00  0.00    +0.001 A 
ATOM     19  C   UNL A   1     -23.829   0.801  27.044  0.00  0.00    +0.007 A 
ATOM     20  C   UNL A   1     -23.956   0.754  28.263  0.00  0.00    +0.035 A 
ATOM     21  C   UNL A   1     -25.100   0.340  28.955  0.00  0.00    +0.011 A 
ATOM     22 BR   UNL A   1     -22.500   1.256  29.464  0.00  0.00    -0.049 Br
ENDBRANCH  14  16
ENDBRANCH  10  15
ENDBRANCH   1  11
BRANCH   8  23
ATOM     23  C   UNL A   1     -30.189   3.124  26.238  0.00  0.00    +0.019 C 
ATOM     24  C   UNL A   1     -30.716   2.744  25.090  0.00  0.00    +0.001 C 
BRANCH  24  25
ATOM     25  C   UNL A   1     -30.210   1.619  24.372  0.00  0.00    -0.002 C 
ATOM     26  C   UNL A   1     -29.099   0.967  24.846  0.00  0.00    +0.008 C 
BRANCH  26  27
ATOM     27  C   UNL A   1     -28.518   1.352  26.002  0.00  0.00    +0.183 C 
ATOM     28  F   UNL A   1     -28.102   0.461  26.599  0.00  0.00    -0.232 F 
ATOM     29  C   UNL A   1     -27.117   1.918  25.280  0.00  0.00    +0.043 C 
ENDBRANCH  26  27
ENDBRANCH  24  25
ENDBRANCH   8  23
TORSDOF 6
