MODEL 2107
MODEL 1
REMARK VINA RESULT:    -6.810      0.000      0.000
REMARK INTER + INTRA:         -10.124
REMARK INTER:                  -9.199
REMARK INTRA:                  -0.925
REMARK UNBOUND:                -0.925
REMARK  Name = No_2107-gen_results/8p0m/2024-11-26-14-13-15/
REMARK  6 active torsions:
REMARK  status: ('A' for Active; 'I' for Inactive)
REMARK    1  A    between atoms: C_2  and  C_3
REMARK    2  A    between atoms: N_4  and  C_10
REMARK    3  A    between atoms: C_12  and  C_13
REMARK    4  A    between atoms: C_20  and  C_22
REMARK    5  A    between atoms: C_24  and  C_25
REMARK    6  A    between atoms: C_26  and  C_27
REMARK                            x       y       z     vdW  Elec       q    Type
REMARK                         _______ _______ _______ _____ _____    ______ ____
ROOT
ATOM      1  C   UNL A   1     -23.825  -1.281  29.794  0.00  0.00    +0.004 A 
ATOM      2  C   UNL A   1     -24.146  -1.029  30.911  0.00  0.00    +0.000 A 
ATOM      3  C   UNL A   1     -24.237   0.348  31.367  0.00  0.00    +0.002 A 
ATOM      4  C   UNL A   1     -24.064   1.412  30.434  0.00  0.00    +0.019 A 
ATOM      5  C   UNL A   1     -23.712   1.061  29.165  0.00  0.00    +0.081 A 
ATOM      6  C   UNL A   1     -23.506  -0.234  28.865  0.00  0.00    +0.019 A 
ATOM      7  C   UNL A   1     -24.627  -0.474  27.734  0.00  0.00    +0.021 A 
ATOM      8  C   UNL A   1     -25.358   0.751  27.377  0.00  0.00    +0.081 A 
ATOM      9  N   UNL A   1     -24.826   1.754  28.379  0.00  0.00    -0.245 NA
ENDROOT
BRANCH   1  11
ATOM     10  C   UNL A   1     -24.239  -3.382  28.951  0.00  0.00    +0.131 C 
ATOM     11  C   UNL A   1     -23.425  -2.558  29.326  0.00  0.00    +0.028 C 
ATOM     12 CL   UNL A   1     -23.866  -4.849  28.120  0.00  0.00    -0.064 Cl
BRANCH  10  15
ATOM     13  O   UNL A   1     -26.087  -5.230  29.864  0.00  0.00    -0.268 OA
ATOM     14  C   UNL A   1     -26.283  -4.097  29.940  0.00  0.00    +0.270 C 
ATOM     15  N   UNL A   1     -25.508  -3.138  29.147  0.00  0.00    -0.164 NA
BRANCH  14  16
ATOM     16  C   UNL A   1     -27.510  -3.602  30.334  0.00  0.00    +0.056 A 
ATOM     17  C   UNL A   1     -28.380  -3.941  30.737  0.00  0.00    +0.005 A 
ATOM     18  C   UNL A   1     -29.656  -3.272  31.278  0.00  0.00    +0.001 A 
ATOM     19  C   UNL A   1     -29.633  -1.913  31.192  0.00  0.00    +0.007 A 
ATOM     20  C   UNL A   1     -28.605  -1.323  30.875  0.00  0.00    +0.035 A 
ATOM     21  C   UNL A   1     -27.427  -1.917  30.408  0.00  0.00    +0.011 A 
ATOM     22 BR   UNL A   1     -28.473   0.624  30.965  0.00  0.00    -0.049 Br
ENDBRANCH  14  16
ENDBRANCH  10  15
ENDBRANCH   1  11
BRANCH   8  23
ATOM     23  C   UNL A   1     -26.802   0.719  27.566  0.00  0.00    +0.019 C 
ATOM     24  C   UNL A   1     -27.507   0.595  26.458  0.00  0.00    +0.001 C 
BRANCH  24  25
ATOM     25  C   UNL A   1     -26.879   0.396  25.192  0.00  0.00    -0.002 C 
ATOM     26  C   UNL A   1     -27.641  -0.006  24.123  0.00  0.00    +0.008 C 
BRANCH  26  27
ATOM     27  C   UNL A   1     -28.975  -0.167  24.253  0.00  0.00    +0.183 C 
ATOM     28  F   UNL A   1     -29.568   0.529  23.554  0.00  0.00    -0.232 F 
ATOM     29  C   UNL A   1     -29.036  -1.597  23.384  0.00  0.00    +0.043 C 
ENDBRANCH  26  27
ENDBRANCH  24  25
ENDBRANCH   8  23
TORSDOF 6
ENDMDL
ENDMDL
