MODEL 2108
MODEL 1
REMARK VINA RESULT:    -5.008      0.000      0.000
REMARK INTER + INTRA:          -5.008
REMARK INTER:                  -5.008
REMARK INTRA:                   0.000
REMARK UNBOUND:                 0.000
REMARK  Name = No_2108-gen_results/8p0m/2024-11-26-14-13-15/
REMARK  0 active torsions:
REMARK  status: ('A' for Active; 'I' for Inactive)
REMARK                            x       y       z     vdW  Elec       q    Type
REMARK                         _______ _______ _______ _____ _____    ______ ____
ROOT
ATOM      1  C   UNL A   1     -23.968  -4.305  28.654  0.00  0.00    +0.072 A 
ATOM      2  C   UNL A   1     -24.883  -5.059  28.896  0.00  0.00    +0.143 A 
ATOM      3  C   UNL A   1     -26.027  -4.613  29.549  0.00  0.00    +0.030 A 
ATOM      4  C   UNL A   1     -26.139  -3.250  29.999  0.00  0.00    +0.006 A 
ATOM      5  C   UNL A   1     -25.026  -2.453  29.700  0.00  0.00    +0.042 A 
ATOM      6  C   UNL A   1     -23.961  -2.928  29.095  0.00  0.00    +0.198 A 
ATOM      7  F   UNL A   1     -24.882  -6.357  28.590  0.00  0.00    -0.204 F 
ATOM      8  O   UNL A   1     -22.907  -2.072  28.872  0.00  0.00    -0.286 OA
ENDROOT
TORSDOF 0
ENDMDL
ENDMDL
