MODEL 2109
MODEL 1
REMARK VINA RESULT:    -6.524      0.000      0.000
REMARK INTER + INTRA:          -7.704
REMARK INTER:                  -7.287
REMARK INTRA:                  -0.418
REMARK UNBOUND:                -0.418
REMARK  Name = No_2109-gen_results/8p0m/2024-11-26-14-13-15/
REMARK  2 active torsions:
REMARK  status: ('A' for Active; 'I' for Inactive)
REMARK    1  A    between atoms: C_3  and  C_7
REMARK    2  A    between atoms: C_6  and  C_13
REMARK                            x       y       z     vdW  Elec       q    Type
REMARK                         _______ _______ _______ _____ _____    ______ ____
ROOT
ATOM      1  C   UNL A   1     -29.395 -10.226  32.419  0.00  0.00    +0.007 A 
ATOM      2  C   UNL A   1     -29.756 -10.153  31.267  0.00  0.00    +0.000 A 
ATOM      3  C   UNL A   1     -29.304 -11.007  30.261  0.00  0.00    +0.000 A 
ATOM      4  C   UNL A   1     -28.303 -12.007  30.581  0.00  0.00    +0.000 A 
ATOM      5  C   UNL A   1     -27.901 -12.043  31.916  0.00  0.00    +0.007 A 
ATOM      6  C   UNL A   1     -28.374 -11.188  32.801  0.00  0.00    +0.080 A 
ENDROOT
BRANCH   3   7
ATOM      7  C   UNL A   1     -29.702 -10.987  28.818  0.00  0.00    +0.000 A 
ATOM      8  C   UNL A   1     -30.722 -10.292  28.399  0.00  0.00    +0.000 A 
ATOM      9  C   UNL A   1     -31.147 -10.349  27.037  0.00  0.00    +0.000 A 
ATOM     10  C   UNL A   1     -30.627 -11.252  26.142  0.00  0.00    +0.000 A 
ATOM     11  C   UNL A   1     -29.096 -11.938  27.873  0.00  0.00    +0.000 A 
ATOM     12  C   UNL A   1     -29.569 -12.017  26.543  0.00  0.00    +0.000 A 
ENDBRANCH   3   7
BRANCH   6  13
ATOM     13  C   UNL A   1     -27.839 -11.266  34.191  0.00  0.00    +0.388 C 
ATOM     14  O   UNL A   1     -27.276 -12.289  34.623  0.00  0.00    -0.241 OA
ATOM     15  O   UNL A   1     -27.528 -10.158  34.791  0.00  0.00    -0.241 OA
ENDBRANCH   6  13
TORSDOF 2
ENDMDL
ENDMDL
