MODEL 210
MODEL 1
REMARK VINA RESULT:    -6.637      0.000      0.000
REMARK INTER + INTRA:          -9.429
REMARK INTER:                  -8.965
REMARK INTRA:                  -0.464
REMARK UNBOUND:                -0.464
REMARK  Name = No_210-gen_results/8p0m/2024-11-26-14-13-15/
REMARK  6 active torsions:
REMARK  status: ('A' for Active; 'I' for Inactive)
REMARK    1  A    between atoms: C_1  and  C_2
REMARK    2  A    between atoms: C_5  and  C_11
REMARK    3  A    between atoms: N_8  and  CA_10
REMARK    4  A    between atoms: CA_10  and  C_14
REMARK    5  A    between atoms: CA_10  and  C_17
REMARK    6  A    between atoms: C_14  and  C_15
REMARK                            x       y       z     vdW  Elec       q    Type
REMARK                         _______ _______ _______ _____ _____    ______ ____
ROOT
ATOM      1  C   UNL A   1      -8.196   0.544  34.521  0.00  0.00    +0.265 C 
ATOM      2  N   UNL A   1      -9.202   0.345  35.498  0.00  0.00    -0.192 NA
ATOM      3  O   UNL A   1      -8.173   1.772  34.127  0.00  0.00    -0.268 OA
ENDROOT
BRANCH   1   4
ATOM      4  C   UNL A   1      -7.165  -0.088  34.546  0.00  0.00    +0.055 A 
ATOM      5  C   UNL A   1      -5.960   0.515  34.887  0.00  0.00    +0.005 A 
ATOM      6  C   UNL A   1      -4.627  -0.150  34.943  0.00  0.00    +0.007 A 
ATOM      7  C   UNL A   1      -4.630  -1.567  34.780  0.00  0.00    +0.080 A 
ATOM      8  C   UNL A   1      -5.873  -2.168  34.494  0.00  0.00    +0.007 A 
ATOM      9  C   UNL A   1      -7.035  -1.505  34.404  0.00  0.00    +0.005 A 
BRANCH   7  10
ATOM     10  C   UNL A   1      -3.349  -2.231  34.860  0.00  0.00    +0.388 C 
ATOM     11  O   UNL A   1      -2.746  -2.286  35.892  0.00  0.00    -0.241 OA
ATOM     12  O   UNL A   1      -2.586  -2.438  33.691  0.00  0.00    -0.241 OA
ENDBRANCH   7  10
ENDBRANCH   1   4
BRANCH   2  13
ATOM     13  CA  UNL A   1     -10.412   1.109  35.706  0.00  0.00    +0.202 C 
BRANCH  13  14
ATOM     14  C   UNL A   1     -11.201   1.667  34.716  0.00  0.00    +0.385 C 
ATOM     15  O   UNL A   1     -11.612   1.444  33.619  0.00  0.00    -0.244 OA
ATOM     16  OXT UNL A   1     -12.148   1.571  35.502  0.00  0.00    -0.244 OA
ENDBRANCH  13  14
BRANCH  13  17
ATOM     17  C   UNL A   1     -11.114   0.563  36.688  0.00  0.00    +0.059 C 
BRANCH  17  18
ATOM     18  C   UNL A   1     -10.464  -0.700  37.207  0.00  0.00    -0.032 C 
ATOM     19  C   UNL A   1     -11.223  -1.444  37.957  0.00  0.00    -0.048 C 
ATOM     20  C   UNL A   1     -10.772  -1.357  39.393  0.00  0.00    +0.026 C 
ATOM     21  C   UNL A   1     -11.604  -2.686  37.569  0.00  0.00    +0.026 C 
ENDBRANCH  17  18
ENDBRANCH  13  17
ENDBRANCH   2  13
TORSDOF 6
ENDMDL
ENDMDL
