MODEL 2110
MODEL 1
REMARK VINA RESULT:    -5.896      0.000      0.000
REMARK INTER + INTRA:          -6.824
REMARK INTER:                  -6.585
REMARK INTRA:                  -0.239
REMARK UNBOUND:                -0.239
REMARK  Name = No_2110-gen_results/8p0m/2024-11-26-14-13-15/
REMARK  2 active torsions:
REMARK  status: ('A' for Active; 'I' for Inactive)
REMARK    1  A    between atoms: C_2  and  C_7
REMARK    2  A    between atoms: C_6  and  C_11
REMARK                            x       y       z     vdW  Elec       q    Type
REMARK                         _______ _______ _______ _____ _____    ______ ____
ROOT
ATOM      1  C   UNL A   1     -28.416 -11.831  30.806  0.00  0.00    +0.010 A 
ATOM      2  C   UNL A   1     -29.203 -11.211  30.130  0.00  0.00    +0.072 A 
ATOM      3  C   UNL A   1     -29.932 -10.154  30.664  0.00  0.00    +0.004 A 
ATOM      4  C   UNL A   1     -29.806  -9.794  32.053  0.00  0.00    +0.000 A 
ATOM      5  C   UNL A   1     -28.891 -10.578  32.767  0.00  0.00    +0.007 A 
ATOM      6  C   UNL A   1     -28.239 -11.578  32.219  0.00  0.00    +0.080 A 
ENDROOT
BRANCH   2   7
ATOM      7  C   UNL A   1     -29.482 -11.461  28.690  0.00  0.00    +0.419 C 
ATOM      8  F   UNL A   1     -28.621 -11.763  28.071  0.00  0.00    -0.166 F 
ATOM      9  F   UNL A   1     -30.092 -10.377  28.105  0.00  0.00    -0.166 F 
ATOM     10  F   UNL A   1     -30.523 -12.419  28.647  0.00  0.00    -0.166 F 
ENDBRANCH   2   7
BRANCH   6  11
ATOM     11  C   UNL A   1     -27.370 -12.373  33.107  0.00  0.00    +0.388 C 
ATOM     12  O   UNL A   1     -26.434 -13.044  32.670  0.00  0.00    -0.241 OA
ATOM     13  O   UNL A   1     -27.348 -12.126  34.392  0.00  0.00    -0.241 OA
ENDBRANCH   6  11
TORSDOF 2
ENDMDL
ENDMDL
