MODEL 2111
MODEL 1
REMARK VINA RESULT:    -6.427      0.000      0.000
REMARK INTER + INTRA:         -14.696
REMARK INTER:                 -12.063
REMARK INTRA:                  -2.633
REMARK UNBOUND:                -2.633
REMARK  Name = No_2111-gen_results/8p0m/2024-11-26-14-13-15/
REMARK  15 active torsions:
REMARK  status: ('A' for Active; 'I' for Inactive)
REMARK    1  A    between atoms: N_1  and  C_3
REMARK    2  A    between atoms: C_2  and  C_10
REMARK    3  A    between atoms: C_6  and  C_7
REMARK    4  A    between atoms: C_8  and  C_17
REMARK    5  A    between atoms: C_17  and  C_18
REMARK    6  A    between atoms: C_18  and  C_19
REMARK    7  A    between atoms: C_19  and  C_20
REMARK    8  A    between atoms: C_19  and  O_28
REMARK    9  A    between atoms: C_20  and  O_21
REMARK   10  A    between atoms: O_21  and  C_22
REMARK   11  A    between atoms: O_28  and  C_29
REMARK   12  A    between atoms: C_29  and  C_30
REMARK   13  A    between atoms: C_30  and  C_31
REMARK   14  A    between atoms: C_31  and  C_32
REMARK   15  A    between atoms: C_31  and  C_34
REMARK                            x       y       z     vdW  Elec       q    Type
REMARK                         _______ _______ _______ _____ _____    ______ ____
ROOT
ATOM      1  C   UNL A   1     -26.463 -12.284   7.063  0.00  0.00    +0.038 C 
ENDROOT
BRANCH   1   2
ATOM      2  C   UNL A   1     -26.263 -13.160   5.945  0.00  0.00    +0.029 C 
BRANCH   2   7
ATOM      3  C   UNL A   1     -22.516 -13.814   5.193  0.00  0.00    +0.074 A 
ATOM      4  C   UNL A   1     -22.461 -15.190   5.586  0.00  0.00    +0.017 A 
ATOM      5  C   UNL A   1     -23.488 -15.807   6.081  0.00  0.00    +0.006 A 
ATOM      6  C   UNL A   1     -24.775 -15.187   6.240  0.00  0.00    +0.051 A 
ATOM      7  C   UNL A   1     -25.008 -13.823   5.866  0.00  0.00    -0.016 A 
ATOM      8  C   UNL A   1     -23.847 -13.186   5.300  0.00  0.00    +0.013 A 
BRANCH   6   9
ATOM      9  C   UNL A   1     -25.896 -15.908   6.775  0.00  0.00    +0.265 C 
ATOM     10  N   UNL A   1     -26.749 -16.629   6.111  0.00  0.00    -0.200 NA
ATOM     11  O   UNL A   1     -26.020 -15.999   8.099  0.00  0.00    -0.268 OA
ATOM     12  C   UNL A   1     -26.680 -16.661   4.648  0.00  0.00    +0.139 C 
ENDBRANCH   6   9
BRANCH   3  13
ATOM     13  N   UNL A   1     -21.511 -13.042   4.685  0.00  0.00    -0.170 NA
ATOM     14  C   UNL A   1     -21.344 -13.148   3.605  0.00  0.00    +0.349 C 
ATOM     15  O   UNL A   1     -21.622 -13.841   2.551  0.00  0.00    -0.261 OA
BRANCH  14  16
ATOM     16  C   UNL A   1     -20.175 -12.253   3.040  0.00  0.00    +0.442 C 
ATOM     17  O   UNL A   1     -19.366 -12.750   2.219  0.00  0.00    -0.235 OA
ATOM     18  O   UNL A   1     -20.108 -11.064   3.356  0.00  0.00    -0.235 OA
ENDBRANCH  14  16
ENDBRANCH   3  13
ENDBRANCH   2   7
ENDBRANCH   1   2
BRANCH   1  19
ATOM     19  C   UNL A   1     -27.693 -12.150   7.650  0.00  0.00    +0.159 C 
BRANCH  19  20
ATOM     20  C   UNL A   1     -28.549 -13.272   7.438  0.00  0.00    +0.235 C 
BRANCH  20  21
ATOM     21  O   UNL A   1     -28.485 -14.158   8.434  0.00  0.00    -0.473 OA
BRANCH  21  22
ATOM     22  C   UNL A   1     -29.484 -14.340   9.227  0.00  0.00    +0.139 A 
ATOM     23  C   UNL A   1     -30.804 -14.229   8.608  0.00  0.00    +0.037 A 
ATOM     24  C   UNL A   1     -31.858 -13.861   9.392  0.00  0.00    +0.003 A 
ATOM     25  C   UNL A   1     -29.536 -15.595  10.070  0.00  0.00    +0.037 A 
ATOM     26  C   UNL A   1     -30.648 -15.515  11.123  0.00  0.00    +0.003 A 
ATOM     27  C   UNL A   1     -32.004 -15.128  10.442  0.00  0.00    +0.000 A 
ENDBRANCH  21  22
ENDBRANCH  20  21
ENDBRANCH  19  20
BRANCH  19  28
ATOM     28  O   UNL A   1     -27.637 -11.662   9.006  0.00  0.00    -0.352 OA
BRANCH  28  29
ATOM     29  C   UNL A   1     -28.206 -10.568   9.340  0.00  0.00    +0.143 C 
BRANCH  29  30
ATOM     30  C   UNL A   1     -29.564 -10.735   9.413  0.00  0.00    +0.041 C 
BRANCH  30  31
ATOM     31  C   UNL A   1     -30.186 -10.792  10.684  0.00  0.00    +0.046 C 
BRANCH  31  32
ATOM     32  C   UNL A   1     -31.150 -10.238  10.957  0.00  0.00    -0.022 C 
ATOM     33  C   UNL A   1     -32.372 -10.262  10.071  0.00  0.00    -0.005 C 
ENDBRANCH  31  32
BRANCH  31  34
ATOM     34  C   UNL A   1     -29.631 -11.729  11.693  0.00  0.00    -0.022 C 
ATOM     35  C   UNL A   1     -30.301 -12.184  12.767  0.00  0.00    -0.005 C 
ENDBRANCH  31  34
ENDBRANCH  30  31
ENDBRANCH  29  30
ENDBRANCH  28  29
ENDBRANCH  19  28
ENDBRANCH   1  19
TORSDOF 15
ENDMDL
ENDMDL
