REMARK  Name = No_2111-gen_results/8p0m/2024-11-26-14-13-15/
REMARK  15 active torsions:
REMARK  status: ('A' for Active; 'I' for Inactive)
REMARK    1  A    between atoms: N_1  and  C_3
REMARK    2  A    between atoms: C_2  and  C_10
REMARK    3  A    between atoms: C_6  and  C_7
REMARK    4  A    between atoms: C_8  and  C_17
REMARK    5  A    between atoms: C_17  and  C_18
REMARK    6  A    between atoms: C_18  and  C_19
REMARK    7  A    between atoms: C_19  and  C_20
REMARK    8  A    between atoms: C_19  and  O_28
REMARK    9  A    between atoms: C_20  and  O_21
REMARK   10  A    between atoms: O_21  and  C_22
REMARK   11  A    between atoms: O_28  and  C_29
REMARK   12  A    between atoms: C_29  and  C_30
REMARK   13  A    between atoms: C_30  and  C_31
REMARK   14  A    between atoms: C_31  and  C_32
REMARK   15  A    between atoms: C_31  and  C_34
REMARK                            x       y       z     vdW  Elec       q    Type
REMARK                         _______ _______ _______ _____ _____    ______ ____
ROOT
ATOM      1  C   UNL A   1     -25.808   2.640  31.296  0.00  0.00    +0.038 C 
ENDROOT
BRANCH   1   2
ATOM      2  C   UNL A   1     -24.744   2.138  30.476  0.00  0.00    +0.029 C 
BRANCH   2   7
ATOM      3  C   UNL A   1     -26.778  -0.581  28.603  0.00  0.00    +0.074 A 
ATOM      4  C   UNL A   1     -25.756  -1.022  27.702  0.00  0.00    +0.017 A 
ATOM      5  C   UNL A   1     -24.582  -0.473  27.669  0.00  0.00    +0.006 A 
ATOM      6  C   UNL A   1     -24.187   0.589  28.552  0.00  0.00    +0.051 A 
ATOM      7  C   UNL A   1     -25.081   1.126  29.536  0.00  0.00    -0.016 A 
ATOM      8  C   UNL A   1     -26.363   0.471  29.552  0.00  0.00    +0.013 A 
BRANCH   6   9
ATOM      9  C   UNL A   1     -22.871   1.161  28.499  0.00  0.00    +0.265 C 
ATOM     10  N   UNL A   1     -21.758   0.594  28.859  0.00  0.00    -0.200 NA
ATOM     11  O   UNL A   1     -22.710   2.331  27.881  0.00  0.00    -0.268 OA
ATOM     12  C   UNL A   1     -21.796  -0.725  29.497  0.00  0.00    +0.139 C 
ENDBRANCH   6   9
BRANCH   3  13
ATOM     13  N   UNL A   1     -28.054  -1.050  28.725  0.00  0.00    -0.170 NA
ATOM     14  C   UNL A   1     -28.654  -0.567  29.508  0.00  0.00    +0.349 C 
ATOM     15  O   UNL A   1     -28.627   0.221  30.531  0.00  0.00    -0.261 OA
BRANCH  14  16
ATOM     16  C   UNL A   1     -30.122  -1.129  29.637  0.00  0.00    +0.442 C 
ATOM     17  O   UNL A   1     -30.901  -0.618  30.479  0.00  0.00    -0.235 OA
ATOM     18  O   UNL A   1     -30.508  -2.011  28.869  0.00  0.00    -0.235 OA
ENDBRANCH  14  16
ENDBRANCH   3  13
ENDBRANCH   2   7
ENDBRANCH   1   2
BRANCH   1  19
ATOM     19  C   UNL A   1     -25.573   3.566  32.277  0.00  0.00    +0.159 C 
BRANCH  19  20
ATOM     20  C   UNL A   1     -24.827   4.696  31.825  0.00  0.00    +0.235 C 
BRANCH  20  21
ATOM     21  O   UNL A   1     -25.592   5.776  31.651  0.00  0.00    -0.473 OA
BRANCH  21  22
ATOM     22  C   UNL A   1     -25.296   6.664  30.765  0.00  0.00    +0.139 A 
ATOM     23  C   UNL A   1     -25.851   6.430  29.433  0.00  0.00    +0.037 A 
ATOM     24  C   UNL A   1     -25.192   6.947  28.357  0.00  0.00    +0.003 A 
ATOM     25  C   UNL A   1     -25.564   8.122  31.066  0.00  0.00    +0.037 A 
ATOM     26  C   UNL A   1     -24.919   9.036  30.017  0.00  0.00    +0.003 A 
ATOM     27  C   UNL A   1     -25.334   8.578  28.579  0.00  0.00    +0.000 A 
ENDBRANCH  21  22
ENDBRANCH  20  21
ENDBRANCH  19  20
BRANCH  19  28
ATOM     28  O   UNL A   1     -26.734   3.871  33.076  0.00  0.00    -0.352 OA
BRANCH  28  29
ATOM     29  C   UNL A   1     -27.051   3.155  34.085  0.00  0.00    +0.143 C 
BRANCH  29  30
ATOM     30  C   UNL A   1     -28.016   2.244  33.744  0.00  0.00    +0.041 C 
BRANCH  30  31
ATOM     31  C   UNL A   1     -29.379   2.621  33.816  0.00  0.00    +0.046 C 
BRANCH  31  32
ATOM     32  C   UNL A   1     -29.745   3.694  33.973  0.00  0.00    -0.022 C 
ATOM     33  C   UNL A   1     -31.205   4.069  33.887  0.00  0.00    -0.005 C 
ENDBRANCH  31  32
BRANCH  31  34
ATOM     34  C   UNL A   1     -30.407   1.585  33.544  0.00  0.00    -0.022 C 
ATOM     35  C   UNL A   1     -31.725   1.825  33.428  0.00  0.00    -0.005 C 
ENDBRANCH  31  34
ENDBRANCH  30  31
ENDBRANCH  29  30
ENDBRANCH  28  29
ENDBRANCH  19  28
ENDBRANCH   1  19
TORSDOF 15
