MODEL 2112
MODEL 1
REMARK VINA RESULT:    -5.613      0.000      0.000
REMARK INTER + INTRA:          -6.657
REMARK INTER:                  -6.270
REMARK INTRA:                  -0.388
REMARK UNBOUND:                -0.388
REMARK  Name = No_2112-gen_results/8p0m/2024-11-26-14-13-15/
REMARK  2 active torsions:
REMARK  status: ('A' for Active; 'I' for Inactive)
REMARK    1  A    between atoms: C_4  and  C_12
REMARK    2  A    between atoms: C_5  and  C_6
REMARK                            x       y       z     vdW  Elec       q    Type
REMARK                         _______ _______ _______ _____ _____    ______ ____
ROOT
ATOM      1  C   UNL A   1     -22.286   2.156  27.061  0.00  0.00    +0.001 C 
ATOM      2  C   UNL A   1     -21.872   1.255  27.419  0.00  0.00    +0.009 C 
ATOM      3  C   UNL A   1     -23.605   2.021  26.334  0.00  0.00    +0.004 C 
ATOM      4  C   UNL A   1     -24.623   1.316  26.957  0.00  0.00    +0.019 C 
ATOM      5  C   UNL A   1     -22.670   0.350  28.424  0.00  0.00    +0.096 C 
ATOM      6  C   UNL A   1     -23.993   0.047  27.551  0.00  0.00    +0.013 C 
ATOM      7  C   UNL A   1     -25.441   2.095  27.937  0.00  0.00    +0.004 C 
ENDROOT
BRANCH   5   8
ATOM      8  C   UNL A   1     -22.072  -0.664  29.163  0.00  0.00    +0.398 C 
ATOM      9  F   UNL A   1     -22.686  -1.803  28.900  0.00  0.00    -0.170 F 
ATOM     10  F   UNL A   1     -20.814  -0.873  28.778  0.00  0.00    -0.170 F 
ATOM     11  F   UNL A   1     -22.109  -0.388  30.457  0.00  0.00    -0.170 F 
ENDBRANCH   5   8
BRANCH   4  12
ATOM     12  C   UNL A   1     -25.561   0.765  25.812  0.00  0.00    -0.027 C 
ATOM     13  C   UNL A   1     -24.974   0.164  24.821  0.00  0.00    -0.005 C 
ENDBRANCH   4  12
TORSDOF 2
ENDMDL
ENDMDL
