REMARK  Name = No_2112-gen_results/8p0m/2024-11-26-14-13-15/
REMARK  2 active torsions:
REMARK  status: ('A' for Active; 'I' for Inactive)
REMARK    1  A    between atoms: C_4  and  C_12
REMARK    2  A    between atoms: C_5  and  C_6
REMARK                            x       y       z     vdW  Elec       q    Type
REMARK                         _______ _______ _______ _____ _____    ______ ____
ROOT
ATOM      1  C   UNL A   1     -28.016  -0.814  28.878  0.00  0.00    +0.001 C 
ATOM      2  C   UNL A   1     -28.469  -0.785  29.829  0.00  0.00    +0.009 C 
ATOM      3  C   UNL A   1     -26.504  -0.778  28.877  0.00  0.00    +0.004 C 
ATOM      4  C   UNL A   1     -25.831  -1.681  29.685  0.00  0.00    +0.019 C 
ATOM      5  C   UNL A   1     -28.149  -1.885  30.903  0.00  0.00    +0.096 C 
ATOM      6  C   UNL A   1     -26.552  -1.697  31.041  0.00  0.00    +0.013 C 
ATOM      7  C   UNL A   1     -25.626  -3.042  29.099  0.00  0.00    +0.004 C 
ENDROOT
BRANCH   5   8
ATOM      8  C   UNL A   1     -28.930  -2.083  32.036  0.00  0.00    +0.398 C 
ATOM      9  F   UNL A   1     -28.983  -3.375  32.298  0.00  0.00    -0.170 F 
ATOM     10  F   UNL A   1     -28.364  -1.551  33.119  0.00  0.00    -0.170 F 
ATOM     11  F   UNL A   1     -30.142  -1.579  31.866  0.00  0.00    -0.170 F 
ENDBRANCH   5   8
BRANCH   4  12
ATOM     12  C   UNL A   1     -24.428  -1.037  30.017  0.00  0.00    -0.027 C 
ATOM     13  C   UNL A   1     -23.434  -1.390  29.258  0.00  0.00    -0.005 C 
ENDBRANCH   4  12
TORSDOF 2
