MODEL 2113
MODEL 1
REMARK VINA RESULT:    -7.477      0.000      0.000
REMARK INTER + INTRA:         -10.835
REMARK INTER:                  -9.662
REMARK INTRA:                  -1.173
REMARK UNBOUND:                -1.173
REMARK  Name = No_2113-gen_results/8p0m/2024-11-26-14-13-15/
REMARK  5 active torsions:
REMARK  status: ('A' for Active; 'I' for Inactive)
REMARK    1  A    between atoms: C_3  and  C_7
REMARK    2  A    between atoms: C_5  and  C_19
REMARK    3  A    between atoms: C_7  and  C_8
REMARK    4  A    between atoms: C_7  and  C_15
REMARK    5  A    between atoms: C_8  and  C_9
REMARK                            x       y       z     vdW  Elec       q    Type
REMARK                         _______ _______ _______ _____ _____    ______ ____
ROOT
ATOM      1  C   UNL A   1     -23.814  -1.254  29.158  0.00  0.00    +0.187 C 
ENDROOT
BRANCH   1   4
ATOM      2  C   UNL A   1     -23.825  -3.823  28.720  0.00  0.00    -0.003 A 
ATOM      3  C   UNL A   1     -24.351  -4.725  28.860  0.00  0.00    -0.000 A 
ATOM      4  C   UNL A   1     -24.465  -2.634  29.206  0.00  0.00    -0.004 A 
ATOM      5  C   UNL A   1     -25.721  -2.616  29.661  0.00  0.00    +0.003 A 
ATOM      6  C   UNL A   1     -26.357  -3.824  29.738  0.00  0.00    +0.080 A 
ATOM      7  C   UNL A   1     -25.678  -4.962  29.305  0.00  0.00    +0.007 A 
BRANCH   6   8
ATOM      8  C   UNL A   1     -27.771  -3.935  30.254  0.00  0.00    +0.388 C 
ATOM      9  O   UNL A   1     -28.174  -4.859  30.786  0.00  0.00    -0.241 OA
ATOM     10  O   UNL A   1     -28.357  -2.783  30.330  0.00  0.00    -0.241 OA
ENDBRANCH   6   8
ENDBRANCH   1   4
BRANCH   1  11
ATOM     11  C   UNL A   1     -22.560  -1.034  29.558  0.00  0.00    +0.376 C 
ATOM     12  O   UNL A   1     -21.633  -1.123  28.860  0.00  0.00    -0.245 OA
ATOM     13  O   UNL A   1     -22.400  -0.747  30.802  0.00  0.00    -0.245 OA
ENDBRANCH   1  11
BRANCH   1  14
ATOM     14  C   UNL A   1     -24.656  -0.222  28.663  0.00  0.00    +0.188 C 
ATOM     15  O   UNL A   1     -25.008   0.730  29.520  0.00  0.00    -0.290 OA
BRANCH  14  16
ATOM     16  C   UNL A   1     -24.735   0.136  27.373  0.00  0.00    +0.036 A 
ATOM     17  C   UNL A   1     -24.068   0.932  26.800  0.00  0.00    +0.003 A 
ATOM     18  C   UNL A   1     -23.801   1.336  25.802  0.00  0.00    +0.000 A 
ATOM     19  C   UNL A   1     -24.672   0.663  24.716  0.00  0.00    +0.000 A 
ATOM     20  C   UNL A   1     -25.551  -0.321  25.162  0.00  0.00    +0.000 A 
ATOM     21  C   UNL A   1     -25.626  -0.645  26.507  0.00  0.00    +0.003 A 
ENDBRANCH  14  16
ENDBRANCH   1  14
TORSDOF 5
ENDMDL
ENDMDL
