REMARK  Name = No_2113-gen_results/8p0m/2024-11-26-14-13-15/
REMARK  5 active torsions:
REMARK  status: ('A' for Active; 'I' for Inactive)
REMARK    1  A    between atoms: C_3  and  C_7
REMARK    2  A    between atoms: C_5  and  C_19
REMARK    3  A    between atoms: C_7  and  C_8
REMARK    4  A    between atoms: C_7  and  C_15
REMARK    5  A    between atoms: C_8  and  C_9
REMARK                            x       y       z     vdW  Elec       q    Type
REMARK                         _______ _______ _______ _____ _____    ______ ____
ROOT
ATOM      1  C   UNL A   1     -27.546   0.510  26.683  0.00  0.00    +0.187 C 
ENDROOT
BRANCH   1   4
ATOM      2  C   UNL A   1     -28.016  -0.814  28.878  0.00  0.00    -0.003 A 
ATOM      3  C   UNL A   1     -28.469  -0.785  29.829  0.00  0.00    -0.000 A 
ATOM      4  C   UNL A   1     -28.196   0.348  28.055  0.00  0.00    -0.004 A 
ATOM      5  C   UNL A   1     -29.019   1.350  28.378  0.00  0.00    +0.003 A 
ATOM      6  C   UNL A   1     -29.625   1.268  29.601  0.00  0.00    +0.080 A 
ATOM      7  C   UNL A   1     -29.379   0.147  30.392  0.00  0.00    +0.007 A 
BRANCH   6   8
ATOM      8  C   UNL A   1     -30.561   2.349  30.086  0.00  0.00    +0.388 C 
ATOM      9  O   UNL A   1     -30.550   2.756  31.151  0.00  0.00    -0.241 OA
ATOM     10  O   UNL A   1     -31.128   2.982  29.109  0.00  0.00    -0.241 OA
ENDBRANCH   6   8
ENDBRANCH   1   4
BRANCH   1  11
ATOM     11  C   UNL A   1     -28.254   0.645  25.561  0.00  0.00    +0.376 C 
ATOM     12  O   UNL A   1     -29.193   1.326  25.465  0.00  0.00    -0.245 OA
ATOM     13  O   UNL A   1     -27.873  -0.065  24.557  0.00  0.00    -0.245 OA
ENDBRANCH   1  11
BRANCH   1  14
ATOM     14  C   UNL A   1     -26.125   0.495  26.699  0.00  0.00    +0.188 C 
ATOM     15  O   UNL A   1     -25.521  -0.190  25.734  0.00  0.00    -0.290 OA
BRANCH  14  16
ATOM     16  C   UNL A   1     -25.365   1.442  27.268  0.00  0.00    +0.036 A 
ATOM     17  C   UNL A   1     -25.646   2.578  27.459  0.00  0.00    +0.003 A 
ATOM     18  C   UNL A   1     -25.338   3.510  27.975  0.00  0.00    +0.000 A 
ATOM     19  C   UNL A   1     -23.975   3.295  28.673  0.00  0.00    +0.000 A 
ATOM     20  C   UNL A   1     -23.436   2.014  28.578  0.00  0.00    +0.000 A 
ATOM     21  C   UNL A   1     -24.101   1.018  27.881  0.00  0.00    +0.003 A 
ENDBRANCH  14  16
ENDBRANCH   1  14
TORSDOF 5
