REMARK  Name = No_2114-gen_results/8p0m/2024-11-26-14-13-15/
REMARK  7 active torsions:
REMARK  status: ('A' for Active; 'I' for Inactive)
REMARK    1  A    between atoms: N_4  and  C_8
REMARK    2  A    between atoms: C_5  and  C_13
REMARK    3  A    between atoms: C_8  and  C_9
REMARK    4  A    between atoms: C_8  and  C_21
REMARK    5  A    between atoms: C_13  and  C_14
REMARK    6  A    between atoms: C_21  and  O_22
REMARK    7  A    between atoms: O_22  and  C_23
REMARK                            x       y       z     vdW  Elec       q    Type
REMARK                         _______ _______ _______ _____ _____    ______ ____
ROOT
ATOM      1  O   UNL A   1     -28.123  -1.335  28.487  0.00  0.00    -0.275 OA
ATOM      2  C   UNL A   1     -27.481  -0.404  28.709  0.00  0.00    +0.226 C 
ATOM      3  C   UNL A   1     -26.380  -0.087  27.939  0.00  0.00    +0.086 C 
ATOM      4  N   UNL A   1     -27.423   0.175  30.055  0.00  0.00    -0.270 N 
ATOM      5  C   UNL A   1     -25.848   1.005  27.994  0.00  0.00    +0.015 C 
ATOM      6  C   UNL A   1     -25.811   1.741  29.284  0.00  0.00    +0.022 C 
ATOM      7  C   UNL A   1     -26.748   1.315  30.232  0.00  0.00    +0.094 C 
ENDROOT
BRANCH   5   8
ATOM      8  C   UNL A   1     -24.796   1.506  27.009  0.00  0.00    +0.023 C 
ATOM      9  C   UNL A   1     -25.348   1.910  25.784  0.00  0.00    +0.005 C 
BRANCH   8  10
ATOM     10  C   UNL A   1     -23.535   1.663  27.356  0.00  0.00    -0.022 A 
ATOM     11  C   UNL A   1     -22.995   1.458  28.664  0.00  0.00    -0.004 A 
ATOM     12  C   UNL A   1     -21.548   1.427  28.766  0.00  0.00    -0.000 A 
ATOM     13  C   UNL A   1     -20.905   0.824  27.904  0.00  0.00    -0.000 A 
ATOM     14  C   UNL A   1     -21.186   1.168  26.629  0.00  0.00    -0.000 A 
ATOM     15  C   UNL A   1     -22.547   1.323  26.309  0.00  0.00    -0.004 A 
ENDBRANCH   8  10
ENDBRANCH   5   8
BRANCH   4  16
ATOM     16  C   UNL A   1     -28.399  -0.271  30.995  0.00  0.00    +0.214 C 
BRANCH  16  17
ATOM     17  C   UNL A   1     -29.482   0.680  31.198  0.00  0.00    +0.417 C 
ATOM     18  F   UNL A   1     -29.341   1.811  31.020  0.00  0.00    -0.168 F 
ATOM     19  F   UNL A   1     -29.945   0.455  32.504  0.00  0.00    -0.168 F 
ATOM     20  F   UNL A   1     -30.405   0.250  30.177  0.00  0.00    -0.168 F 
ENDBRANCH  16  17
BRANCH  16  21
ATOM     21  C   UNL A   1     -27.458  -0.405  32.283  0.00  0.00    +0.233 C 
BRANCH  21  22
ATOM     22  O   UNL A   1     -26.220  -0.781  32.179  0.00  0.00    -0.478 OA
BRANCH  22  23
ATOM     23  C   UNL A   1     -25.293  -0.187  32.972  0.00  0.00    +0.117 C 
ATOM     24  C   UNL A   1     -23.986  -0.538  32.565  0.00  0.00    +0.035 C 
ATOM     25  C   UNL A   1     -25.634   0.400  34.194  0.00  0.00    +0.072 C 
ENDBRANCH  22  23
ENDBRANCH  21  22
ENDBRANCH  16  21
ENDBRANCH   4  16
TORSDOF 7
