MODEL 2114
MODEL 1
REMARK VINA RESULT:    -6.719      0.000      0.000
REMARK INTER + INTRA:         -10.345
REMARK INTER:                  -9.469
REMARK INTRA:                  -0.876
REMARK UNBOUND:                -0.876
REMARK  Name = No_2114-gen_results/8p0m/2024-11-26-14-13-15/
REMARK  7 active torsions:
REMARK  status: ('A' for Active; 'I' for Inactive)
REMARK    1  A    between atoms: N_4  and  C_8
REMARK    2  A    between atoms: C_5  and  C_13
REMARK    3  A    between atoms: C_8  and  C_9
REMARK    4  A    between atoms: C_8  and  C_21
REMARK    5  A    between atoms: C_13  and  C_14
REMARK    6  A    between atoms: C_21  and  O_22
REMARK    7  A    between atoms: O_22  and  C_23
REMARK                            x       y       z     vdW  Elec       q    Type
REMARK                         _______ _______ _______ _____ _____    ______ ____
ROOT
ATOM      1  O   UNL A   1     -26.562   3.150  26.552  0.00  0.00    -0.275 OA
ATOM      2  C   UNL A   1     -26.494   2.177  25.937  0.00  0.00    +0.226 C 
ATOM      3  C   UNL A   1     -27.624   1.548  25.456  0.00  0.00    +0.086 C 
ATOM      4  N   UNL A   1     -25.349   1.271  26.073  0.00  0.00    -0.270 N 
ATOM      5  C   UNL A   1     -27.567   0.680  24.607  0.00  0.00    +0.015 C 
ATOM      6  C   UNL A   1     -26.403  -0.244  24.577  0.00  0.00    +0.022 C 
ATOM      7  C   UNL A   1     -25.271   0.213  25.260  0.00  0.00    +0.094 C 
ENDROOT
BRANCH   5   8
ATOM      8  C   UNL A   1     -28.772   0.120  23.858  0.00  0.00    +0.023 C 
ATOM      9  C   UNL A   1     -28.678  -1.262  23.633  0.00  0.00    +0.005 C 
BRANCH   8  10
ATOM     10  C   UNL A   1     -29.832   0.856  23.594  0.00  0.00    -0.022 A 
ATOM     11  C   UNL A   1     -29.828   2.125  22.935  0.00  0.00    -0.004 A 
ATOM     12  C   UNL A   1     -31.118   2.635  22.510  0.00  0.00    -0.000 A 
ATOM     13  C   UNL A   1     -31.926   1.855  22.001  0.00  0.00    -0.000 A 
ATOM     14  C   UNL A   1     -32.179   0.738  22.716  0.00  0.00    -0.000 A 
ATOM     15  C   UNL A   1     -31.065   0.098  23.289  0.00  0.00    -0.004 A 
ENDBRANCH   8  10
ENDBRANCH   5   8
BRANCH   4  16
ATOM     16  C   UNL A   1     -24.205   1.771  26.764  0.00  0.00    +0.214 C 
BRANCH  16  17
ATOM     17  C   UNL A   1     -23.161   2.258  25.875  0.00  0.00    +0.417 C 
ATOM     18  F   UNL A   1     -23.040   1.857  24.800  0.00  0.00    -0.168 F 
ATOM     19  F   UNL A   1     -21.958   2.103  26.582  0.00  0.00    -0.168 F 
ATOM     20  F   UNL A   1     -23.567   3.633  25.721  0.00  0.00    -0.168 F 
ENDBRANCH  16  17
BRANCH  16  21
ATOM     21  C   UNL A   1     -23.776   0.433  27.531  0.00  0.00    +0.233 C 
BRANCH  21  22
ATOM     22  O   UNL A   1     -23.738   0.379  28.827  0.00  0.00    -0.478 OA
BRANCH  22  23
ATOM     23  C   UNL A   1     -22.704  -0.268  29.420  0.00  0.00    +0.117 C 
ATOM     24  C   UNL A   1     -23.016  -0.591  30.760  0.00  0.00    +0.035 C 
ATOM     25  C   UNL A   1     -21.425  -0.289  28.855  0.00  0.00    +0.072 C 
ENDBRANCH  22  23
ENDBRANCH  21  22
ENDBRANCH  16  21
ENDBRANCH   4  16
TORSDOF 7
ENDMDL
ENDMDL
