MODEL 2117
MODEL 1
REMARK VINA RESULT:    -6.492      0.000      0.000
REMARK INTER + INTRA:          -6.943
REMARK INTER:                  -6.871
REMARK INTRA:                  -0.071
REMARK UNBOUND:                -0.071
REMARK  Name = No_2117-gen_results/8p0m/2024-11-26-14-13-15/
REMARK  1 active torsions:
REMARK  status: ('A' for Active; 'I' for Inactive)
REMARK    1  A    between atoms: C_5  and  C_6
REMARK                            x       y       z     vdW  Elec       q    Type
REMARK                         _______ _______ _______ _____ _____    ______ ____
ROOT
ATOM      1  C   UNL A   1     -30.623  -9.818  29.749  0.00  0.00    +0.000 A 
ATOM      2  C   UNL A   1     -29.872 -10.350  30.534  0.00  0.00    +0.000 A 
ATOM      3  C   UNL A   1     -28.944 -11.229  30.283  0.00  0.00    +0.000 A 
ATOM      4  C   UNL A   1     -28.037 -11.856  31.277  0.00  0.00    +0.007 A 
ATOM      5  C   UNL A   1     -28.173 -11.414  32.623  0.00  0.00    +0.080 A 
ATOM      6  C   UNL A   1     -29.876  -9.915  32.002  0.00  0.00    +0.000 A 
ATOM      7  C   UNL A   1     -29.052 -10.431  32.986  0.00  0.00    +0.007 A 
ATOM      8  C   UNL A   1     -30.812 -10.422  28.441  0.00  0.00    +0.000 A 
ATOM      9  C   UNL A   1     -29.920 -11.447  28.123  0.00  0.00    +0.000 A 
ATOM     10  C   UNL A   1     -28.950 -11.876  29.014  0.00  0.00    +0.000 A 
ENDROOT
BRANCH   5  11
ATOM     11  C   UNL A   1     -27.298 -11.937  33.608  0.00  0.00    +0.388 C 
ATOM     12  O   UNL A   1     -26.772 -12.887  33.732  0.00  0.00    -0.241 OA
ATOM     13  O   UNL A   1     -27.050 -11.014  34.624  0.00  0.00    -0.241 OA
ENDBRANCH   5  11
TORSDOF 1
ENDMDL
ENDMDL
