REMARK  Name = No_2117-gen_results/8p0m/2024-11-26-14-13-15/
REMARK  1 active torsions:
REMARK  status: ('A' for Active; 'I' for Inactive)
REMARK    1  A    between atoms: C_5  and  C_6
REMARK                            x       y       z     vdW  Elec       q    Type
REMARK                         _______ _______ _______ _____ _____    ______ ____
ROOT
ATOM      1  C   UNL A   1     -28.016  -0.814  28.878  0.00  0.00    +0.000 A 
ATOM      2  C   UNL A   1     -27.064  -0.119  28.608  0.00  0.00    +0.000 A 
ATOM      3  C   UNL A   1     -26.876   1.133  28.913  0.00  0.00    +0.000 A 
ATOM      4  C   UNL A   1     -25.688   1.952  28.567  0.00  0.00    +0.007 A 
ATOM      5  C   UNL A   1     -24.639   1.283  27.875  0.00  0.00    +0.080 A 
ATOM      6  C   UNL A   1     -25.843  -0.737  27.921  0.00  0.00    +0.000 A 
ATOM      7  C   UNL A   1     -24.690  -0.052  27.583  0.00  0.00    +0.007 A 
ATOM      8  C   UNL A   1     -29.262  -0.176  29.265  0.00  0.00    +0.000 A 
ATOM      9  C   UNL A   1     -29.178   1.194  29.517  0.00  0.00    +0.000 A 
ATOM     10  C   UNL A   1     -27.991   1.893  29.370  0.00  0.00    +0.000 A 
ENDROOT
BRANCH   5  11
ATOM     11  C   UNL A   1     -23.456   2.000  27.565  0.00  0.00    +0.388 C 
ATOM     12  O   UNL A   1     -22.391   1.759  27.591  0.00  0.00    -0.241 OA
ATOM     13  O   UNL A   1     -23.736   3.289  27.110  0.00  0.00    -0.241 OA
ENDBRANCH   5  11
TORSDOF 1
