MODEL 2118
MODEL 1
REMARK VINA RESULT:    -8.482      0.000      0.000
REMARK INTER + INTRA:          -9.085
REMARK INTER:                  -8.978
REMARK INTRA:                  -0.106
REMARK UNBOUND:                -0.106
REMARK  Name = No_2118-gen_results/8p0m/2024-11-26-14-13-15/
REMARK  1 active torsions:
REMARK  status: ('A' for Active; 'I' for Inactive)
REMARK    1  A    between atoms: C_8  and  C_19
REMARK                            x       y       z     vdW  Elec       q    Type
REMARK                         _______ _______ _______ _____ _____    ______ ____
ROOT
ATOM      1  C   UNL A   1     -28.332 -11.594  30.941  0.00  0.00    +0.007 A 
ATOM      2  C   UNL A   1     -29.207 -10.978  30.379  0.00  0.00    +0.000 A 
ATOM      3  C   UNL A   1     -29.841  -9.905  30.997  0.00  0.00    +0.000 A 
ATOM      4  C   UNL A   1     -30.936  -9.076  30.416  0.00  0.00    +0.000 A 
ATOM      5  C   UNL A   1     -31.243  -9.319  29.045  0.00  0.00    +0.000 A 
ATOM      6  C   UNL A   1     -30.545 -10.372  28.419  0.00  0.00    +0.000 A 
ATOM      7  C   UNL A   1     -29.589 -11.272  29.053  0.00  0.00    +0.000 A 
ATOM      8  C   UNL A   1     -28.247 -11.621  32.454  0.00  0.00    +0.080 A 
ATOM      9  C   UNL A   1     -28.781 -10.453  33.105  0.00  0.00    +0.007 A 
ATOM     10  C   UNL A   1     -29.681  -9.635  32.423  0.00  0.00    +0.000 A 
ATOM     11  C   UNL A   1     -31.594  -7.950  31.057  0.00  0.00    +0.000 A 
ATOM     12  C   UNL A   1     -32.164  -6.943  30.308  0.00  0.00    +0.000 A 
ATOM     13  C   UNL A   1     -32.471  -7.178  28.939  0.00  0.00    +0.000 A 
ATOM     14  C   UNL A   1     -32.016  -8.371  28.287  0.00  0.00    +0.000 A 
ATOM     15  C   UNL A   1     -28.954 -12.273  28.266  0.00  0.00    +0.000 A 
ATOM     16  C   UNL A   1     -28.972 -12.228  26.977  0.00  0.00    +0.000 A 
ATOM     17  C   UNL A   1     -30.074 -11.498  26.276  0.00  0.00    +0.000 A 
ATOM     18  C   UNL A   1     -30.802 -10.565  26.982  0.00  0.00    +0.000 A 
ENDROOT
BRANCH   8  19
ATOM     19  C   UNL A   1     -27.252 -12.404  33.146  0.00  0.00    +0.388 C 
ATOM     20  O   UNL A   1     -26.516 -13.036  32.671  0.00  0.00    -0.241 OA
ATOM     21  O   UNL A   1     -27.349 -12.427  34.492  0.00  0.00    -0.241 OA
ENDBRANCH   8  19
TORSDOF 1
ENDMDL
ENDMDL
