REMARK  Name = No_2118-gen_results/8p0m/2024-11-26-14-13-15/
REMARK  1 active torsions:
REMARK  status: ('A' for Active; 'I' for Inactive)
REMARK    1  A    between atoms: C_8  and  C_19
REMARK                            x       y       z     vdW  Elec       q    Type
REMARK                         _______ _______ _______ _____ _____    ______ ____
ROOT
ATOM      1  C   UNL A   1     -28.016  -0.814  28.878  0.00  0.00    +0.007 A 
ATOM      2  C   UNL A   1     -27.064  -0.119  28.608  0.00  0.00    +0.000 A 
ATOM      3  C   UNL A   1     -25.792  -0.430  29.076  0.00  0.00    +0.000 A 
ATOM      4  C   UNL A   1     -24.546   0.349  28.823  0.00  0.00    +0.000 A 
ATOM      5  C   UNL A   1     -24.659   1.420  27.888  0.00  0.00    +0.000 A 
ATOM      6  C   UNL A   1     -25.947   1.681  27.379  0.00  0.00    +0.000 A 
ATOM      7  C   UNL A   1     -27.180   1.003  27.761  0.00  0.00    +0.000 A 
ATOM      8  C   UNL A   1     -28.015  -1.690  30.115  0.00  0.00    +0.080 A 
ATOM      9  C   UNL A   1     -26.711  -2.131  30.536  0.00  0.00    +0.007 A 
ATOM     10  C   UNL A   1     -25.579  -1.435  30.114  0.00  0.00    +0.000 A 
ATOM     11  C   UNL A   1     -23.215   0.021  29.304  0.00  0.00    +0.000 A 
ATOM     12  C   UNL A   1     -22.093   0.435  28.619  0.00  0.00    +0.000 A 
ATOM     13  C   UNL A   1     -22.198   1.502  27.684  0.00  0.00    +0.000 A 
ATOM     14  C   UNL A   1     -23.483   2.011  27.305  0.00  0.00    +0.000 A 
ATOM     15  C   UNL A   1     -28.399   1.376  27.128  0.00  0.00    +0.000 A 
ATOM     16  C   UNL A   1     -28.409   2.073  26.043  0.00  0.00    +0.000 A 
ATOM     17  C   UNL A   1     -27.250   2.963  25.724  0.00  0.00    +0.000 A 
ATOM     18  C   UNL A   1     -26.045   2.730  26.351  0.00  0.00    +0.000 A 
ENDROOT
BRANCH   8  19
ATOM     19  C   UNL A   1     -29.166  -2.475  30.492  0.00  0.00    +0.388 C 
ATOM     20  O   UNL A   1     -30.181  -2.109  30.538  0.00  0.00    -0.241 OA
ATOM     21  O   UNL A   1     -28.910  -3.724  30.933  0.00  0.00    -0.241 OA
ENDBRANCH   8  19
TORSDOF 1
