MODEL 2119
MODEL 1
REMARK VINA RESULT:    -6.834      0.000      0.000
REMARK INTER + INTRA:          -6.834
REMARK INTER:                  -6.834
REMARK INTRA:                   0.000
REMARK UNBOUND:                 0.000
REMARK  Name = No_2119-gen_results/8p0m/2024-11-26-14-13-15/
REMARK  0 active torsions:
REMARK  status: ('A' for Active; 'I' for Inactive)
REMARK                            x       y       z     vdW  Elec       q    Type
REMARK                         _______ _______ _______ _____ _____    ______ ____
ROOT
ATOM      1  C   UNL A   1     -26.064  -1.049  30.898  0.00  0.00    +0.032 C 
ATOM      2  C   UNL A   1     -25.052  -0.804  30.281  0.00  0.00    -0.007 A 
ATOM      3  C   UNL A   1     -23.789  -0.690  30.835  0.00  0.00    -0.003 A 
ATOM      4  C   UNL A   1     -22.580  -0.320  30.138  0.00  0.00    -0.000 A 
ATOM      5  C   UNL A   1     -22.656  -0.047  28.752  0.00  0.00    +0.001 A 
ATOM      6  C   UNL A   1     -23.961  -0.126  28.156  0.00  0.00    +0.016 A 
ATOM      7  C   UNL A   1     -25.098  -0.452  28.840  0.00  0.00    +0.067 A 
ATOM      8  C   UNL A   1     -26.733  -2.300  30.548  0.00  0.00    +0.032 C 
ATOM      9  C   UNL A   1     -26.077  -3.205  29.985  0.00  0.00    -0.007 A 
ATOM     10  C   UNL A   1     -26.238  -4.322  29.702  0.00  0.00    -0.003 A 
ATOM     11  C   UNL A   1     -25.351  -5.305  28.990  0.00  0.00    -0.000 A 
ATOM     12  C   UNL A   1     -24.085  -4.760  28.631  0.00  0.00    +0.001 A 
ATOM     13  C   UNL A   1     -23.827  -3.438  28.849  0.00  0.00    +0.016 A 
ATOM     14  C   UNL A   1     -24.718  -2.684  29.415  0.00  0.00    +0.067 A 
ATOM     15  N   UNL A   1     -24.396  -1.523  29.234  0.00  0.00    -0.213 NA
ENDROOT
TORSDOF 0
ENDMDL
ENDMDL
