REMARK  Name = No_2119-gen_results/8p0m/2024-11-26-14-13-15/
REMARK  0 active torsions:
REMARK  status: ('A' for Active; 'I' for Inactive)
REMARK                            x       y       z     vdW  Elec       q    Type
REMARK                         _______ _______ _______ _____ _____    ______ ____
ROOT
ATOM      1  C   UNL A   1     -28.016  -0.814  28.878  0.00  0.00    +0.032 C 
ATOM      2  C   UNL A   1     -27.064  -0.119  28.608  0.00  0.00    -0.007 A 
ATOM      3  C   UNL A   1     -26.972   0.714  27.506  0.00  0.00    -0.003 A 
ATOM      4  C   UNL A   1     -25.820   1.491  27.116  0.00  0.00    -0.000 A 
ATOM      5  C   UNL A   1     -24.656   1.424  27.918  0.00  0.00    +0.001 A 
ATOM      6  C   UNL A   1     -24.711   0.542  29.051  0.00  0.00    +0.016 A 
ATOM      7  C   UNL A   1     -25.804  -0.206  29.388  0.00  0.00    +0.067 A 
ATOM      8  C   UNL A   1     -28.696  -0.499  30.133  0.00  0.00    +0.032 C 
ATOM      9  C   UNL A   1     -28.558   0.641  30.630  0.00  0.00    -0.007 A 
ATOM     10  C   UNL A   1     -29.034   1.254  31.497  0.00  0.00    -0.003 A 
ATOM     11  C   UNL A   1     -28.749   2.638  32.010  0.00  0.00    -0.000 A 
ATOM     12  C   UNL A   1     -27.730   3.309  31.274  0.00  0.00    +0.001 A 
ATOM     13  C   UNL A   1     -27.055   2.649  30.289  0.00  0.00    +0.016 A 
ATOM     14  C   UNL A   1     -27.363   1.423  29.996  0.00  0.00    +0.067 A 
ATOM     15  N   UNL A   1     -26.459   0.961  29.323  0.00  0.00    -0.213 NA
ENDROOT
TORSDOF 0
