MODEL 211
MODEL 1
REMARK VINA RESULT:    -6.219      0.000      0.000
REMARK INTER + INTRA:          -7.587
REMARK INTER:                  -7.309
REMARK INTRA:                  -0.277
REMARK UNBOUND:                -0.277
REMARK  Name = No_211-gen_results/8p0m/2024-11-26-14-13-15/
REMARK  3 active torsions:
REMARK  status: ('A' for Active; 'I' for Inactive)
REMARK    1  A    between atoms: C_2  and  C_7
REMARK    2  A    between atoms: N_9  and  C_10
REMARK    3  A    between atoms: C_13  and  C_16
REMARK                            x       y       z     vdW  Elec       q    Type
REMARK                         _______ _______ _______ _____ _____    ______ ____
ROOT
ATOM      1  C   UNL A   1      -9.586   0.625  35.426  0.00  0.00    +0.269 C 
ATOM      2  O   UNL A   1      -9.241   0.497  36.476  0.00  0.00    -0.268 OA
ATOM      3  N   UNL A   1      -8.750   0.529  34.326  0.00  0.00    -0.175 NA
ENDROOT
BRANCH   1   5
ATOM      4  C   UNL A   1     -11.374   1.495  34.308  0.00  0.00    +0.005 A 
ATOM      5  C   UNL A   1     -11.034   1.307  35.287  0.00  0.00    +0.055 A 
ATOM      6  C   UNL A   1     -12.733   2.150  34.206  0.00  0.00    +0.000 A 
ATOM      7  C   UNL A   1     -13.379   2.588  35.381  0.00  0.00    +0.000 A 
ATOM      8  C   UNL A   1     -11.482   1.684  36.647  0.00  0.00    +0.005 A 
ATOM      9  C   UNL A   1     -12.727   2.295  36.593  0.00  0.00    +0.000 A 
ENDBRANCH   1   5
BRANCH   3  10
ATOM     10  C   UNL A   1      -7.450  -0.049  34.514  0.00  0.00    +0.074 A 
ATOM     11  C   UNL A   1      -7.382  -1.256  34.320  0.00  0.00    +0.017 A 
ATOM     12  C   UNL A   1      -6.265  -1.986  34.415  0.00  0.00    +0.008 A 
ATOM     13  C   UNL A   1      -5.073  -1.222  34.784  0.00  0.00    +0.080 A 
ATOM     14  C   UNL A   1      -5.178   0.111  35.011  0.00  0.00    +0.008 A 
ATOM     15  C   UNL A   1      -6.371   0.759  34.848  0.00  0.00    +0.017 A 
BRANCH  13  16
ATOM     16  C   UNL A   1      -3.780  -1.906  34.931  0.00  0.00    +0.388 C 
ATOM     17  O   UNL A   1      -3.131  -2.080  35.747  0.00  0.00    -0.241 OA
ATOM     18  O   UNL A   1      -3.358  -2.452  33.704  0.00  0.00    -0.241 OA
ENDBRANCH  13  16
ENDBRANCH   3  10
TORSDOF 3
ENDMDL
ENDMDL
