MODEL 2120
MODEL 1
REMARK VINA RESULT:    -6.568      0.000      0.000
REMARK INTER + INTRA:          -9.600
REMARK INTER:                  -8.487
REMARK INTRA:                  -1.113
REMARK UNBOUND:                -1.113
REMARK  Name = No_2120-gen_results/8p0m/2024-11-26-14-13-15/
REMARK  5 active torsions:
REMARK  status: ('A' for Active; 'I' for Inactive)
REMARK    1  A    between atoms: C_2  and  C_11
REMARK    2  A    between atoms: C_3  and  C_7
REMARK    3  A    between atoms: C_11  and  O_13
REMARK    4  A    between atoms: O_13  and  C_14
REMARK    5  A    between atoms: C_14  and  C_15
REMARK                            x       y       z     vdW  Elec       q    Type
REMARK                         _______ _______ _______ _____ _____    ______ ____
ROOT
ATOM      1  C   UNL A   1     -23.779  -0.043  27.738  0.00  0.00    +0.010 A 
ATOM      2  C   UNL A   1     -22.847   0.301  28.090  0.00  0.00    +0.076 A 
ATOM      3  C   UNL A   1     -24.384   0.665  26.676  0.00  0.00    +0.072 A 
ATOM      4  C   UNL A   1     -23.797   1.781  26.114  0.00  0.00    +0.004 A 
ATOM      5  C   UNL A   1     -22.569   2.160  26.632  0.00  0.00    +0.000 A 
ATOM      6  C   UNL A   1     -22.000   1.416  27.644  0.00  0.00    +0.006 A 
ENDROOT
BRANCH   3   7
ATOM      7  C   UNL A   1     -25.696   0.272  26.065  0.00  0.00    +0.419 C 
ATOM      8  F   UNL A   1     -26.462  -0.248  26.767  0.00  0.00    -0.166 F 
ATOM      9  F   UNL A   1     -25.417  -0.562  24.948  0.00  0.00    -0.166 F 
ATOM     10  F   UNL A   1     -26.400   1.297  25.401  0.00  0.00    -0.166 F 
ENDBRANCH   3   7
BRANCH   2  11
ATOM     11  C   UNL A   1     -22.044  -0.541  29.217  0.00  0.00    +0.345 C 
ATOM     12  O   UNL A   1     -21.155  -1.132  28.940  0.00  0.00    -0.245 OA
BRANCH  11  13
ATOM     13  O   UNL A   1     -22.177  -0.155  30.419  0.00  0.00    -0.391 OA
BRANCH  13  14
ATOM     14  C   UNL A   1     -23.135  -0.746  31.164  0.00  0.00    +0.502 C 
ATOM     15  F   UNL A   1     -22.339  -1.107  32.325  0.00  0.00    -0.156 F 
ATOM     16  F   UNL A   1     -23.569  -1.888  30.587  0.00  0.00    -0.156 F 
BRANCH  14  17
ATOM     17  C   UNL A   1     -24.139   0.017  31.583  0.00  0.00    +0.497 C 
ATOM     18  F   UNL A   1     -25.193  -0.091  30.892  0.00  0.00    -0.162 F 
ATOM     19  F   UNL A   1     -23.808   1.381  31.488  0.00  0.00    -0.162 F 
ATOM     20  F   UNL A   1     -24.519  -0.042  32.905  0.00  0.00    -0.162 F 
ENDBRANCH  14  17
ENDBRANCH  13  14
ENDBRANCH  11  13
ENDBRANCH   2  11
TORSDOF 5
ENDMDL
ENDMDL
