REMARK  Name = No_2120-gen_results/8p0m/2024-11-26-14-13-15/
REMARK  5 active torsions:
REMARK  status: ('A' for Active; 'I' for Inactive)
REMARK    1  A    between atoms: C_2  and  C_11
REMARK    2  A    between atoms: C_3  and  C_7
REMARK    3  A    between atoms: C_11  and  O_13
REMARK    4  A    between atoms: O_13  and  C_14
REMARK    5  A    between atoms: C_14  and  C_15
REMARK                            x       y       z     vdW  Elec       q    Type
REMARK                         _______ _______ _______ _____ _____    ______ ____
ROOT
ATOM      1  C   UNL A   1     -28.016  -0.814  28.878  0.00  0.00    +0.010 A 
ATOM      2  C   UNL A   1     -28.469  -0.785  29.829  0.00  0.00    +0.076 A 
ATOM      3  C   UNL A   1     -27.136   0.236  28.535  0.00  0.00    +0.072 A 
ATOM      4  C   UNL A   1     -26.875   1.282  29.398  0.00  0.00    +0.004 A 
ATOM      5  C   UNL A   1     -27.507   1.238  30.630  0.00  0.00    +0.000 A 
ATOM      6  C   UNL A   1     -28.329   0.174  30.935  0.00  0.00    +0.006 A 
ENDROOT
BRANCH   3   7
ATOM      7  C   UNL A   1     -26.408   0.307  27.226  0.00  0.00    +0.419 C 
ATOM      8  F   UNL A   1     -27.019   0.035  26.276  0.00  0.00    -0.166 F 
ATOM      9  F   UNL A   1     -25.263  -0.530  27.324  0.00  0.00    -0.166 F 
ATOM     10  F   UNL A   1     -25.762   1.528  26.944  0.00  0.00    -0.166 F 
ENDBRANCH   3   7
BRANCH   2  11
ATOM     11  C   UNL A   1     -29.386  -2.022  30.330  0.00  0.00    +0.345 C 
ATOM     12  O   UNL A   1     -28.935  -3.014  30.501  0.00  0.00    -0.245 OA
BRANCH  11  13
ATOM     13  O   UNL A   1     -30.466  -1.726  30.927  0.00  0.00    -0.391 OA
BRANCH  13  14
ATOM     14  C   UNL A   1     -31.446  -2.654  30.945  0.00  0.00    +0.502 C 
ATOM     15  F   UNL A   1     -31.263  -3.160  32.295  0.00  0.00    -0.156 F 
ATOM     16  F   UNL A   1     -31.182  -3.662  30.085  0.00  0.00    -0.156 F 
BRANCH  14  17
ATOM     17  C   UNL A   1     -32.698  -2.222  30.842  0.00  0.00    +0.497 C 
ATOM     18  F   UNL A   1     -33.568  -3.138  30.919  0.00  0.00    -0.162 F 
ATOM     19  F   UNL A   1     -32.927  -1.640  29.582  0.00  0.00    -0.162 F 
ATOM     20  F   UNL A   1     -33.124  -1.197  31.657  0.00  0.00    -0.162 F 
ENDBRANCH  14  17
ENDBRANCH  13  14
ENDBRANCH  11  13
ENDBRANCH   2  11
TORSDOF 5
