REMARK  Name = No_2121-gen_results/8p0m/2024-11-26-14-13-15/
REMARK  4 active torsions:
REMARK  status: ('A' for Active; 'I' for Inactive)
REMARK    1  A    between atoms: C_3  and  O_7
REMARK    2  A    between atoms: O_7  and  C_8
REMARK    3  A    between atoms: C_8  and  C_9
REMARK    4  A    between atoms: C_9  and  C_10
REMARK                            x       y       z     vdW  Elec       q    Type
REMARK                         _______ _______ _______ _____ _____    ______ ____
ROOT
ATOM      1  C   UNL A   1     -28.016  -0.814  28.878  0.00  0.00    +0.003 A 
ATOM      2  C   UNL A   1     -27.064  -0.119  28.608  0.00  0.00    +0.037 A 
ATOM      3  C   UNL A   1     -26.876   1.133  28.913  0.00  0.00    +0.139 A 
ATOM      4  C   UNL A   1     -27.901   1.807  29.644  0.00  0.00    +0.037 A 
ATOM      5  C   UNL A   1     -28.945   1.039  30.036  0.00  0.00    +0.003 A 
ATOM      6  C   UNL A   1     -29.027  -0.289  29.705  0.00  0.00    +0.000 A 
ENDROOT
BRANCH   3   7
ATOM      7  O   UNL A   1     -25.776   1.872  28.523  0.00  0.00    -0.475 OA
BRANCH   7   8
ATOM      8  C   UNL A   1     -24.919   1.655  27.754  0.00  0.00    +0.210 C 
BRANCH   8   9
ATOM      9  C   UNL A   1     -23.645   1.304  28.306  0.00  0.00    +0.073 C 
BRANCH   9  10
ATOM     10  C   UNL A   1     -23.368   0.163  28.998  0.00  0.00    -0.027 C 
ATOM     11  C   UNL A   1     -24.252  -0.464  29.655  0.00  0.00    -0.030 C 
ATOM     12  C   UNL A   1     -23.891  -1.614  30.471  0.00  0.00    +0.030 C 
ENDBRANCH   9  10
ENDBRANCH   8   9
ENDBRANCH   7   8
ENDBRANCH   3   7
TORSDOF 4
