MODEL 2121
MODEL 1
REMARK VINA RESULT:    -5.832      0.000      0.000
REMARK INTER + INTRA:          -7.460
REMARK INTER:                  -7.196
REMARK INTRA:                  -0.264
REMARK UNBOUND:                -0.264
REMARK  Name = No_2121-gen_results/8p0m/2024-11-26-14-13-15/
REMARK  4 active torsions:
REMARK  status: ('A' for Active; 'I' for Inactive)
REMARK    1  A    between atoms: C_3  and  O_7
REMARK    2  A    between atoms: O_7  and  C_8
REMARK    3  A    between atoms: C_8  and  C_9
REMARK    4  A    between atoms: C_9  and  C_10
REMARK                            x       y       z     vdW  Elec       q    Type
REMARK                         _______ _______ _______ _____ _____    ______ ____
ROOT
ATOM      1  C   UNL A   1     -24.891  -5.175  28.897  0.00  0.00    +0.003 A 
ATOM      2  C   UNL A   1     -24.019  -4.341  28.816  0.00  0.00    +0.037 A 
ATOM      3  C   UNL A   1     -24.080  -3.085  29.155  0.00  0.00    +0.139 A 
ATOM      4  C   UNL A   1     -25.312  -2.591  29.680  0.00  0.00    +0.037 A 
ATOM      5  C   UNL A   1     -26.286  -3.514  29.863  0.00  0.00    +0.003 A 
ATOM      6  C   UNL A   1     -26.106  -4.829  29.518  0.00  0.00    +0.000 A 
ENDROOT
BRANCH   3   7
ATOM      7  O   UNL A   1     -23.048  -2.183  28.985  0.00  0.00    -0.475 OA
BRANCH   7   8
ATOM      8  C   UNL A   1     -22.827  -1.143  29.478  0.00  0.00    +0.210 C 
BRANCH   8   9
ATOM      9  C   UNL A   1     -21.657  -0.458  29.017  0.00  0.00    +0.073 C 
BRANCH   9  10
ATOM     10  C   UNL A   1     -21.639   0.556  28.107  0.00  0.00    -0.027 C 
ATOM     11  C   UNL A   1     -22.696   1.134  27.713  0.00  0.00    -0.030 C 
ATOM     12  C   UNL A   1     -22.643   2.135  26.658  0.00  0.00    +0.030 C 
ENDBRANCH   9  10
ENDBRANCH   8   9
ENDBRANCH   7   8
ENDBRANCH   3   7
TORSDOF 4
ENDMDL
ENDMDL
