REMARK  Name = No_2122-gen_results/8p0m/2024-11-26-14-13-15/
REMARK  1 active torsions:
REMARK  status: ('A' for Active; 'I' for Inactive)
REMARK    1  A    between atoms: C_3  and  C_16
REMARK                            x       y       z     vdW  Elec       q    Type
REMARK                         _______ _______ _______ _____ _____    ______ ____
ROOT
ATOM      1  O   UNL A   1     -28.123  -1.335  28.487  0.00  0.00    -0.275 OA
ATOM      2  C   UNL A   1     -28.521  -0.436  29.078  0.00  0.00    +0.231 C 
ATOM      3  C   UNL A   1     -27.666   0.113  30.035  0.00  0.00    +0.099 C 
ATOM      4  N   UNL A   1     -29.566   0.330  28.610  0.00  0.00    -0.259 N 
ATOM      5  C   UNL A   1     -27.693   1.367  30.437  0.00  0.00    +0.017 C 
ATOM      6  C   UNL A   1     -29.795   1.594  29.182  0.00  0.00    +0.169 C 
ATOM      7  C   UNL A   1     -28.929   2.079  30.185  0.00  0.00    +0.043 C 
ATOM      8  N   UNL A   1     -30.833   2.276  28.764  0.00  0.00    -0.219 NA
ATOM      9  C   UNL A   1     -31.597   2.053  27.816  0.00  0.00    +0.065 A 
ATOM     10  C   UNL A   1     -32.673   2.909  27.416  0.00  0.00    +0.016 A 
ATOM     11  C   UNL A   1     -33.515   2.664  26.419  0.00  0.00    +0.001 A 
ATOM     12  C   UNL A   1     -33.318   1.475  25.651  0.00  0.00    -0.000 A 
ATOM     13  C   UNL A   1     -32.296   0.607  25.950  0.00  0.00    -0.001 A 
ATOM     14  C   UNL A   1     -31.471   0.869  26.983  0.00  0.00    +0.013 A 
ATOM     15  C   UNL A   1     -30.365  -0.160  27.571  0.00  0.00    +0.123 C 
ENDROOT
BRANCH   3  16
ATOM     16  C   UNL A   1     -26.490  -0.751  30.476  0.00  0.00    -0.014 A 
ATOM     17  C   UNL A   1     -25.762  -0.524  31.507  0.00  0.00    -0.004 A 
ATOM     18  C   UNL A   1     -24.410  -0.994  31.534  0.00  0.00    -0.000 A 
ATOM     19  C   UNL A   1     -23.815  -1.218  30.426  0.00  0.00    -0.000 A 
ATOM     20  C   UNL A   1     -24.569  -1.583  29.291  0.00  0.00    -0.000 A 
ATOM     21  C   UNL A   1     -25.823  -1.436  29.329  0.00  0.00    -0.004 A 
ENDBRANCH   3  16
TORSDOF 1
