MODEL 2122
MODEL 1
REMARK VINA RESULT:    -7.229      0.000      0.000
REMARK INTER + INTRA:          -8.035
REMARK INTER:                  -7.652
REMARK INTRA:                  -0.383
REMARK UNBOUND:                -0.383
REMARK  Name = No_2122-gen_results/8p0m/2024-11-26-14-13-15/
REMARK  1 active torsions:
REMARK  status: ('A' for Active; 'I' for Inactive)
REMARK    1  A    between atoms: C_3  and  C_16
REMARK                            x       y       z     vdW  Elec       q    Type
REMARK                         _______ _______ _______ _____ _____    ______ ____
ROOT
ATOM      1  O   UNL A   1     -25.608   3.137  26.911  0.00  0.00    -0.275 OA
ATOM      2  C   UNL A   1     -25.676   2.302  26.127  0.00  0.00    +0.231 C 
ATOM      3  C   UNL A   1     -24.768   1.249  26.254  0.00  0.00    +0.099 C 
ATOM      4  N   UNL A   1     -26.816   2.104  25.380  0.00  0.00    -0.259 N 
ATOM      5  C   UNL A   1     -24.976   0.021  25.825  0.00  0.00    +0.017 C 
ATOM      6  C   UNL A   1     -26.978   0.889  24.691  0.00  0.00    +0.169 C 
ATOM      7  C   UNL A   1     -26.002  -0.123  24.813  0.00  0.00    +0.043 C 
ATOM      8  N   UNL A   1     -28.040   0.751  23.936  0.00  0.00    -0.219 NA
ATOM      9  C   UNL A   1     -29.036   1.478  23.830  0.00  0.00    +0.065 A 
ATOM     10  C   UNL A   1     -30.172   1.191  23.007  0.00  0.00    +0.016 A 
ATOM     11  C   UNL A   1     -31.232   1.978  22.865  0.00  0.00    +0.001 A 
ATOM     12  C   UNL A   1     -31.272   3.192  23.619  0.00  0.00    -0.000 A 
ATOM     13  C   UNL A   1     -30.235   3.536  24.452  0.00  0.00    -0.001 A 
ATOM     14  C   UNL A   1     -29.161   2.729  24.558  0.00  0.00    +0.013 A 
ATOM     15  C   UNL A   1     -27.789   3.108  25.334  0.00  0.00    +0.123 C 
ENDROOT
BRANCH   3  16
ATOM     16  C   UNL A   1     -23.553   1.497  27.141  0.00  0.00    -0.014 A 
ATOM     17  C   UNL A   1     -22.431   1.961  26.729  0.00  0.00    -0.004 A 
ATOM     18  C   UNL A   1     -21.230   1.638  27.439  0.00  0.00    -0.000 A 
ATOM     19  C   UNL A   1     -21.207   0.583  28.159  0.00  0.00    -0.000 A 
ATOM     20  C   UNL A   1     -22.405   0.100  28.727  0.00  0.00    -0.000 A 
ATOM     21  C   UNL A   1     -23.501   0.570  28.310  0.00  0.00    -0.004 A 
ENDBRANCH   3  16
TORSDOF 1
ENDMDL
ENDMDL
