MODEL 2123
MODEL 1
REMARK VINA RESULT:    -4.920      0.000      0.000
REMARK INTER + INTRA:          -5.298
REMARK INTER:                  -5.207
REMARK INTRA:                  -0.091
REMARK UNBOUND:                -0.091
REMARK  Name = No_2123-gen_results/8p0m/2024-11-26-14-13-15/
REMARK  1 active torsions:
REMARK  status: ('A' for Active; 'I' for Inactive)
REMARK    1  A    between atoms: C_4  and  C_8
REMARK                            x       y       z     vdW  Elec       q    Type
REMARK                         _______ _______ _______ _____ _____    ______ ____
ROOT
ATOM      1  C   UNL A   1     -24.144  -4.599  28.327  0.00  0.00    +0.026 C 
ATOM      2  C   UNL A   1     -24.727  -5.219  28.949  0.00  0.00    -0.031 C 
ATOM      3  C   UNL A   1     -23.756  -3.334  28.962  0.00  0.00    +0.009 C 
ATOM      4  C   UNL A   1     -24.656  -2.289  28.935  0.00  0.00    +0.023 C 
ATOM      5  C   UNL A   1     -25.939  -2.759  29.457  0.00  0.00    +0.009 C 
ATOM      6  C   UNL A   1     -25.610  -5.092  29.693  0.00  0.00    -0.031 C 
ATOM      7  C   UNL A   1     -26.453  -3.904  29.702  0.00  0.00    +0.026 C 
ENDROOT
BRANCH   4   8
ATOM      8  C   UNL A   1     -24.260  -1.016  28.754  0.00  0.00    -0.026 C 
ATOM      9  C   UNL A   1     -23.162  -0.511  28.812  0.00  0.00    -0.005 C 
ENDBRANCH   4   8
TORSDOF 1
ENDMDL
ENDMDL
