MODEL 2124
MODEL 1
REMARK VINA RESULT:    -6.676      0.000      0.000
REMARK INTER + INTRA:          -8.256
REMARK INTER:                  -7.457
REMARK INTRA:                  -0.799
REMARK UNBOUND:                -0.799
REMARK  Name = No_2124-gen_results/8p0m/2024-11-26-14-13-15/
REMARK  2 active torsions:
REMARK  status: ('A' for Active; 'I' for Inactive)
REMARK    1  A    between atoms: C_3  and  C_7
REMARK    2  A    between atoms: C_8  and  C_11
REMARK                            x       y       z     vdW  Elec       q    Type
REMARK                         _______ _______ _______ _____ _____    ______ ____
ROOT
ATOM      1  C   UNL A   1     -24.402  -1.055  28.391  0.00  0.00    -0.000 A 
ATOM      2  C   UNL A   1     -23.562  -0.449  29.264  0.00  0.00    -0.000 A 
ATOM      3  C   UNL A   1     -24.804  -0.445  27.217  0.00  0.00    -0.000 A 
ATOM      4  C   UNL A   1     -24.207   0.721  26.803  0.00  0.00    -0.000 A 
ATOM      5  C   UNL A   1     -23.362   1.432  27.745  0.00  0.00    -0.000 A 
ATOM      6  C   UNL A   1     -23.133   0.878  28.935  0.00  0.00    -0.000 A 
ENDROOT
BRANCH   1   9
ATOM      7  C   UNL A   1     -23.980  -3.599  28.464  0.00  0.00    -0.000 A 
ATOM      8  C   UNL A   1     -24.380  -4.511  28.806  0.00  0.00    +0.000 A 
ATOM      9  C   UNL A   1     -24.826  -2.442  28.756  0.00  0.00    -0.000 A 
ATOM     10  C   UNL A   1     -26.015  -2.559  29.432  0.00  0.00    -0.000 A 
ATOM     11  C   UNL A   1     -25.579  -4.928  29.534  0.00  0.00    +0.000 A 
ATOM     12  C   UNL A   1     -26.405  -3.815  29.821  0.00  0.00    +0.000 A 
ENDBRANCH   1   9
BRANCH   2  13
ATOM     13  C   UNL A   1     -23.098  -1.072  30.518  0.00  0.00    -0.005 C 
ATOM     14  C   UNL A   1     -23.538  -0.686  31.720  0.00  0.00    -0.026 C 
ATOM     15  C   UNL A   1     -23.102  -1.387  32.876  0.00  0.00    +0.031 C 
ENDBRANCH   2  13
TORSDOF 2
ENDMDL
ENDMDL
