MODEL 2125
MODEL 1
REMARK VINA RESULT:    -4.599      0.000      0.000
REMARK INTER + INTRA:          -4.599
REMARK INTER:                  -4.599
REMARK INTRA:                   0.000
REMARK UNBOUND:                 0.000
REMARK  Name = No_2125-gen_results/8p0m/2024-11-26-14-13-15/
REMARK  0 active torsions:
REMARK  status: ('A' for Active; 'I' for Inactive)
REMARK                            x       y       z     vdW  Elec       q    Type
REMARK                         _______ _______ _______ _____ _____    ______ ____
ROOT
ATOM      1  C   UNL A   1      -9.933 -10.029  18.086  0.00  0.00    +0.140 A 
ATOM      2  C   UNL A   1      -8.854 -10.569  18.166  0.00  0.00    +0.030 A 
ATOM      3  C   UNL A   1      -7.980 -10.379  19.219  0.00  0.00    +0.002 A 
ATOM      4  C   UNL A   1      -8.393  -9.530  20.284  0.00  0.00    +0.000 A 
ATOM      5  C   UNL A   1      -9.671  -9.088  20.231  0.00  0.00    +0.002 A 
ATOM      6  C   UNL A   1     -10.452  -9.354  19.201  0.00  0.00    +0.030 A 
ATOM      7  F   UNL A   1     -10.771 -10.290  17.062  0.00  0.00    -0.204 F 
ENDROOT
TORSDOF 0
ENDMDL
ENDMDL
