REMARK  Name = No_2126-gen_results/8p0m/2024-11-26-14-13-15/
REMARK  2 active torsions:
REMARK  status: ('A' for Active; 'I' for Inactive)
REMARK    1  A    between atoms: C_5  and  C_7
REMARK    2  A    between atoms: C_7  and  P_8
REMARK                            x       y       z     vdW  Elec       q    Type
REMARK                         _______ _______ _______ _____ _____    ______ ____
ROOT
ATOM      1  C   UNL A   1     -28.016  -0.814  28.878  0.00  0.00    -0.004 A 
ATOM      2  C   UNL A   1     -27.064  -0.119  28.608  0.00  0.00    -0.000 A 
ATOM      3  C   UNL A   1     -26.876   1.133  28.913  0.00  0.00    -0.000 A 
ATOM      4  C   UNL A   1     -27.901   1.807  29.644  0.00  0.00    -0.000 A 
ATOM      5  C   UNL A   1     -29.046  -0.232  29.718  0.00  0.00    -0.015 A 
ATOM      6  C   UNL A   1     -28.940   1.052  30.060  0.00  0.00    -0.004 A 
ENDROOT
BRANCH   5   7
ATOM      7  C   UNL A   1     -30.163  -1.117  30.125  0.00  0.00    +0.085 C 
BRANCH   7   8
ATOM      8  P   UNL A   1     -29.857  -2.373  31.253  0.00  0.00    +0.122 P 
ATOM      9  O   UNL A   1     -28.638  -2.260  31.695  0.00  0.00    -0.357 OA
ATOM     10  O   UNL A   1     -30.806  -2.113  32.392  0.00  0.00    -0.357 OA
ATOM     11  O   UNL A   1     -30.203  -3.662  30.528  0.00  0.00    -0.460 OA
ENDBRANCH   7   8
ENDBRANCH   5   7
TORSDOF 2
