MODEL 2126
MODEL 1
REMARK VINA RESULT:    -5.403      0.000      0.000
REMARK INTER + INTRA:          -6.162
REMARK INTER:                  -6.035
REMARK INTRA:                  -0.127
REMARK UNBOUND:                -0.127
REMARK  Name = No_2126-gen_results/8p0m/2024-11-26-14-13-15/
REMARK  2 active torsions:
REMARK  status: ('A' for Active; 'I' for Inactive)
REMARK    1  A    between atoms: C_5  and  C_7
REMARK    2  A    between atoms: C_7  and  P_8
REMARK                            x       y       z     vdW  Elec       q    Type
REMARK                         _______ _______ _______ _____ _____    ______ ____
ROOT
ATOM      1  C   UNL A   1     -23.857  -3.783  28.561  0.00  0.00    -0.004 A 
ATOM      2  C   UNL A   1     -24.313  -4.891  28.727  0.00  0.00    -0.000 A 
ATOM      3  C   UNL A   1     -25.450  -5.214  29.272  0.00  0.00    -0.000 A 
ATOM      4  C   UNL A   1     -26.285  -4.162  29.759  0.00  0.00    -0.000 A 
ATOM      5  C   UNL A   1     -24.698  -2.658  28.925  0.00  0.00    -0.015 A 
ATOM      6  C   UNL A   1     -25.872  -2.902  29.509  0.00  0.00    -0.004 A 
ENDROOT
BRANCH   5   7
ATOM      7  C   UNL A   1     -24.174  -1.303  28.632  0.00  0.00    +0.085 C 
BRANCH   7   8
ATOM      8  P   UNL A   1     -22.837  -0.718  29.534  0.00  0.00    +0.122 P 
ATOM      9  O   UNL A   1     -21.737  -1.174  29.007  0.00  0.00    -0.357 OA
ATOM     10  O   UNL A   1     -22.871   0.776  29.356  0.00  0.00    -0.357 OA
ATOM     11  O   UNL A   1     -23.117  -1.111  30.974  0.00  0.00    -0.460 OA
ENDBRANCH   7   8
ENDBRANCH   5   7
TORSDOF 2
ENDMDL
ENDMDL
