REMARK  Name = No_2127-gen_results/8p0m/2024-11-26-14-13-15/
REMARK  1 active torsions:
REMARK  status: ('A' for Active; 'I' for Inactive)
REMARK    1  A    between atoms: C_2  and  C_8
REMARK                            x       y       z     vdW  Elec       q    Type
REMARK                         _______ _______ _______ _____ _____    ______ ____
ROOT
ATOM      1  C   UNL A   1     -28.016  -0.814  28.878  0.00  0.00    +0.037 A 
ATOM      2  C   UNL A   1     -28.469  -0.785  29.829  0.00  0.00    +0.082 A 
ATOM      3  C   UNL A   1     -26.504  -0.778  28.877  0.00  0.00    +0.151 A 
ATOM      4  C   UNL A   1     -25.810  -0.853  30.103  0.00  0.00    +0.085 A 
ATOM      5  C   UNL A   1     -27.991  -0.892  31.226  0.00  0.00    +0.008 A 
ATOM      6  C   UNL A   1     -26.604  -0.868  31.265  0.00  0.00    +0.014 A 
ATOM      7 CL   UNL A   1     -24.165  -0.791  30.172  0.00  0.00    -0.080 Cl
ATOM      8  F   UNL A   1     -25.724  -0.752  27.779  0.00  0.00    -0.203 F 
ENDROOT
BRANCH   2   9
ATOM      9  C   UNL A   1     -30.099  -0.836  29.851  0.00  0.00    +0.388 C 
ATOM     10  O   UNL A   1     -30.526  -0.437  28.916  0.00  0.00    -0.241 OA
ATOM     11  O   UNL A   1     -30.769  -1.283  30.860  0.00  0.00    -0.241 OA
ENDBRANCH   2   9
TORSDOF 1
