MODEL 2127
MODEL 1
REMARK VINA RESULT:    -5.338      0.000      0.000
REMARK INTER + INTRA:          -5.706
REMARK INTER:                  -5.650
REMARK INTRA:                  -0.056
REMARK UNBOUND:                -0.056
REMARK  Name = No_2127-gen_results/8p0m/2024-11-26-14-13-15/
REMARK  1 active torsions:
REMARK  status: ('A' for Active; 'I' for Inactive)
REMARK    1  A    between atoms: C_2  and  C_8
REMARK                            x       y       z     vdW  Elec       q    Type
REMARK                         _______ _______ _______ _____ _____    ______ ____
ROOT
ATOM      1  C   UNL A   1     -27.894 -11.976  31.578  0.00  0.00    +0.037 A 
ATOM      2  C   UNL A   1     -28.115 -11.455  32.467  0.00  0.00    +0.082 A 
ATOM      3  C   UNL A   1     -28.763 -11.629  30.389  0.00  0.00    +0.151 A 
ATOM      4  C   UNL A   1     -29.684 -10.566  30.493  0.00  0.00    +0.085 A 
ATOM      5  C   UNL A   1     -28.976 -10.306  32.827  0.00  0.00    +0.008 A 
ATOM      6  C   UNL A   1     -29.785  -9.954  31.756  0.00  0.00    +0.014 A 
ATOM      7 CL   UNL A   1     -30.678 -10.156  29.244  0.00  0.00    -0.080 Cl
ATOM      8  F   UNL A   1     -28.692 -12.208  29.174  0.00  0.00    -0.203 F 
ENDROOT
BRANCH   2   9
ATOM      9  C   UNL A   1     -27.181 -11.807  33.757  0.00  0.00    +0.388 C 
ATOM     10  O   UNL A   1     -26.791 -12.837  33.702  0.00  0.00    -0.241 OA
ATOM     11  O   UNL A   1     -26.959 -10.963  34.708  0.00  0.00    -0.241 OA
ENDBRANCH   2   9
TORSDOF 1
ENDMDL
ENDMDL
