MODEL 2128
MODEL 1
REMARK VINA RESULT:    -4.277      0.000      0.000
REMARK INTER + INTRA:          -4.277
REMARK INTER:                  -4.277
REMARK INTRA:                   0.000
REMARK UNBOUND:                 0.000
REMARK  Name = No_2128-gen_results/8p0m/2024-11-26-14-13-15/
REMARK  0 active torsions:
REMARK  status: ('A' for Active; 'I' for Inactive)
REMARK                            x       y       z     vdW  Elec       q    Type
REMARK                         _______ _______ _______ _____ _____    ______ ____
ROOT
ATOM      1  C   UNL A   1     -24.002  -3.322  28.788  0.00  0.00    +0.000 A 
ATOM      2  C   UNL A   1     -24.004  -4.514  28.582  0.00  0.00    +0.000 A 
ATOM      3  C   UNL A   1     -25.015  -5.360  28.995  0.00  0.00    +0.000 A 
ATOM      4  C   UNL A   1     -26.132  -4.787  29.666  0.00  0.00    +0.000 A 
ATOM      5  C   UNL A   1     -26.163  -3.435  29.721  0.00  0.00    +0.000 A 
ATOM      6  C   UNL A   1     -25.168  -2.701  29.262  0.00  0.00    +0.000 A 
ENDROOT
TORSDOF 0
ENDMDL
ENDMDL
