MODEL 2129
MODEL 1
REMARK VINA RESULT:    -7.131      0.000      0.000
REMARK INTER + INTRA:         -12.292
REMARK INTER:                 -11.300
REMARK INTRA:                  -0.992
REMARK UNBOUND:                -0.992
REMARK  Name = No_2129-gen_results/8p0m/2024-11-26-14-13-15/
REMARK  10 active torsions:
REMARK  status: ('A' for Active; 'I' for Inactive)
REMARK    1  A    between atoms: C_1  and  C_2
REMARK    2  A    between atoms: C_1  and  C_8
REMARK    3  A    between atoms: C_5  and  C_11
REMARK    4  A    between atoms: C_8  and  C_15
REMARK    5  A    between atoms: C_9  and  C_10
REMARK    6  A    between atoms: C_15  and  N_16
REMARK    7  A    between atoms: N_16  and  C_17
REMARK    8  A    between atoms: C_19  and  C_20
REMARK    9  A    between atoms: C_22  and  C_23
REMARK   10  A    between atoms: C_24  and  C_25
REMARK                            x       y       z     vdW  Elec       q    Type
REMARK                         _______ _______ _______ _____ _____    ______ ____
ROOT
ATOM      1  C   UNL A   1      -9.689   0.315  36.065  0.00  0.00    -0.018 C 
ATOM      2  C   UNL A   1      -9.718  -0.454  36.765  0.00  0.00    -0.006 C 
ENDROOT
BRANCH   2   3
ATOM      3  C   UNL A   1     -10.907  -0.819  37.645  0.00  0.00    -0.001 C 
ATOM      4  C   UNL A   1     -11.166  -2.214  37.819  0.00  0.00    -0.000 C 
BRANCH   4   5
ATOM      5  C   UNL A   1     -12.220  -2.569  38.611  0.00  0.00    -0.000 C 
ATOM      6  C   UNL A   1     -12.221  -2.540  39.752  0.00  0.00    -0.000 C 
BRANCH   6   7
ATOM      7  C   UNL A   1     -11.034  -2.162  40.448  0.00  0.00    +0.000 C 
ATOM      8  C   UNL A   1     -11.038  -1.099  41.283  0.00  0.00    +0.000 C 
BRANCH   8   9
ATOM      9  C   UNL A   1     -12.285  -0.706  41.733  0.00  0.00    +0.000 C 
ATOM     10  C   UNL A   1     -12.803   0.512  41.397  0.00  0.00    +0.000 C 
ENDBRANCH   8   9
ENDBRANCH   6   7
ENDBRANCH   4   5
ENDBRANCH   2   3
BRANCH   1  11
ATOM     11  C   UNL A   1      -8.521   0.910  35.272  0.00  0.00    +0.050 C 
BRANCH  11  12
ATOM     12  C   UNL A   1      -7.590   0.185  35.008  0.00  0.00    -0.018 A 
ATOM     13  C   UNL A   1      -7.622  -0.981  34.429  0.00  0.00    -0.004 A 
ATOM     14  C   UNL A   1      -6.453  -1.839  34.117  0.00  0.00    +0.004 A 
ATOM     15  C   UNL A   1      -5.173  -1.308  34.445  0.00  0.00    +0.071 A 
ATOM     16  C   UNL A   1      -5.130  -0.055  35.001  0.00  0.00    +0.004 A 
ATOM     17  C   UNL A   1      -6.222   0.704  35.256  0.00  0.00    -0.004 A 
BRANCH  15  18
ATOM     18  C   UNL A   1      -3.969  -2.068  34.208  0.00  0.00    +0.419 C 
ATOM     19  F   UNL A   1      -3.926  -2.956  33.663  0.00  0.00    -0.166 F 
ATOM     20  F   UNL A   1      -2.931  -1.184  33.813  0.00  0.00    -0.166 F 
ATOM     21  F   UNL A   1      -3.377  -2.349  35.527  0.00  0.00    -0.166 F 
ENDBRANCH  15  18
ENDBRANCH  11  12
ENDBRANCH   1  11
BRANCH   1  22
ATOM     22  C   UNL A   1     -10.955   1.166  35.916  0.00  0.00    +0.134 C 
BRANCH  22  23
ATOM     23  N   UNL A   1     -11.346   1.625  34.727  0.00  0.00    -0.237 NA
BRANCH  23  24
ATOM     24  C   UNL A   1     -12.510   1.760  34.206  0.00  0.00    +0.044 C 
ATOM     25  C   UNL A   1     -13.474   2.642  34.894  0.00  0.00    +0.013 C 
ATOM     26  C   UNL A   1     -13.024   1.137  33.070  0.00  0.00    +0.049 C 
ENDBRANCH  23  24
ENDBRANCH  22  23
ENDBRANCH   1  22
TORSDOF 10
ENDMDL
ENDMDL
