REMARK  Name = No_2129-gen_results/8p0m/2024-11-26-14-13-15/
REMARK  10 active torsions:
REMARK  status: ('A' for Active; 'I' for Inactive)
REMARK    1  A    between atoms: C_1  and  C_2
REMARK    2  A    between atoms: C_1  and  C_8
REMARK    3  A    between atoms: C_5  and  C_11
REMARK    4  A    between atoms: C_8  and  C_15
REMARK    5  A    between atoms: C_9  and  C_10
REMARK    6  A    between atoms: C_15  and  N_16
REMARK    7  A    between atoms: N_16  and  C_17
REMARK    8  A    between atoms: C_19  and  C_20
REMARK    9  A    between atoms: C_22  and  C_23
REMARK   10  A    between atoms: C_24  and  C_25
REMARK                            x       y       z     vdW  Elec       q    Type
REMARK                         _______ _______ _______ _____ _____    ______ ____
ROOT
ATOM      1  C   UNL A   1     -28.068  -1.448  30.271  0.00  0.00    -0.018 C 
ATOM      2  C   UNL A   1     -28.837  -1.500  30.969  0.00  0.00    -0.006 C 
ENDROOT
BRANCH   2   3
ATOM      3  C   UNL A   1     -28.837  -2.342  32.240  0.00  0.00    -0.001 C 
ATOM      4  C   UNL A   1     -29.942  -2.154  33.128  0.00  0.00    -0.000 C 
BRANCH   4   5
ATOM      5  C   UNL A   1     -29.972  -2.903  34.269  0.00  0.00    -0.000 C 
ATOM      6  C   UNL A   1     -30.814  -3.616  34.563  0.00  0.00    -0.000 C 
BRANCH   6   7
ATOM      7  C   UNL A   1     -31.968  -3.724  33.731  0.00  0.00    +0.000 C 
ATOM      8  C   UNL A   1     -32.149  -2.872  32.697  0.00  0.00    +0.000 C 
BRANCH   8   9
ATOM      9  C   UNL A   1     -31.008  -2.228  32.255  0.00  0.00    +0.000 C 
ATOM     10  C   UNL A   1     -30.937  -1.708  30.995  0.00  0.00    +0.000 C 
ENDBRANCH   8   9
ENDBRANCH   6   7
ENDBRANCH   4   5
ENDBRANCH   2   3
BRANCH   1  11
ATOM     11  C   UNL A   1     -28.016  -0.814  28.878  0.00  0.00    +0.050 C 
BRANCH  11  12
ATOM     12  C   UNL A   1     -27.064  -0.119  28.608  0.00  0.00    -0.018 A 
ATOM     13  C   UNL A   1     -26.876   1.133  28.913  0.00  0.00    -0.004 A 
ATOM     14  C   UNL A   1     -25.688   1.952  28.567  0.00  0.00    +0.004 A 
ATOM     15  C   UNL A   1     -24.639   1.283  27.875  0.00  0.00    +0.071 A 
ATOM     16  C   UNL A   1     -24.807  -0.051  27.604  0.00  0.00    +0.004 A 
ATOM     17  C   UNL A   1     -25.902  -0.767  27.951  0.00  0.00    -0.004 A 
BRANCH  15  18
ATOM     18  C   UNL A   1     -23.448   1.990  27.467  0.00  0.00    +0.419 C 
ATOM     19  F   UNL A   1     -23.302   2.412  26.525  0.00  0.00    -0.166 F 
ATOM     20  F   UNL A   1     -23.076   2.902  28.490  0.00  0.00    -0.166 F 
ATOM     21  F   UNL A   1     -22.312   1.085  27.710  0.00  0.00    -0.166 F 
ENDBRANCH  15  18
ENDBRANCH  11  12
ENDBRANCH   1  11
BRANCH   1  22
ATOM     22  C   UNL A   1     -26.827  -2.307  30.540  0.00  0.00    +0.134 C 
BRANCH  22  23
ATOM     23  N   UNL A   1     -25.739  -2.211  29.776  0.00  0.00    -0.237 NA
BRANCH  23  24
ATOM     24  C   UNL A   1     -24.922  -3.098  29.341  0.00  0.00    +0.044 C 
ATOM     25  C   UNL A   1     -25.127  -4.495  29.774  0.00  0.00    +0.013 C 
ATOM     26  C   UNL A   1     -23.805  -2.917  28.527  0.00  0.00    +0.049 C 
ENDBRANCH  23  24
ENDBRANCH  22  23
ENDBRANCH   1  22
TORSDOF 10
