MODEL 212
MODEL 1
REMARK VINA RESULT:    -4.298      0.000      0.000
REMARK INTER + INTRA:          -4.298
REMARK INTER:                  -4.298
REMARK INTRA:                   0.000
REMARK UNBOUND:                 0.000
REMARK  Name = No_212-gen_results/8p0m/2024-11-26-14-13-15/
REMARK  0 active torsions:
REMARK  status: ('A' for Active; 'I' for Inactive)
REMARK                            x       y       z     vdW  Elec       q    Type
REMARK                         _______ _______ _______ _____ _____    ______ ____
ROOT
ATOM      1  C   UNL A   1     -24.941  -5.357  28.974  0.00  0.00    +0.000 A 
ATOM      2  C   UNL A   1     -24.182  -4.665  28.738  0.00  0.00    +0.000 A 
ATOM      3  C   UNL A   1     -26.113  -4.750  29.604  0.00  0.00    +0.000 A 
ATOM      4  C   UNL A   1     -26.199  -3.399  29.837  0.00  0.00    +0.000 A 
ATOM      5  C   UNL A   1     -24.002  -3.219  28.861  0.00  0.00    +0.000 A 
ATOM      6  C   UNL A   1     -25.131  -2.621  29.470  0.00  0.00    +0.000 A 
ENDROOT
TORSDOF 0
ENDMDL
ENDMDL
