MODEL 2130
MODEL 1
REMARK VINA RESULT:    -4.514      0.000      0.000
REMARK INTER + INTRA:          -4.514
REMARK INTER:                  -4.514
REMARK INTRA:                   0.000
REMARK UNBOUND:                 0.000
REMARK  Name = No_2130-gen_results/8p0m/2024-11-26-14-13-15/
REMARK  0 active torsions:
REMARK  status: ('A' for Active; 'I' for Inactive)
REMARK                            x       y       z     vdW  Elec       q    Type
REMARK                         _______ _______ _______ _____ _____    ______ ____
ROOT
ATOM      1  C   UNL A   1      -9.203  -9.223  20.216  0.00  0.00    +0.030 A 
ATOM      2  C   UNL A   1      -8.330  -9.759  19.970  0.00  0.00    +0.140 A 
ATOM      3  C   UNL A   1     -10.283  -9.226  19.216  0.00  0.00    +0.002 A 
ATOM      4  C   UNL A   1     -10.185 -10.036  18.047  0.00  0.00    +0.000 A 
ATOM      5  C   UNL A   1      -8.002 -10.710  18.873  0.00  0.00    +0.030 A 
ATOM      6  C   UNL A   1      -8.976 -10.733  17.920  0.00  0.00    +0.002 A 
ATOM      7  F   UNL A   1      -7.275  -9.773  20.951  0.00  0.00    -0.204 F 
ENDROOT
TORSDOF 0
ENDMDL
ENDMDL
