REMARK  Name = No_2131-gen_results/8p0m/2024-11-26-14-13-15/
REMARK  7 active torsions:
REMARK  status: ('A' for Active; 'I' for Inactive)
REMARK    1  A    between atoms: C_3  and  C_7
REMARK    2  A    between atoms: C_10  and  N_13
REMARK    3  A    between atoms: C_18  and  N_19
REMARK    4  A    between atoms: N_19  and  C_21
REMARK    5  A    between atoms: C_21  and  C_22
REMARK    6  A    between atoms: C_23  and  C_24
REMARK    7  A    between atoms: C_25  and  C_26
REMARK                            x       y       z     vdW  Elec       q    Type
REMARK                         _______ _______ _______ _____ _____    ______ ____
ROOT
ATOM      1  N   UNL A   1     -24.526  -0.883  28.428  0.00  0.00    -0.308 N 
ATOM      2  C   UNL A   1     -23.439  -0.438  29.153  0.00  0.00    +0.073 C 
ATOM      3  C   UNL A   1     -22.678   0.464  28.894  0.00  0.00    +0.021 C 
ATOM      4  C   UNL A   1     -25.049  -2.236  28.689  0.00  0.00    +0.108 C 
ATOM      5  C   UNL A   1     -23.350  -1.146  30.473  0.00  0.00    +0.021 C 
ATOM      6  C   UNL A   1     -24.376  -3.072  29.370  0.00  0.00    +0.093 C 
ATOM      7  C   UNL A   1     -23.762  -2.459  30.760  0.00  0.00    +0.021 C 
ENDROOT
BRANCH   1  11
ATOM      8  C   UNL A   1     -26.311   0.392  27.364  0.00  0.00    +0.013 A 
ATOM      9  C   UNL A   1     -26.767   1.025  26.372  0.00  0.00    +0.001 A 
ATOM     10  C   UNL A   1     -26.011   1.016  25.124  0.00  0.00    +0.000 A 
ATOM     11  C   UNL A   1     -25.072  -0.232  27.315  0.00  0.00    +0.048 A 
ATOM     12  C   UNL A   1     -24.224  -0.127  26.244  0.00  0.00    +0.015 A 
ATOM     13  C   UNL A   1     -24.741   0.487  25.067  0.00  0.00    +0.001 A 
BRANCH   8  16
ATOM     14  C   UNL A   1     -28.016  -0.814  28.878  0.00  0.00    +0.000 A 
ATOM     15  C   UNL A   1     -28.469  -0.785  29.829  0.00  0.00    +0.000 A 
ATOM     16  C   UNL A   1     -27.087   0.290  28.638  0.00  0.00    +0.001 A 
ATOM     17  C   UNL A   1     -26.832   1.249  29.587  0.00  0.00    +0.000 A 
ATOM     18  C   UNL A   1     -28.391   0.080  31.006  0.00  0.00    +0.000 A 
ATOM     19  C   UNL A   1     -27.494   1.152  30.784  0.00  0.00    +0.000 A 
ENDBRANCH   8  16
ENDBRANCH   1  11
BRANCH   6  20
ATOM     20  N   UNL A   1     -24.847  -4.348  29.585  0.00  0.00    -0.213 NA
BRANCH  20  21
ATOM     21  C   UNL A   1     -26.163  -4.519  29.721  0.00  0.00    +0.115 C 
BRANCH  21  22
ATOM     22  C   UNL A   1     -26.890  -5.419  30.350  0.00  0.00    -0.007 C 
ATOM     23  C   UNL A   1     -28.324  -5.275  30.461  0.00  0.00    -0.003 C 
BRANCH  23  24
ATOM     24  C   UNL A   1     -29.255  -4.693  30.794  0.00  0.00    -0.000 C 
ATOM     25  C   UNL A   1     -30.497  -4.797  30.734  0.00  0.00    -0.000 C 
BRANCH  25  26
ATOM     26  C   UNL A   1     -30.950  -5.875  29.919  0.00  0.00    -0.000 C 
ATOM     27  C   UNL A   1     -30.212  -6.448  29.088  0.00  0.00    -0.000 C 
ENDBRANCH  25  26
ENDBRANCH  23  24
ENDBRANCH  21  22
ENDBRANCH  20  21
ENDBRANCH   6  20
TORSDOF 7
