MODEL 2131
MODEL 1
REMARK VINA RESULT:    -6.984      0.000      0.000
REMARK INTER + INTRA:         -11.917
REMARK INTER:                  -9.842
REMARK INTRA:                  -2.075
REMARK UNBOUND:                -2.075
REMARK  Name = No_2131-gen_results/8p0m/2024-11-26-14-13-15/
REMARK  7 active torsions:
REMARK  status: ('A' for Active; 'I' for Inactive)
REMARK    1  A    between atoms: C_3  and  C_7
REMARK    2  A    between atoms: C_10  and  N_13
REMARK    3  A    between atoms: C_18  and  N_19
REMARK    4  A    between atoms: N_19  and  C_21
REMARK    5  A    between atoms: C_21  and  C_22
REMARK    6  A    between atoms: C_23  and  C_24
REMARK    7  A    between atoms: C_25  and  C_26
REMARK                            x       y       z     vdW  Elec       q    Type
REMARK                         _______ _______ _______ _____ _____    ______ ____
ROOT
ATOM      1  N   UNL A   1     -24.015   1.100  26.640  0.00  0.00    -0.308 N 
ATOM      2  C   UNL A   1     -22.942   1.831  26.171  0.00  0.00    +0.073 C 
ATOM      3  C   UNL A   1     -22.801   2.354  25.091  0.00  0.00    +0.021 C 
ATOM      4  C   UNL A   1     -23.816   0.205  27.794  0.00  0.00    +0.108 C 
ATOM      5  C   UNL A   1     -21.929   2.052  27.256  0.00  0.00    +0.021 C 
ATOM      6  C   UNL A   1     -22.645  -0.091  28.191  0.00  0.00    +0.093 C 
ATOM      7  C   UNL A   1     -21.644   1.198  28.336  0.00  0.00    +0.021 C 
ENDROOT
BRANCH   1  11
ATOM      8  C   UNL A   1     -26.253   1.933  26.148  0.00  0.00    +0.013 A 
ATOM      9  C   UNL A   1     -27.342   1.847  25.516  0.00  0.00    +0.001 A 
ATOM     10  C   UNL A   1     -27.581   0.672  24.684  0.00  0.00    +0.000 A 
ATOM     11  C   UNL A   1     -25.252   0.983  25.995  0.00  0.00    +0.048 A 
ATOM     12  C   UNL A   1     -25.329  -0.045  25.093  0.00  0.00    +0.015 A 
ATOM     13  C   UNL A   1     -26.579  -0.240  24.439  0.00  0.00    +0.001 A 
BRANCH   8  16
ATOM     14  C   UNL A   1     -25.415   4.327  26.618  0.00  0.00    +0.000 A 
ATOM     15  C   UNL A   1     -25.318   5.054  27.375  0.00  0.00    +0.000 A 
ATOM     16  C   UNL A   1     -25.993   3.068  27.086  0.00  0.00    +0.001 A 
ATOM     17  C   UNL A   1     -26.383   2.883  28.390  0.00  0.00    +0.000 A 
ATOM     18  C   UNL A   1     -25.640   5.140  28.799  0.00  0.00    +0.000 A 
ATOM     19  C   UNL A   1     -26.200   3.925  29.262  0.00  0.00    +0.000 A 
ENDBRANCH   8  16
ENDBRANCH   1  11
BRANCH   6  20
ATOM     20  N   UNL A   1     -22.457  -0.955  29.247  0.00  0.00    -0.213 NA
BRANCH  20  21
ATOM     21  C   UNL A   1     -22.788  -0.538  30.470  0.00  0.00    +0.115 C 
BRANCH  21  22
ATOM     22  C   UNL A   1     -23.674  -0.955  31.350  0.00  0.00    -0.007 C 
ATOM     23  C   UNL A   1     -24.676  -1.934  30.994  0.00  0.00    -0.003 C 
BRANCH  23  24
ATOM     24  C   UNL A   1     -25.560  -2.283  30.351  0.00  0.00    -0.000 C 
ATOM     25  C   UNL A   1     -25.800  -3.133  29.470  0.00  0.00    -0.000 C 
BRANCH  25  26
ATOM     26  C   UNL A   1     -24.645  -3.822  28.998  0.00  0.00    -0.000 C 
ATOM     27  C   UNL A   1     -24.595  -5.067  28.902  0.00  0.00    -0.000 C 
ENDBRANCH  25  26
ENDBRANCH  23  24
ENDBRANCH  21  22
ENDBRANCH  20  21
ENDBRANCH   6  20
TORSDOF 7
ENDMDL
ENDMDL
