MODEL 2132
MODEL 1
REMARK VINA RESULT:    -6.513      0.000      0.000
REMARK INTER + INTRA:          -7.218
REMARK INTER:                  -6.893
REMARK INTRA:                  -0.324
REMARK UNBOUND:                -0.324
REMARK  Name = No_2132-gen_results/8p0m/2024-11-26-14-13-15/
REMARK  1 active torsions:
REMARK  status: ('A' for Active; 'I' for Inactive)
REMARK    1  A    between atoms: C_4  and  C_7
REMARK                            x       y       z     vdW  Elec       q    Type
REMARK                         _______ _______ _______ _____ _____    ______ ____
ROOT
ATOM      1  C   UNL A   1     -26.261  -3.871  29.723  0.00  0.00    +0.000 A 
ATOM      2  C   UNL A   1     -25.978  -4.873  29.558  0.00  0.00    +0.000 A 
ATOM      3  C   UNL A   1     -25.894  -2.522  29.493  0.00  0.00    +0.000 A 
ATOM      4  C   UNL A   1     -24.560  -2.472  28.973  0.00  0.00    +0.000 A 
ATOM      5  C   UNL A   1     -23.932  -3.730  28.694  0.00  0.00    +0.000 A 
ATOM      6  C   UNL A   1     -24.589  -4.931  28.944  0.00  0.00    +0.000 A 
ENDROOT
BRANCH   4   7
ATOM      7  C   UNL A   1     -23.881  -1.242  28.657  0.00  0.00    +0.000 A 
ATOM      8  C   UNL A   1     -24.276  -0.370  27.944  0.00  0.00    +0.000 A 
ATOM      9  C   UNL A   1     -23.423   0.807  27.554  0.00  0.00    +0.000 A 
ATOM     10  C   UNL A   1     -22.166   0.917  28.162  0.00  0.00    +0.000 A 
ATOM     11  C   UNL A   1     -22.479  -1.090  29.156  0.00  0.00    +0.000 A 
ATOM     12  C   UNL A   1     -21.685  -0.027  28.889  0.00  0.00    +0.000 A 
ENDBRANCH   4   7
TORSDOF 1
ENDMDL
ENDMDL
