REMARK  Name = No_2133-gen_results/8p0m/2024-11-26-14-13-15/
REMARK  0 active torsions:
REMARK  status: ('A' for Active; 'I' for Inactive)
REMARK                            x       y       z     vdW  Elec       q    Type
REMARK                         _______ _______ _______ _____ _____    ______ ____
ROOT
ATOM      1  O   UNL A   1     -28.123  -1.335  28.487  0.00  0.00    -0.275 OA
ATOM      2  C   UNL A   1     -27.481  -0.404  28.709  0.00  0.00    +0.229 C 
ATOM      3  N   UNL A   1     -27.241   0.391  29.510  0.00  0.00    -0.278 N 
ATOM      4  C   UNL A   1     -26.407  -0.107  27.450  0.00  0.00    +0.120 C 
ATOM      5  C   UNL A   1     -25.436   0.847  27.634  0.00  0.00    +0.172 C 
ATOM      6  C   UNL A   1     -25.424   1.627  28.763  0.00  0.00    +0.057 C 
ATOM      7  C   UNL A   1     -26.301   1.358  29.774  0.00  0.00    +0.096 C 
ATOM      8  F   UNL A   1     -24.585   1.072  26.655  0.00  0.00    -0.237 F 
ATOM      9  C   UNL A   1     -28.168   0.114  30.785  0.00  0.00    +0.115 C 
ENDROOT
TORSDOF 0
