REMARK  Name = No_2134-gen_results/8p0m/2024-11-26-14-13-15/
REMARK  4 active torsions:
REMARK  status: ('A' for Active; 'I' for Inactive)
REMARK    1  A    between atoms: C_2  and  C_3
REMARK    2  A    between atoms: C_9  and  C_15
REMARK    3  A    between atoms: C_15  and  C_16
REMARK    4  A    between atoms: C_15  and  C_22
REMARK                            x       y       z     vdW  Elec       q    Type
REMARK                         _______ _______ _______ _____ _____    ______ ____
ROOT
ATOM      1  C   UNL A   1     -26.380  -0.087  27.939  0.00  0.00    +0.065 A 
ATOM      2  C   UNL A   1     -25.128  -0.331  28.375  0.00  0.00    +0.006 A 
ATOM      3  C   UNL A   1     -23.907   0.301  27.733  0.00  0.00    +0.006 A 
ATOM      4  C   UNL A   1     -24.127   1.158  26.657  0.00  0.00    +0.034 A 
ATOM      5  C   UNL A   1     -25.427   1.427  26.252  0.00  0.00    +0.003 A 
ATOM      6  C   UNL A   1     -26.476   0.895  26.870  0.00  0.00    -0.005 A 
ATOM      7 BR   UNL A   1     -22.604   2.035  25.996  0.00  0.00    -0.049 Br
ATOM      8  C   UNL A   1     -22.596   0.043  28.367  0.00  0.00    +0.001 A 
ATOM      9  C   UNL A   1     -22.460  -0.985  29.315  0.00  0.00    +0.000 A 
ATOM     10  C   UNL A   1     -23.522  -1.393  30.080  0.00  0.00    +0.000 A 
ATOM     11  C   UNL A   1     -24.896  -1.196  29.514  0.00  0.00    +0.000 A 
ENDROOT
BRANCH   1  13
ATOM     12  O   UNL A   1     -28.123  -1.335  28.487  0.00  0.00    -0.254 OA
ATOM     13  C   UNL A   1     -27.481  -0.404  28.709  0.00  0.00    +0.333 C 
ATOM     14  F   UNL A   1     -27.731   0.345  29.848  0.00  0.00    -0.159 F 
ENDBRANCH   1  13
BRANCH   6  15
ATOM     15  C   UNL A   1     -27.808   1.184  26.271  0.00  0.00    +0.110 C 
BRANCH  15  16
ATOM     16  C   UNL A   1     -28.355   2.354  26.674  0.00  0.00    -0.011 A 
ATOM     17  C   UNL A   1     -29.289   2.619  27.041  0.00  0.00    -0.004 A 
ATOM     18  C   UNL A   1     -29.917   3.479  27.549  0.00  0.00    -0.000 A 
ATOM     19  C   UNL A   1     -29.238   4.837  27.465  0.00  0.00    -0.000 A 
ATOM     20  C   UNL A   1     -27.974   4.799  26.835  0.00  0.00    -0.000 A 
ATOM     21  C   UNL A   1     -27.476   3.626  26.482  0.00  0.00    -0.004 A 
ENDBRANCH  15  16
BRANCH  15  22
ATOM     22  C   UNL A   1     -28.395   0.313  25.439  0.00  0.00    +0.216 C 
ATOM     23  O   UNL A   1     -27.964  -0.071  24.427  0.00  0.00    -0.288 OA
ENDBRANCH  15  22
ENDBRANCH   6  15
TORSDOF 4
