MODEL 2134
MODEL 1
REMARK VINA RESULT:    -8.298      0.000      0.000
REMARK INTER + INTRA:         -11.184
REMARK INTER:                 -10.238
REMARK INTRA:                  -0.946
REMARK UNBOUND:                -0.946
REMARK  Name = No_2134-gen_results/8p0m/2024-11-26-14-13-15/
REMARK  4 active torsions:
REMARK  status: ('A' for Active; 'I' for Inactive)
REMARK    1  A    between atoms: C_2  and  C_3
REMARK    2  A    between atoms: C_9  and  C_15
REMARK    3  A    between atoms: C_15  and  C_16
REMARK    4  A    between atoms: C_15  and  C_22
REMARK                            x       y       z     vdW  Elec       q    Type
REMARK                         _______ _______ _______ _____ _____    ______ ____
ROOT
ATOM      1  C   UNL A   1     -23.612  -0.130  28.789  0.00  0.00    +0.065 A 
ATOM      2  C   UNL A   1     -23.338   0.615  27.700  0.00  0.00    +0.006 A 
ATOM      3  C   UNL A   1     -24.324   0.778  26.558  0.00  0.00    +0.006 A 
ATOM      4  C   UNL A   1     -25.546   0.119  26.675  0.00  0.00    +0.034 A 
ATOM      5  C   UNL A   1     -25.823  -0.608  27.824  0.00  0.00    +0.003 A 
ATOM      6  C   UNL A   1     -24.955  -0.688  28.827  0.00  0.00    -0.005 A 
ATOM      7 BR   UNL A   1     -26.791   0.474  25.315  0.00  0.00    -0.049 Br
ATOM      8  C   UNL A   1     -23.954   1.707  25.468  0.00  0.00    +0.001 A 
ATOM      9  C   UNL A   1     -22.630   2.160  25.346  0.00  0.00    +0.000 A 
ATOM     10  C   UNL A   1     -21.804   2.247  26.436  0.00  0.00    +0.000 A 
ATOM     11  C   UNL A   1     -22.082   1.329  27.588  0.00  0.00    +0.000 A 
ENDROOT
BRANCH   1  13
ATOM     12  O   UNL A   1     -21.989  -0.740  30.163  0.00  0.00    -0.254 OA
ATOM     13  C   UNL A   1     -22.860  -0.018  29.941  0.00  0.00    +0.333 C 
ATOM     14  F   UNL A   1     -23.081   1.067  30.774  0.00  0.00    -0.159 F 
ENDBRANCH   1  13
BRANCH   6  15
ATOM     15  C   UNL A   1     -25.335  -1.583  29.955  0.00  0.00    +0.110 C 
BRANCH  15  16
ATOM     16  C   UNL A   1     -25.311  -2.901  29.649  0.00  0.00    -0.011 A 
ATOM     17  C   UNL A   1     -25.938  -3.698  29.867  0.00  0.00    -0.004 A 
ATOM     18  C   UNL A   1     -26.186  -4.826  29.623  0.00  0.00    -0.000 A 
ATOM     19  C   UNL A   1     -25.063  -5.531  28.878  0.00  0.00    -0.000 A 
ATOM     20  C   UNL A   1     -23.963  -4.692  28.588  0.00  0.00    -0.000 A 
ATOM     21  C   UNL A   1     -24.049  -3.407  28.888  0.00  0.00    -0.004 A 
ENDBRANCH  15  16
BRANCH  15  22
ATOM     22  C   UNL A   1     -25.699  -1.081  31.143  0.00  0.00    +0.216 C 
ATOM     23  O   UNL A   1     -26.195  -0.044  31.330  0.00  0.00    -0.288 OA
ENDBRANCH  15  22
ENDBRANCH   6  15
TORSDOF 4
ENDMDL
ENDMDL
