REMARK  Name = No_2135-gen_results/8p0m/2024-11-26-14-13-15/
REMARK  6 active torsions:
REMARK  status: ('A' for Active; 'I' for Inactive)
REMARK    1  A    between atoms: C_2  and  C_11
REMARK    2  A    between atoms: C_3  and  C_7
REMARK    3  A    between atoms: C_6  and  C_14
REMARK    4  A    between atoms: C_14  and  O_16
REMARK    5  A    between atoms: O_16  and  C_17
REMARK    6  A    between atoms: C_17  and  C_18
REMARK                            x       y       z     vdW  Elec       q    Type
REMARK                         _______ _______ _______ _____ _____    ______ ____
ROOT
ATOM      1  C   UNL A   1     -27.260   2.349  31.575  0.00  0.00    +0.342 C 
ATOM      2  O   UNL A   1     -27.386   2.397  32.661  0.00  0.00    -0.245 OA
ENDROOT
BRANCH   1   8
ATOM      3  C   UNL A   1     -28.016  -0.814  28.878  0.00  0.00    +0.010 A 
ATOM      4  C   UNL A   1     -28.469  -0.785  29.829  0.00  0.00    +0.080 A 
ATOM      5  C   UNL A   1     -27.136   0.236  28.535  0.00  0.00    +0.072 A 
ATOM      6  C   UNL A   1     -26.875   1.282  29.398  0.00  0.00    +0.010 A 
ATOM      7  C   UNL A   1     -28.361   0.199  30.924  0.00  0.00    +0.013 A 
ATOM      8  C   UNL A   1     -27.528   1.223  30.636  0.00  0.00    +0.076 A 
BRANCH   5   9
ATOM      9  C   UNL A   1     -26.418   0.076  27.258  0.00  0.00    +0.419 C 
ATOM     10  F   UNL A   1     -25.343  -0.543  27.309  0.00  0.00    -0.166 F 
ATOM     11  F   UNL A   1     -25.934   1.371  26.805  0.00  0.00    -0.166 F 
ATOM     12  F   UNL A   1     -27.204  -0.222  26.211  0.00  0.00    -0.166 F 
ENDBRANCH   5   9
BRANCH   4  13
ATOM     13  C   UNL A   1     -29.411  -2.012  30.330  0.00  0.00    +0.388 C 
ATOM     14  O   UNL A   1     -30.488  -1.993  30.030  0.00  0.00    -0.241 OA
ATOM     15  O   UNL A   1     -28.953  -2.783  31.331  0.00  0.00    -0.241 OA
ENDBRANCH   4  13
ENDBRANCH   1   8
BRANCH   1  16
ATOM     16  O   UNL A   1     -26.385   3.248  31.007  0.00  0.00    -0.435 OA
BRANCH  16  17
ATOM     17  C   UNL A   1     -25.892   4.182  31.825  0.00  0.00    +0.293 C 
BRANCH  17  18
ATOM     18  C   UNL A   1     -26.114   5.570  31.514  0.00  0.00    +0.274 C 
ATOM     19  O   UNL A   1     -26.186   5.803  30.402  0.00  0.00    -0.271 OA
ATOM     20  N   UNL A   1     -26.360   6.455  32.513  0.00  0.00    -0.256 N 
ATOM     21  C   UNL A   1     -26.673   7.847  32.194  0.00  0.00    +0.099 C 
ATOM     22  C   UNL A   1     -27.208   8.390  32.918  0.00  0.00    +0.027 C 
ATOM     23  C   UNL A   1     -27.405   8.045  34.334  0.00  0.00    +0.029 C 
ATOM     24  C   UNL A   1     -27.033   6.703  34.664  0.00  0.00    -0.008 A 
ATOM     25  C   UNL A   1     -26.500   5.907  33.757  0.00  0.00    +0.050 A 
ATOM     26  C   UNL A   1     -27.222   6.221  36.089  0.00  0.00    -0.003 A 
ATOM     27  C   UNL A   1     -27.104   4.975  36.331  0.00  0.00    -0.000 A 
ATOM     28  C   UNL A   1     -26.480   4.127  35.298  0.00  0.00    +0.001 A 
ATOM     29  C   UNL A   1     -26.178   4.630  34.084  0.00  0.00    +0.015 A 
ENDBRANCH  17  18
ENDBRANCH  16  17
ENDBRANCH   1  16
TORSDOF 6
