REMARK  Name = No_2137-gen_results/8p0m/2024-11-26-14-13-15/
REMARK  4 active torsions:
REMARK  status: ('A' for Active; 'I' for Inactive)
REMARK    1  A    between atoms: C_3  and  O_15
REMARK    2  A    between atoms: C_4  and  C_8
REMARK    3  A    between atoms: O_15  and  C_16
REMARK    4  A    between atoms: C_16  and  C_17
REMARK                            x       y       z     vdW  Elec       q    Type
REMARK                         _______ _______ _______ _____ _____    ______ ____
ROOT
ATOM      1  C   UNL A   1     -28.016  -0.814  28.878  0.00  0.00    +0.067 A 
ATOM      2  C   UNL A   1     -28.469  -0.785  29.829  0.00  0.00    +0.143 A 
ATOM      3  C   UNL A   1     -26.504  -0.778  28.877  0.00  0.00    +0.143 A 
ATOM      4  C   UNL A   1     -25.810  -0.853  30.103  0.00  0.00    +0.054 A 
ATOM      5  C   UNL A   1     -27.991  -0.892  31.226  0.00  0.00    +0.030 A 
ATOM      6  C   UNL A   1     -26.604  -0.868  31.265  0.00  0.00    +0.007 A 
ATOM      7  F   UNL A   1     -29.920  -0.833  29.824  0.00  0.00    -0.204 F 
ENDROOT
BRANCH   4   8
ATOM      8  C   UNL A   1     -24.380  -0.802  30.142  0.00  0.00    +0.110 A 
ATOM      9  N   UNL A   1     -23.694  -1.497  30.715  0.00  0.00    -0.129 NA
ATOM     10  C   UNL A   1     -23.679   0.256  29.369  0.00  0.00    +0.060 A 
ATOM     11  C   UNL A   1     -22.312   0.101  29.429  0.00  0.00    +0.194 A 
ATOM     12  N   UNL A   1     -22.387  -1.510  30.897  0.00  0.00    -0.041 NA
ATOM     13  N   UNL A   1     -21.685  -0.711  30.182  0.00  0.00    -0.110 NA
ATOM     14  N   UNL A   1     -21.559   1.045  28.634  0.00  0.00    -0.105 NA
ENDBRANCH   4   8
BRANCH   3  15
ATOM     15  O   UNL A   1     -25.940  -0.664  27.649  0.00  0.00    -0.470 OA
BRANCH  15  16
ATOM     16  C   UNL A   1     -25.982   0.489  26.904  0.00  0.00    +0.232 C 
BRANCH  16  17
ATOM     17  C   UNL A   1     -26.709   0.634  25.914  0.00  0.00    +0.021 A 
ATOM     18  C   UNL A   1     -27.515  -0.467  25.436  0.00  0.00    -0.001 A 
ATOM     19  C   UNL A   1     -28.360  -0.314  24.293  0.00  0.00    -0.000 A 
ATOM     20  C   UNL A   1     -29.123   0.483  24.242  0.00  0.00    -0.000 A 
ATOM     21  C   UNL A   1     -28.634   1.885  24.692  0.00  0.00    -0.000 A 
ATOM     22  C   UNL A   1     -27.533   1.873  25.627  0.00  0.00    -0.001 A 
ENDBRANCH  16  17
ENDBRANCH  15  16
ENDBRANCH   3  15
TORSDOF 4
