MODEL 2137
MODEL 1
REMARK VINA RESULT:    -7.935      0.000      0.000
REMARK INTER + INTRA:         -10.336
REMARK INTER:                  -9.791
REMARK INTRA:                  -0.545
REMARK UNBOUND:                -0.545
REMARK  Name = No_2137-gen_results/8p0m/2024-11-26-14-13-15/
REMARK  4 active torsions:
REMARK  status: ('A' for Active; 'I' for Inactive)
REMARK    1  A    between atoms: C_3  and  O_15
REMARK    2  A    between atoms: C_4  and  C_8
REMARK    3  A    between atoms: O_15  and  C_16
REMARK    4  A    between atoms: C_16  and  C_17
REMARK                            x       y       z     vdW  Elec       q    Type
REMARK                         _______ _______ _______ _____ _____    ______ ____
ROOT
ATOM      1  C   UNL A   1     -22.627   0.881  27.910  0.00  0.00    +0.067 A 
ATOM      2  C   UNL A   1     -22.248   1.598  27.238  0.00  0.00    +0.143 A 
ATOM      3  C   UNL A   1     -24.074   0.493  27.700  0.00  0.00    +0.143 A 
ATOM      4  C   UNL A   1     -24.764   0.983  26.571  0.00  0.00    +0.054 A 
ATOM      5  C   UNL A   1     -22.731   2.226  25.987  0.00  0.00    +0.030 A 
ATOM      6  C   UNL A   1     -24.057   1.887  25.756  0.00  0.00    +0.007 A 
ATOM      7  F   UNL A   1     -20.856   1.957  27.436  0.00  0.00    -0.204 F 
ENDROOT
BRANCH   4   8
ATOM      8  C   UNL A   1     -26.139   0.652  26.350  0.00  0.00    +0.110 A 
ATOM      9  N   UNL A   1     -26.942   0.539  27.139  0.00  0.00    -0.129 NA
ATOM     10  C   UNL A   1     -26.606   0.423  24.958  0.00  0.00    +0.060 A 
ATOM     11  C   UNL A   1     -27.967   0.220  24.911  0.00  0.00    +0.194 A 
ATOM     12  N   UNL A   1     -28.207   0.166  27.078  0.00  0.00    -0.041 NA
ATOM     13  N   UNL A   1     -28.733   0.058  25.915  0.00  0.00    -0.110 NA
ATOM     14  N   UNL A   1     -28.513   0.070  23.581  0.00  0.00    -0.105 NA
ENDBRANCH   4   8
BRANCH   3  15
ATOM     15  O   UNL A   1     -24.590  -0.314  28.660  0.00  0.00    -0.470 OA
BRANCH  15  16
ATOM     16  C   UNL A   1     -24.024  -1.510  29.025  0.00  0.00    +0.232 C 
BRANCH  16  17
ATOM     17  C   UNL A   1     -24.582  -2.603  28.873  0.00  0.00    +0.021 A 
ATOM     18  C   UNL A   1     -23.799  -3.816  28.799  0.00  0.00    -0.001 A 
ATOM     19  C   UNL A   1     -24.431  -5.086  28.623  0.00  0.00    -0.000 A 
ATOM     20  C   UNL A   1     -25.218  -5.440  29.313  0.00  0.00    -0.000 A 
ATOM     21  C   UNL A   1     -26.303  -4.387  29.660  0.00  0.00    -0.000 A 
ATOM     22  C   UNL A   1     -25.871  -3.012  29.557  0.00  0.00    -0.001 A 
ENDBRANCH  16  17
ENDBRANCH  15  16
ENDBRANCH   3  15
TORSDOF 4
ENDMDL
ENDMDL
