REMARK  Name = No_2138-gen_results/8p0m/2024-11-26-14-13-15/
REMARK  3 active torsions:
REMARK  status: ('A' for Active; 'I' for Inactive)
REMARK    1  A    between atoms: C_3  and  C_4
REMARK    2  A    between atoms: C_4  and  C_9
REMARK    3  A    between atoms: C_9  and  C_10
REMARK                            x       y       z     vdW  Elec       q    Type
REMARK                         _______ _______ _______ _____ _____    ______ ____
ROOT
ATOM      1  C   UNL A   1     -26.128  -0.067  26.626  0.00  0.00    +0.031 C 
ENDROOT
BRANCH   1   2
ATOM      2  C   UNL A   1     -25.247  -0.246  27.755  0.00  0.00    -0.021 A 
ATOM      3  C   UNL A   1     -24.271   0.435  28.210  0.00  0.00    +0.013 A 
ATOM      4  C   UNL A   1     -23.950   1.754  27.609  0.00  0.00    +0.093 C 
ATOM      5  N   UNL A   1     -22.713   2.219  27.912  0.00  0.00    -0.264 NA
ATOM      6  C   UNL A   1     -23.032  -0.038  28.879  0.00  0.00    +0.003 A 
ATOM      7  C   UNL A   1     -23.080  -1.116  29.788  0.00  0.00    -0.002 A 
ATOM      8  C   UNL A   1     -21.967   0.966  28.899  0.00  0.00    +0.152 C 
ATOM      9  C   UNL A   1     -24.033  -2.082  29.521  0.00  0.00    -0.001 A 
ATOM     10  C   UNL A   1     -25.194  -1.702  28.467  0.00  0.00    -0.004 A 
ENDBRANCH   1   2
BRANCH   1  11
ATOM     11  C   UNL A   1     -27.442   0.510  26.795  0.00  0.00    +0.027 C 
ATOM     12  C   UNL A   1     -27.843   1.333  25.806  0.00  0.00    +0.005 C 
BRANCH  11  15
ATOM     13  C   UNL A   1     -28.016  -0.814  28.878  0.00  0.00    -0.004 A 
ATOM     14  C   UNL A   1     -28.469  -0.785  29.829  0.00  0.00    -0.000 A 
ATOM     15  C   UNL A   1     -28.196   0.348  28.055  0.00  0.00    -0.022 A 
ATOM     16  C   UNL A   1     -29.496   0.109  30.345  0.00  0.00    -0.000 A 
ATOM     17  C   UNL A   1     -29.728   1.187  29.569  0.00  0.00    -0.000 A 
ATOM     18  C   UNL A   1     -29.042   1.367  28.372  0.00  0.00    -0.004 A 
ENDBRANCH  11  15
ENDBRANCH   1  11
TORSDOF 3
