MODEL 2138
MODEL 1
REMARK VINA RESULT:    -7.577      0.000      0.000
REMARK INTER + INTRA:          -9.941
REMARK INTER:                  -8.906
REMARK INTRA:                  -1.035
REMARK UNBOUND:                -1.035
REMARK  Name = No_2138-gen_results/8p0m/2024-11-26-14-13-15/
REMARK  3 active torsions:
REMARK  status: ('A' for Active; 'I' for Inactive)
REMARK    1  A    between atoms: C_3  and  C_4
REMARK    2  A    between atoms: C_4  and  C_9
REMARK    3  A    between atoms: C_9  and  C_10
REMARK                            x       y       z     vdW  Elec       q    Type
REMARK                         _______ _______ _______ _____ _____    ______ ____
ROOT
ATOM      1  C   UNL A   1     -24.974  -0.270  29.379  0.00  0.00    +0.031 C 
ENDROOT
BRANCH   1   2
ATOM      2  C   UNL A   1     -24.655  -0.085  27.984  0.00  0.00    -0.021 A 
ATOM      3  C   UNL A   1     -23.764   0.598  27.382  0.00  0.00    +0.013 A 
ATOM      4  C   UNL A   1     -22.716   1.297  28.167  0.00  0.00    +0.093 C 
ATOM      5  N   UNL A   1     -22.053   2.260  27.480  0.00  0.00    -0.264 NA
ATOM      6  C   UNL A   1     -23.844   1.292  26.071  0.00  0.00    +0.003 A 
ATOM      7  C   UNL A   1     -24.532   0.699  24.991  0.00  0.00    -0.002 A 
ATOM      8  C   UNL A   1     -22.797   2.297  25.884  0.00  0.00    +0.152 C 
ATOM      9  C   UNL A   1     -25.620  -0.084  25.332  0.00  0.00    -0.001 A 
ATOM     10  C   UNL A   1     -25.754  -0.529  26.877  0.00  0.00    -0.004 A 
ENDBRANCH   1   2
BRANCH   1  11
ATOM     11  C   UNL A   1     -24.480  -1.416  30.107  0.00  0.00    +0.027 C 
ATOM     12  C   UNL A   1     -23.579  -1.143  31.072  0.00  0.00    +0.005 C 
BRANCH  11  15
ATOM     13  C   UNL A   1     -23.880  -3.564  28.903  0.00  0.00    -0.004 A 
ATOM     14  C   UNL A   1     -24.116  -4.583  28.774  0.00  0.00    -0.000 A 
ATOM     15  C   UNL A   1     -24.806  -2.794  29.684  0.00  0.00    -0.022 A 
ATOM     16  C   UNL A   1     -25.371  -5.285  29.001  0.00  0.00    -0.000 A 
ATOM     17  C   UNL A   1     -26.285  -4.570  29.689  0.00  0.00    -0.000 A 
ATOM     18  C   UNL A   1     -26.015  -3.267  30.095  0.00  0.00    -0.004 A 
ENDBRANCH  11  15
ENDBRANCH   1  11
TORSDOF 3
ENDMDL
ENDMDL
