MODEL 213
MODEL 1
REMARK VINA RESULT:    -6.310      0.000      0.000
REMARK INTER + INTRA:          -8.215
REMARK INTER:                  -7.785
REMARK INTRA:                  -0.430
REMARK UNBOUND:                -0.430
REMARK  Name = No_213-gen_results/8p0m/2024-11-26-14-13-15/
REMARK  4 active torsions:
REMARK  status: ('A' for Active; 'I' for Inactive)
REMARK    1  A    between atoms: C_3  and  C_8
REMARK    2  A    between atoms: C_6  and  O_7
REMARK    3  A    between atoms: O_7  and  C_14
REMARK    4  A    between atoms: C_14  and  C_15
REMARK                            x       y       z     vdW  Elec       q    Type
REMARK                         _______ _______ _______ _____ _____    ______ ____
ROOT
ATOM      1  C   UNL A   1     -22.959   0.681  28.877  0.00  0.00    +0.037 A 
ATOM      2  C   UNL A   1     -23.255  -0.446  29.201  0.00  0.00    +0.003 A 
ATOM      3  C   UNL A   1     -24.216  -1.211  28.541  0.00  0.00    +0.000 A 
ATOM      4  C   UNL A   1     -24.954  -0.621  27.441  0.00  0.00    +0.003 A 
ATOM      5  C   UNL A   1     -24.561   0.699  27.126  0.00  0.00    +0.037 A 
ATOM      6  C   UNL A   1     -23.648   1.341  27.810  0.00  0.00    +0.139 A 
ENDROOT
BRANCH   3   7
ATOM      7  C   UNL A   1     -24.635  -2.609  28.882  0.00  0.00    +0.000 A 
ATOM      8  C   UNL A   1     -23.872  -3.640  28.545  0.00  0.00    +0.000 A 
ATOM      9  C   UNL A   1     -24.196  -4.849  28.721  0.00  0.00    +0.000 A 
ATOM     10  C   UNL A   1     -25.448  -5.265  29.243  0.00  0.00    +0.000 A 
ATOM     11  C   UNL A   1     -25.845  -2.835  29.617  0.00  0.00    +0.000 A 
ATOM     12  C   UNL A   1     -26.275  -4.209  29.728  0.00  0.00    +0.000 A 
ENDBRANCH   3   7
BRANCH   6  13
ATOM     13  O   UNL A   1     -23.386   2.633  27.448  0.00  0.00    -0.464 OA
BRANCH  13  14
ATOM     14  C   UNL A   1     -24.265   3.383  26.799  0.00  0.00    +0.319 C 
BRANCH  14  15
ATOM     15  C   UNL A   1     -24.824   4.275  27.568  0.00  0.00    +0.408 C 
ATOM     16  O   UNL A   1     -25.341   4.003  28.586  0.00  0.00    -0.241 OA
ATOM     17  O   UNL A   1     -24.549   5.645  27.425  0.00  0.00    -0.241 OA
ENDBRANCH  14  15
ENDBRANCH  13  14
ENDBRANCH   6  13
TORSDOF 4
ENDMDL
ENDMDL
