REMARK  Name = No_214-gen_results/8p0m/2024-11-26-14-13-15/
REMARK  0 active torsions:
REMARK  status: ('A' for Active; 'I' for Inactive)
REMARK                            x       y       z     vdW  Elec       q    Type
REMARK                         _______ _______ _______ _____ _____    ______ ____
ROOT
ATOM      1  C   UNL A   1     -28.016  -0.814  28.878  0.00  0.00    -0.004 A 
ATOM      2  C   UNL A   1     -28.469  -0.785  29.829  0.00  0.00    -0.000 A 
ATOM      3  C   UNL A   1     -27.136   0.236  28.535  0.00  0.00    -0.021 A 
ATOM      4  C   UNL A   1     -26.875   1.282  29.398  0.00  0.00    -0.022 A 
ATOM      5  C   UNL A   1     -27.507   1.238  30.630  0.00  0.00    -0.004 A 
ATOM      6  C   UNL A   1     -28.329   0.174  30.935  0.00  0.00    -0.000 A 
ATOM      7  C   UNL A   1     -26.385   0.521  27.253  0.00  0.00    +0.052 C 
ATOM      8  C   UNL A   1     -25.153   0.609  27.213  0.00  0.00    -0.021 C 
ATOM      9  C   UNL A   1     -24.468   1.359  28.244  0.00  0.00    -0.005 C 
ATOM     10  C   UNL A   1     -24.875   1.742  29.245  0.00  0.00    -0.005 C 
ATOM     11  C   UNL A   1     -25.283   2.135  30.502  0.00  0.00    -0.022 C 
ATOM     12  C   UNL A   1     -25.540   1.497  29.975  0.00  0.00    +0.044 C 
ATOM     13  C   UNL A   1     -24.949   0.144  30.722  0.00  0.00    +0.009 C 
ENDROOT
TORSDOF 0
