REMARK  Name = No_2140-gen_results/8p0m/2024-11-26-14-13-15/
REMARK  4 active torsions:
REMARK  status: ('A' for Active; 'I' for Inactive)
REMARK    1  A    between atoms: C_1  and  C_2
REMARK    2  A    between atoms: C_1  and  C_8
REMARK    3  A    between atoms: C_5  and  C_10
REMARK    4  A    between atoms: C_8  and  C_9
REMARK                            x       y       z     vdW  Elec       q    Type
REMARK                         _______ _______ _______ _____ _____    ______ ____
ROOT
ATOM      1  C   UNL A   1     -27.064  -0.119  28.608  0.00  0.00    -0.022 A 
ATOM      2  C   UNL A   1     -27.001   0.691  27.491  0.00  0.00    -0.004 A 
ATOM      3  C   UNL A   1     -25.855   1.482  27.083  0.00  0.00    +0.006 A 
ATOM      4  C   UNL A   1     -24.690   1.453  27.881  0.00  0.00    +0.080 A 
ATOM      5  C   UNL A   1     -24.738   0.601  29.042  0.00  0.00    +0.006 A 
ATOM      6  C   UNL A   1     -25.823  -0.169  29.389  0.00  0.00    -0.004 A 
ENDROOT
BRANCH   4   7
ATOM      7  C   UNL A   1     -23.515   2.199  27.548  0.00  0.00    +0.388 C 
ATOM      8  O   UNL A   1     -23.424   2.786  26.434  0.00  0.00    -0.241 OA
ATOM      9  O   UNL A   1     -22.372   1.986  28.186  0.00  0.00    -0.241 OA
ENDBRANCH   4   7
BRANCH   1  10
ATOM     10  C   UNL A   1     -28.016  -0.814  28.878  0.00  0.00    +0.031 C 
BRANCH  10  11
ATOM     11  C   UNL A   1     -28.735  -0.464  30.142  0.00  0.00    +0.030 C 
BRANCH  11  12
ATOM     12  C   UNL A   1     -29.811  -1.305  30.601  0.00  0.00    -0.030 C 
ATOM     13  C   UNL A   1     -30.043  -2.383  29.931  0.00  0.00    -0.030 C 
ATOM     14  C   UNL A   1     -29.277  -3.007  29.119  0.00  0.00    +0.030 C 
ENDBRANCH  11  12
ENDBRANCH  10  11
ENDBRANCH   1  10
TORSDOF 4
