MODEL 2140
MODEL 1
REMARK VINA RESULT:    -5.941      0.000      0.000
REMARK INTER + INTRA:          -7.964
REMARK INTER:                  -7.330
REMARK INTRA:                  -0.634
REMARK UNBOUND:                -0.634
REMARK  Name = No_2140-gen_results/8p0m/2024-11-26-14-13-15/
REMARK  4 active torsions:
REMARK  status: ('A' for Active; 'I' for Inactive)
REMARK    1  A    between atoms: C_1  and  C_2
REMARK    2  A    between atoms: C_1  and  C_8
REMARK    3  A    between atoms: C_5  and  C_10
REMARK    4  A    between atoms: C_8  and  C_9
REMARK                            x       y       z     vdW  Elec       q    Type
REMARK                         _______ _______ _______ _____ _____    ______ ____
ROOT
ATOM      1  C   UNL A   1     -29.851 -10.491  30.433  0.00  0.00    -0.022 A 
ATOM      2  C   UNL A   1     -29.900  -9.868  31.665  0.00  0.00    -0.004 A 
ATOM      3  C   UNL A   1     -29.097 -10.217  32.822  0.00  0.00    +0.006 A 
ATOM      4  C   UNL A   1     -28.184 -11.290  32.718  0.00  0.00    +0.080 A 
ATOM      5  C   UNL A   1     -28.114 -11.940  31.434  0.00  0.00    +0.006 A 
ATOM      6  C   UNL A   1     -28.858 -11.568  30.340  0.00  0.00    -0.004 A 
ENDROOT
BRANCH   4   7
ATOM      7  C   UNL A   1     -27.352 -11.696  33.809  0.00  0.00    +0.388 C 
ATOM      8  O   UNL A   1     -26.931 -10.847  34.643  0.00  0.00    -0.241 OA
ATOM      9  O   UNL A   1     -26.692 -12.846  33.768  0.00  0.00    -0.241 OA
ENDBRANCH   4   7
BRANCH   1  10
ATOM     10  C   UNL A   1     -30.490 -10.127  29.473  0.00  0.00    +0.031 C 
BRANCH  10  11
ATOM     11  C   UNL A   1     -30.702 -11.157  28.410  0.00  0.00    +0.030 C 
BRANCH  11  12
ATOM     12  C   UNL A   1     -30.373 -10.842  27.043  0.00  0.00    -0.030 C 
ATOM     13  C   UNL A   1     -29.497 -11.589  26.460  0.00  0.00    -0.030 C 
ATOM     14  C   UNL A   1     -29.104 -12.764  26.776  0.00  0.00    +0.030 C 
ENDBRANCH  11  12
ENDBRANCH  10  11
ENDBRANCH   1  10
TORSDOF 4
ENDMDL
ENDMDL
