MODEL 2141
MODEL 1
REMARK VINA RESULT:    -5.975      0.000      0.000
REMARK INTER + INTRA:          -7.554
REMARK INTER:                  -7.023
REMARK INTRA:                  -0.531
REMARK UNBOUND:                -0.531
REMARK  Name = No_2141-gen_results/8p0m/2024-11-26-14-13-15/
REMARK  3 active torsions:
REMARK  status: ('A' for Active; 'I' for Inactive)
REMARK    1  A    between atoms: C_3  and  C_7
REMARK    2  A    between atoms: C_8  and  C_9
REMARK    3  A    between atoms: C_10  and  C_11
REMARK                            x       y       z     vdW  Elec       q    Type
REMARK                         _______ _______ _______ _____ _____    ______ ____
ROOT
ATOM      1  C   UNL A   1     -24.461   0.236  27.127  0.00  0.00    +0.000 A 
ATOM      2  C   UNL A   1     -24.377   0.937  26.344  0.00  0.00    +0.000 A 
ATOM      3  C   UNL A   1     -23.441   0.213  28.103  0.00  0.00    +0.000 A 
ATOM      4  C   UNL A   1     -22.354   1.063  28.044  0.00  0.00    +0.000 A 
ATOM      5  C   UNL A   1     -23.338   1.944  26.053  0.00  0.00    +0.000 A 
ATOM      6  C   UNL A   1     -22.340   1.954  26.964  0.00  0.00    +0.000 A 
ENDROOT
BRANCH   3   7
ATOM      7  C   UNL A   1     -23.463  -0.700  29.296  0.00  0.00    +0.000 C 
ATOM      8  C   UNL A   1     -23.339  -1.918  29.116  0.00  0.00    +0.000 C 
BRANCH   8   9
ATOM      9  C   UNL A   1     -23.859  -2.899  28.955  0.00  0.00    +0.000 C 
ATOM     10  C   UNL A   1     -25.116  -3.251  29.555  0.00  0.00    +0.000 C 
BRANCH  10  11
ATOM     11  C   UNL A   1     -25.711  -4.539  29.377  0.00  0.00    +0.000 C 
ATOM     12  C   UNL A   1     -24.880  -5.529  28.973  0.00  0.00    +0.000 C 
ENDBRANCH  10  11
ENDBRANCH   8   9
ENDBRANCH   3   7
TORSDOF 3
ENDMDL
ENDMDL
