REMARK  Name = No_2141-gen_results/8p0m/2024-11-26-14-13-15/
REMARK  3 active torsions:
REMARK  status: ('A' for Active; 'I' for Inactive)
REMARK    1  A    between atoms: C_3  and  C_7
REMARK    2  A    between atoms: C_8  and  C_9
REMARK    3  A    between atoms: C_10  and  C_11
REMARK                            x       y       z     vdW  Elec       q    Type
REMARK                         _______ _______ _______ _____ _____    ______ ____
ROOT
ATOM      1  C   UNL A   1     -28.016  -0.814  28.878  0.00  0.00    +0.000 A 
ATOM      2  C   UNL A   1     -28.469  -0.785  29.829  0.00  0.00    +0.000 A 
ATOM      3  C   UNL A   1     -27.136   0.236  28.535  0.00  0.00    +0.000 A 
ATOM      4  C   UNL A   1     -26.875   1.282  29.398  0.00  0.00    +0.000 A 
ATOM      5  C   UNL A   1     -28.361   0.199  30.924  0.00  0.00    +0.000 A 
ATOM      6  C   UNL A   1     -27.528   1.223  30.636  0.00  0.00    +0.000 A 
ENDROOT
BRANCH   3   7
ATOM      7  C   UNL A   1     -26.388   0.291  27.233  0.00  0.00    +0.000 C 
ATOM      8  C   UNL A   1     -25.151   0.303  27.256  0.00  0.00    +0.000 C 
BRANCH   8   9
ATOM      9  C   UNL A   1     -24.220   0.928  27.268  0.00  0.00    +0.000 C 
ATOM     10  C   UNL A   1     -24.126   2.241  26.690  0.00  0.00    +0.000 C 
BRANCH  10  11
ATOM     11  C   UNL A   1     -22.900   2.977  26.668  0.00  0.00    +0.000 C 
ATOM     12  C   UNL A   1     -21.834   2.376  27.247  0.00  0.00    +0.000 C 
ENDBRANCH  10  11
ENDBRANCH   8   9
ENDBRANCH   3   7
TORSDOF 3
