REMARK  Name = No_2142-gen_results/8p0m/2024-11-26-14-13-15/
REMARK  4 active torsions:
REMARK  status: ('A' for Active; 'I' for Inactive)
REMARK    1  A    between atoms: C_4  and  C_19
REMARK    2  A    between atoms: C_10  and  C_25
REMARK    3  A    between atoms: N_27  and  C_28
REMARK    4  A    between atoms: C_32  and  C_34
REMARK                            x       y       z     vdW  Elec       q    Type
REMARK                         _______ _______ _______ _____ _____    ______ ____
ROOT
ATOM      1  C   UNL A   1     -28.016  -0.814  28.878  0.00  0.00    +0.041 A 
ATOM      2  C   UNL A   1     -28.469  -0.785  29.829  0.00  0.00    +0.179 A 
ATOM      3  C   UNL A   1     -26.546  -0.876  28.850  0.00  0.00    +0.003 A 
ATOM      4  C   UNL A   1     -25.804  -1.032  30.057  0.00  0.00    +0.003 A 
ATOM      5  C   UNL A   1     -27.944  -0.987  31.207  0.00  0.00    +0.179 A 
ATOM      6  C   UNL A   1     -26.582  -1.039  31.223  0.00  0.00    +0.041 A 
ATOM      7  O   UNL A   1     -29.927  -0.726  29.877  0.00  0.00    -0.450 OA
ATOM      8  C   UNL A   1     -30.526   0.422  30.241  0.00  0.00    +0.148 A 
ATOM      9  C   UNL A   1     -31.609   0.542  29.985  0.00  0.00    +0.042 A 
ATOM     10  C   UNL A   1     -32.322   1.829  30.298  0.00  0.00    +0.058 A 
ATOM     11  C   UNL A   1     -31.573   2.833  30.928  0.00  0.00    +0.005 A 
ATOM     12  C   UNL A   1     -30.240   2.581  31.192  0.00  0.00    +0.006 A 
ATOM     13  C   UNL A   1     -29.645   1.421  30.872  0.00  0.00    +0.069 A 
ATOM     14  C   UNL A   1     -29.415   3.619  31.876  0.00  0.00    +0.000 A 
ATOM     15  C   UNL A   1     -28.136   3.431  32.032  0.00  0.00    +0.003 A 
ATOM     16  C   UNL A   1     -27.574   2.120  31.603  0.00  0.00    +0.038 A 
ATOM     17  C   UNL A   1     -28.283   1.231  31.095  0.00  0.00    +0.148 A 
ATOM     18  O   UNL A   1     -27.731   0.260  31.530  0.00  0.00    -0.450 OA
ENDROOT
BRANCH   4  19
ATOM     19  C   UNL A   1     -24.400  -1.242  30.120  0.00  0.00    +0.000 A 
ATOM     20  C   UNL A   1     -23.575  -0.824  30.956  0.00  0.00    +0.000 A 
ATOM     21  C   UNL A   1     -22.509  -0.252  30.808  0.00  0.00    +0.000 A 
ATOM     22  C   UNL A   1     -21.800  -0.421  29.513  0.00  0.00    +0.000 A 
ATOM     23  C   UNL A   1     -23.785  -1.748  28.888  0.00  0.00    +0.000 A 
ATOM     24  C   UNL A   1     -22.468  -1.159  28.607  0.00  0.00    +0.000 A 
ENDBRANCH   4  19
BRANCH  10  25
ATOM     25  C   UNL A   1     -33.750   2.021  30.003  0.00  0.00    +0.269 C 
ATOM     26  O   UNL A   1     -34.230   1.856  29.064  0.00  0.00    -0.268 OA
ATOM     27  N   UNL A   1     -34.466   2.498  31.143  0.00  0.00    -0.175 NA
BRANCH  27  28
ATOM     28  C   UNL A   1     -35.850   2.737  31.079  0.00  0.00    +0.074 A 
ATOM     29  C   UNL A   1     -36.558   2.884  31.846  0.00  0.00    +0.017 A 
ATOM     30  C   UNL A   1     -37.955   3.079  31.735  0.00  0.00    +0.001 A 
ATOM     31  C   UNL A   1     -38.461   3.061  30.420  0.00  0.00    +0.000 A 
ATOM     32  C   UNL A   1     -37.581   2.848  29.398  0.00  0.00    +0.001 A 
ATOM     33  C   UNL A   1     -36.294   2.705  29.633  0.00  0.00    +0.017 A 
BRANCH  32  34
ATOM     34  C   UNL A   1     -38.106   2.834  28.022  0.00  0.00    +0.000 C 
ATOM     35  C   UNL A   1     -39.248   3.173  27.695  0.00  0.00    +0.000 C 
ENDBRANCH  32  34
ENDBRANCH  27  28
ENDBRANCH  10  25
TORSDOF 4
