MODEL 2143
MODEL 1
REMARK VINA RESULT:    -8.397      0.000      0.000
REMARK INTER + INTRA:         -10.521
REMARK INTER:                  -9.869
REMARK INTRA:                  -0.652
REMARK UNBOUND:                -0.652
REMARK  Name = No_2143-gen_results/8p0m/2024-11-26-14-13-15/
REMARK  3 active torsions:
REMARK  status: ('A' for Active; 'I' for Inactive)
REMARK    1  A    between atoms: C_2  and  C_15
REMARK    2  A    between atoms: N_11  and  C_12
REMARK    3  A    between atoms: N_17  and  C_18
REMARK                            x       y       z     vdW  Elec       q    Type
REMARK                         _______ _______ _______ _____ _____    ______ ____
ROOT
ATOM      1  C   UNL A   1      -7.098 -24.939  22.237  0.00  0.00    +0.269 C 
ATOM      2  O   UNL A   1      -6.396 -25.270  21.471  0.00  0.00    -0.268 OA
ATOM      3  N   UNL A   1      -7.004 -25.369  23.566  0.00  0.00    -0.175 NA
ENDROOT
BRANCH   3   4
ATOM      4  C   UNL A   1      -6.390 -26.105  24.079  0.00  0.00    +0.073 A 
ATOM      5  C   UNL A   1      -6.718 -27.302  24.247  0.00  0.00    +0.013 A 
ATOM      6  C   UNL A   1      -6.057 -28.393  24.876  0.00  0.00    -0.015 A 
ATOM      7  C   UNL A   1      -4.764 -28.033  25.379  0.00  0.00    +0.050 A 
ATOM      8  C   UNL A   1      -4.296 -26.761  25.200  0.00  0.00    +0.005 A 
ATOM      9  C   UNL A   1      -5.048 -25.812  24.594  0.00  0.00    +0.017 A 
ATOM     10  C   UNL A   1      -3.956 -29.065  26.061  0.00  0.00    +0.249 C 
ATOM     11  N   UNL A   1      -4.511 -29.924  26.735  0.00  0.00    -0.277 N 
ATOM     12  O   UNL A   1      -2.715 -28.963  25.947  0.00  0.00    -0.270 OA
ATOM     13  C   UNL A   1      -3.786 -30.976  27.455  0.00  0.00    +0.094 C 
ATOM     14  C   UNL A   1      -4.474 -31.986  27.753  0.00  0.00    +0.022 C 
ATOM     15  C   UNL A   1      -5.918 -32.083  27.625  0.00  0.00    +0.004 C 
ATOM     16  C   UNL A   1      -6.549 -31.023  26.937  0.00  0.00    +0.020 C 
ATOM     17  C   UNL A   1      -5.889 -30.031  26.497  0.00  0.00    +0.080 C 
ATOM     18  C   UNL A   1      -6.620 -29.211  25.633  0.00  0.00    +0.041 C 
ATOM     19  C   UNL A   1      -7.848 -29.949  25.247  0.00  0.00    +0.006 C 
ENDBRANCH   3   4
BRANCH   1  21
ATOM     20  C   UNL A   1      -9.181 -24.369  21.523  0.00  0.00    +0.006 A 
ATOM     21  C   UNL A   1      -8.375 -23.990  22.088  0.00  0.00    +0.055 A 
ATOM     22  C   UNL A   1     -10.369 -23.443  21.384  0.00  0.00    +0.019 A 
ATOM     23  C   UNL A   1     -11.642 -23.772  20.794  0.00  0.00    +0.100 A 
ATOM     24  C   UNL A   1      -8.080 -22.643  22.592  0.00  0.00    +0.005 A 
ATOM     25  C   UNL A   1      -9.108 -21.732  22.476  0.00  0.00    +0.000 A 
ATOM     26  C   UNL A   1     -10.274 -22.081  21.845  0.00  0.00    +0.004 A 
ATOM     27  N   UNL A   1     -12.633 -22.919  20.861  0.00  0.00    -0.228 NA
ATOM     28  C   UNL A   1     -12.524 -21.620  21.231  0.00  0.00    +0.152 A 
ATOM     29  C   UNL A   1     -11.352 -21.183  21.844  0.00  0.00    +0.036 A 
ATOM     30  N   UNL A   1     -13.636 -20.827  21.190  0.00  0.00    -0.158 NA
BRANCH  30  31
ATOM     31  C   UNL A   1     -14.829 -21.182  21.769  0.00  0.00    +0.419 C 
ATOM     32  F   UNL A   1     -15.149 -20.660  22.860  0.00  0.00    -0.173 F 
ATOM     33  F   UNL A   1     -15.574 -22.086  21.301  0.00  0.00    -0.173 F 
ENDBRANCH  30  31
ENDBRANCH   1  21
TORSDOF 3
ENDMDL
ENDMDL
