REMARK  Name = No_2143-gen_results/8p0m/2024-11-26-14-13-15/
REMARK  3 active torsions:
REMARK  status: ('A' for Active; 'I' for Inactive)
REMARK    1  A    between atoms: C_2  and  C_15
REMARK    2  A    between atoms: N_11  and  C_12
REMARK    3  A    between atoms: N_17  and  C_18
REMARK                            x       y       z     vdW  Elec       q    Type
REMARK                         _______ _______ _______ _____ _____    ______ ____
ROOT
ATOM      1  C   UNL A   1     -30.066  -0.840  29.863  0.00  0.00    +0.269 C 
ATOM      2  O   UNL A   1     -30.718  -1.659  30.169  0.00  0.00    -0.268 OA
ATOM      3  N   UNL A   1     -30.573   0.368  29.369  0.00  0.00    -0.175 NA
ENDROOT
BRANCH   3   4
ATOM      4  C   UNL A   1     -31.567   0.713  29.096  0.00  0.00    +0.073 A 
ATOM      5  C   UNL A   1     -31.804   1.809  28.539  0.00  0.00    +0.013 A 
ATOM      6  C   UNL A   1     -33.016   2.418  28.109  0.00  0.00    -0.015 A 
ATOM      7  C   UNL A   1     -34.160   1.588  28.346  0.00  0.00    +0.050 A 
ATOM      8  C   UNL A   1     -33.997   0.351  28.906  0.00  0.00    +0.005 A 
ATOM      9  C   UNL A   1     -32.777  -0.095  29.286  0.00  0.00    +0.017 A 
ATOM     10  C   UNL A   1     -35.493   2.088  27.952  0.00  0.00    +0.249 C 
ATOM     11  N   UNL A   1     -35.742   3.285  28.036  0.00  0.00    -0.277 N 
ATOM     12  O   UNL A   1     -36.326   1.227  27.596  0.00  0.00    -0.270 OA
ATOM     13  C   UNL A   1     -37.041   3.864  27.679  0.00  0.00    +0.094 C 
ATOM     14  C   UNL A   1     -37.023   5.098  27.433  0.00  0.00    +0.022 C 
ATOM     15  C   UNL A   1     -35.896   5.983  27.674  0.00  0.00    +0.004 C 
ATOM     16  C   UNL A   1     -34.683   5.354  28.034  0.00  0.00    +0.020 C 
ATOM     17  C   UNL A   1     -34.605   4.094  28.174  0.00  0.00    +0.080 C 
ATOM     18  C   UNL A   1     -33.293   3.623  28.281  0.00  0.00    +0.041 C 
ATOM     19  C   UNL A   1     -32.387   4.723  27.867  0.00  0.00    +0.006 C 
ENDBRANCH   3   4
BRANCH   1  21
ATOM     20  C   UNL A   1     -28.016  -0.814  28.878  0.00  0.00    +0.006 A 
ATOM     21  C   UNL A   1     -28.469  -0.785  29.829  0.00  0.00    +0.055 A 
ATOM     22  C   UNL A   1     -26.504  -0.778  28.877  0.00  0.00    +0.019 A 
ATOM     23  C   UNL A   1     -25.654  -0.660  27.719  0.00  0.00    +0.100 A 
ATOM     24  C   UNL A   1     -27.918  -0.937  31.182  0.00  0.00    +0.005 A 
ATOM     25  C   UNL A   1     -26.542  -0.940  31.261  0.00  0.00    +0.000 A 
ATOM     26  C   UNL A   1     -25.783  -0.893  30.120  0.00  0.00    +0.004 A 
ATOM     27  N   UNL A   1     -24.363  -0.503  27.869  0.00  0.00    -0.228 NA
ATOM     28  C   UNL A   1     -23.682  -0.678  29.028  0.00  0.00    +0.152 A 
ATOM     29  C   UNL A   1     -24.389  -0.774  30.224  0.00  0.00    +0.036 A 
ATOM     30  N   UNL A   1     -22.323  -0.544  29.021  0.00  0.00    -0.158 NA
BRANCH  30  31
ATOM     31  C   UNL A   1     -21.682   0.546  28.485  0.00  0.00    +0.419 C 
ATOM     32  F   UNL A   1     -20.433   0.540  28.421  0.00  0.00    -0.173 F 
ATOM     33  F   UNL A   1     -22.291   1.597  28.144  0.00  0.00    -0.173 F 
ENDBRANCH  30  31
ENDBRANCH   1  21
TORSDOF 3
