MODEL 2144
MODEL 1
REMARK VINA RESULT:    -5.993      0.000      0.000
REMARK INTER + INTRA:          -6.956
REMARK INTER:                  -6.694
REMARK INTRA:                  -0.262
REMARK UNBOUND:                -0.262
REMARK  Name = No_2144-gen_results/8p0m/2024-11-26-14-13-15/
REMARK  2 active torsions:
REMARK  status: ('A' for Active; 'I' for Inactive)
REMARK    1  A    between atoms: C_2  and  C_7
REMARK    2  A    between atoms: C_6  and  C_11
REMARK                            x       y       z     vdW  Elec       q    Type
REMARK                         _______ _______ _______ _____ _____    ______ ____
ROOT
ATOM      1  C   UNL A   1     -28.305 -11.796  30.815  0.00  0.00    +0.010 A 
ATOM      2  C   UNL A   1     -29.136 -11.189  30.181  0.00  0.00    +0.072 A 
ATOM      3  C   UNL A   1     -29.993 -10.285  30.800  0.00  0.00    +0.004 A 
ATOM      4  C   UNL A   1     -29.784  -9.879  32.018  0.00  0.00    +0.000 A 
ATOM      5  C   UNL A   1     -28.818 -10.589  32.812  0.00  0.00    +0.007 A 
ATOM      6  C   UNL A   1     -28.124 -11.534  32.214  0.00  0.00    +0.080 A 
ENDROOT
BRANCH   2   7
ATOM      7  C   UNL A   1     -29.461 -11.479  28.727  0.00  0.00    +0.419 C 
ATOM      8  F   UNL A   1     -28.658 -11.846  28.143  0.00  0.00    -0.166 F 
ATOM      9  F   UNL A   1     -30.451 -12.491  28.773  0.00  0.00    -0.166 F 
ATOM     10  F   UNL A   1     -30.160 -10.453  28.132  0.00  0.00    -0.166 F 
ENDBRANCH   2   7
BRANCH   6  11
ATOM     11  C   UNL A   1     -27.200 -12.303  33.111  0.00  0.00    +0.388 C 
ATOM     12  O   UNL A   1     -26.487 -13.076  32.717  0.00  0.00    -0.241 OA
ATOM     13  O   UNL A   1     -27.521 -12.317  34.420  0.00  0.00    -0.241 OA
ENDBRANCH   6  11
TORSDOF 2
ENDMDL
ENDMDL
