MODEL 2145
MODEL 1
REMARK VINA RESULT:    -6.964      0.000      0.000
REMARK INTER + INTRA:          -7.698
REMARK INTER:                  -7.371
REMARK INTRA:                  -0.327
REMARK UNBOUND:                -0.327
REMARK  Name = No_2145-gen_results/8p0m/2024-11-26-14-13-15/
REMARK  1 active torsions:
REMARK  status: ('A' for Active; 'I' for Inactive)
REMARK    1  A    between atoms: C_4  and  C_7
REMARK                            x       y       z     vdW  Elec       q    Type
REMARK                         _______ _______ _______ _____ _____    ______ ____
ROOT
ATOM      1  C   UNL A   1     -24.374   0.963  26.011  0.00  0.00    +0.011 A 
ATOM      2  C   UNL A   1     -23.462   1.406  26.298  0.00  0.00    +0.058 A 
ATOM      3  C   UNL A   1     -24.844  -0.180  26.883  0.00  0.00    +0.001 A 
ATOM      4  C   UNL A   1     -24.139  -0.481  28.067  0.00  0.00    -0.004 A 
ATOM      5  C   UNL A   1     -22.569   1.309  27.474  0.00  0.00    +0.011 A 
ATOM      6  C   UNL A   1     -22.973   0.271  28.303  0.00  0.00    +0.001 A 
ATOM      7 CL   UNL A   1     -22.889   2.793  25.222  0.00  0.00    -0.082 Cl
ENDROOT
BRANCH   4   8
ATOM      8  C   UNL A   1     -24.524  -1.557  28.916  0.00  0.00    -0.022 C 
ATOM      9  C   UNL A   1     -25.727  -1.882  29.144  0.00  0.00    -0.005 C 
ATOM     10  C   UNL A   1     -26.108  -3.080  29.913  0.00  0.00    -0.005 C 
ATOM     11  C   UNL A   1     -23.898  -2.890  28.827  0.00  0.00    +0.027 C 
ATOM     12  C   UNL A   1     -26.277  -4.116  29.750  0.00  0.00    -0.026 C 
ATOM     13  C   UNL A   1     -25.151  -4.811  29.105  0.00  0.00    +0.026 C 
ATOM     14  C   UNL A   1     -24.123  -4.227  28.829  0.00  0.00    +0.009 C 
ENDBRANCH   4   8
TORSDOF 1
ENDMDL
ENDMDL
