REMARK  Name = No_2146-gen_results/8p0m/2024-11-26-14-13-15/
REMARK  4 active torsions:
REMARK  status: ('A' for Active; 'I' for Inactive)
REMARK    1  A    between atoms: C_4  and  C_5
REMARK    2  A    between atoms: C_5  and  C_8
REMARK    3  A    between atoms: C_5  and  C_9
REMARK    4  A    between atoms: C_9  and  C_10
REMARK                            x       y       z     vdW  Elec       q    Type
REMARK                         _______ _______ _______ _____ _____    ______ ____
ROOT
ATOM      1  C   UNL A   1     -25.933  -0.510  27.418  0.00  0.00    +0.067 C 
ENDROOT
BRANCH   1   5
ATOM      2  N   UNL A   1     -28.054  -1.050  28.725  0.00  0.00    -0.248 NA
ATOM      3  C   UNL A   1     -28.654  -0.567  29.508  0.00  0.00    +0.099 A 
ATOM      4  C   UNL A   1     -28.875   0.277  30.055  0.00  0.00    +0.021 A 
ATOM      5  C   UNL A   1     -27.023  -0.158  28.281  0.00  0.00    +0.063 A 
ATOM      6  C   UNL A   1     -26.951   1.133  28.704  0.00  0.00    +0.015 A 
ATOM      7  C   UNL A   1     -27.951   1.425  29.721  0.00  0.00    +0.003 A 
ENDBRANCH   1   5
BRANCH   1   8
ATOM      8  C   UNL A   1     -24.696  -0.940  27.996  0.00  0.00    -0.017 A 
ATOM      9  C   UNL A   1     -24.229  -1.308  28.985  0.00  0.00    -0.004 A 
ATOM     10  C   UNL A   1     -22.912  -1.472  29.427  0.00  0.00    -0.000 A 
ATOM     11  C   UNL A   1     -22.000  -0.525  28.891  0.00  0.00    -0.000 A 
ATOM     12  C   UNL A   1     -22.409   0.461  27.963  0.00  0.00    -0.000 A 
ATOM     13  C   UNL A   1     -23.697  -0.328  27.148  0.00  0.00    -0.004 A 
ENDBRANCH   1   8
BRANCH   1  14
ATOM     14  C   UNL A   1     -26.018  -0.638  26.215  0.00  0.00    +0.037 C 
BRANCH  14  15
ATOM     15  C   UNL A   1     -27.037   0.092  25.400  0.00  0.00    -0.021 A 
ATOM     16  C   UNL A   1     -27.613  -0.353  24.327  0.00  0.00    -0.004 A 
ATOM     17  C   UNL A   1     -28.757   0.374  23.780  0.00  0.00    -0.000 A 
ATOM     18  C   UNL A   1     -29.100   1.612  24.378  0.00  0.00    -0.000 A 
ATOM     19  C   UNL A   1     -28.468   2.129  25.454  0.00  0.00    -0.000 A 
ATOM     20  C   UNL A   1     -27.438   1.387  26.023  0.00  0.00    -0.004 A 
ENDBRANCH  14  15
ENDBRANCH   1  14
TORSDOF 4
