MODEL 2146
MODEL 1
REMARK VINA RESULT:    -7.838      0.000      0.000
REMARK INTER + INTRA:         -10.919
REMARK INTER:                  -9.670
REMARK INTRA:                  -1.249
REMARK UNBOUND:                -1.249
REMARK  Name = No_2146-gen_results/8p0m/2024-11-26-14-13-15/
REMARK  4 active torsions:
REMARK  status: ('A' for Active; 'I' for Inactive)
REMARK    1  A    between atoms: C_4  and  C_5
REMARK    2  A    between atoms: C_5  and  C_8
REMARK    3  A    between atoms: C_5  and  C_9
REMARK    4  A    between atoms: C_9  and  C_10
REMARK                            x       y       z     vdW  Elec       q    Type
REMARK                         _______ _______ _______ _____ _____    ______ ____
ROOT
ATOM      1  C   UNL A   1     -24.458  -0.506  29.310  0.00  0.00    +0.067 C 
ENDROOT
BRANCH   1   5
ATOM      2  N   UNL A   1     -25.278   0.139  31.637  0.00  0.00    -0.248 NA
ATOM      3  C   UNL A   1     -25.003  -0.097  32.674  0.00  0.00    +0.099 A 
ATOM      4  C   UNL A   1     -24.326  -0.500  33.337  0.00  0.00    +0.021 A 
ATOM      5  C   UNL A   1     -24.322  -0.436  30.736  0.00  0.00    +0.063 A 
ATOM      6  C   UNL A   1     -23.186  -1.043  31.177  0.00  0.00    +0.015 A 
ATOM      7  C   UNL A   1     -23.149  -1.130  32.629  0.00  0.00    +0.003 A 
ENDBRANCH   1   5
BRANCH   1   8
ATOM      8  C   UNL A   1     -23.538   0.216  28.485  0.00  0.00    -0.017 A 
ATOM      9  C   UNL A   1     -22.700   1.008  28.528  0.00  0.00    -0.004 A 
ATOM     10  C   UNL A   1     -22.049   1.777  27.557  0.00  0.00    -0.000 A 
ATOM     11  C   UNL A   1     -22.871   2.135  26.456  0.00  0.00    -0.000 A 
ATOM     12  C   UNL A   1     -24.215   1.704  26.358  0.00  0.00    -0.000 A 
ATOM     13  C   UNL A   1     -24.169   0.200  27.183  0.00  0.00    -0.004 A 
ENDBRANCH   1   8
BRANCH   1  14
ATOM     14  C   UNL A   1     -25.196  -1.269  28.724  0.00  0.00    +0.037 C 
BRANCH  14  15
ATOM     15  C   UNL A   1     -25.237  -2.734  29.022  0.00  0.00    -0.021 A 
ATOM     16  C   UNL A   1     -26.185  -3.355  29.650  0.00  0.00    -0.004 A 
ATOM     17  C   UNL A   1     -26.198  -4.817  29.654  0.00  0.00    -0.000 A 
ATOM     18  C   UNL A   1     -25.091  -5.488  29.078  0.00  0.00    -0.000 A 
ATOM     19  C   UNL A   1     -24.056  -4.858  28.480  0.00  0.00    -0.000 A 
ATOM     20  C   UNL A   1     -24.097  -3.469  28.402  0.00  0.00    -0.004 A 
ENDBRANCH  14  15
ENDBRANCH   1  14
TORSDOF 4
ENDMDL
ENDMDL
