MODEL 2147
MODEL 1
REMARK VINA RESULT:    -7.150      0.000      0.000
REMARK INTER + INTRA:         -12.348
REMARK INTER:                  -9.658
REMARK INTRA:                  -2.690
REMARK UNBOUND:                -2.690
REMARK  Name = No_2147-gen_results/8p0m/2024-11-26-14-13-15/
REMARK  6 active torsions:
REMARK  status: ('A' for Active; 'I' for Inactive)
REMARK    1  A    between atoms: C_2  and  C_11
REMARK    2  A    between atoms: C_3  and  C_7
REMARK    3  A    between atoms: C_17  and  C_19
REMARK    4  A    between atoms: N_20  and  C_21
REMARK    5  A    between atoms: C_25  and  C_26
REMARK    6  A    between atoms: C_26  and  N_29
REMARK                            x       y       z     vdW  Elec       q    Type
REMARK                         _______ _______ _______ _____ _____    ______ ____
ROOT
ATOM      1  C   UNL A   1     -22.897  -0.581  29.237  0.00  0.00    +0.249 C 
ATOM      2  O   UNL A   1     -21.976  -1.358  29.162  0.00  0.00    -0.270 OA
ATOM      3  N   UNL A   1     -23.121  -0.185  30.465  0.00  0.00    -0.276 N 
ATOM      4  C   UNL A   1     -22.707  -0.913  31.620  0.00  0.00    +0.094 C 
ATOM      5  C   UNL A   1     -23.698  -1.102  32.558  0.00  0.00    +0.022 C 
ATOM      6  C   UNL A   1     -24.638  -0.207  32.636  0.00  0.00    +0.013 C 
ATOM      7  C   UNL A   1     -25.061   0.607  31.538  0.00  0.00    +0.098 C 
ATOM      8  C   UNL A   1     -24.398   0.514  30.509  0.00  0.00    +0.103 C 
ENDROOT
BRANCH   1  10
ATOM      9  C   UNL A   1     -24.168   0.009  27.377  0.00  0.00    +0.008 A 
ATOM     10  C   UNL A   1     -23.362   0.315  27.983  0.00  0.00    +0.053 A 
ATOM     11  C   UNL A   1     -24.467   0.786  26.236  0.00  0.00    +0.072 A 
ATOM     12  C   UNL A   1     -23.748   1.920  25.916  0.00  0.00    +0.004 A 
ATOM     13  C   UNL A   1     -22.445   1.466  27.866  0.00  0.00    +0.004 A 
ATOM     14  C   UNL A   1     -22.698   2.238  26.786  0.00  0.00    +0.000 A 
BRANCH  11  15
ATOM     15  C   UNL A   1     -25.565   0.439  25.272  0.00  0.00    +0.419 C 
ATOM     16  F   UNL A   1     -26.048   1.373  24.842  0.00  0.00    -0.166 F 
ATOM     17  F   UNL A   1     -25.002  -0.320  24.257  0.00  0.00    -0.166 F 
ATOM     18  F   UNL A   1     -26.581  -0.354  25.788  0.00  0.00    -0.166 F 
ENDBRANCH  11  15
ENDBRANCH   1  10
BRANCH   7  19
ATOM     19  C   UNL A   1     -26.320   1.391  31.685  0.00  0.00    +0.247 C 
ATOM     20  N   UNL A   1     -26.486   2.406  30.978  0.00  0.00    -0.179 NA
ATOM     21  O   UNL A   1     -27.248   1.082  32.401  0.00  0.00    -0.273 OA
BRANCH  20  22
ATOM     22  C   UNL A   1     -26.798   2.520  29.653  0.00  0.00    +0.073 A 
ATOM     23  C   UNL A   1     -27.733   1.653  29.025  0.00  0.00    +0.012 A 
ATOM     24  C   UNL A   1     -26.255   3.588  28.958  0.00  0.00    +0.014 A 
ATOM     25  C   UNL A   1     -28.126   1.923  27.691  0.00  0.00    -0.021 A 
ATOM     26  C   UNL A   1     -26.635   3.806  27.593  0.00  0.00    -0.001 A 
ATOM     27  C   UNL A   1     -27.580   2.996  27.024  0.00  0.00    -0.007 A 
ATOM     28  C   UNL A   1     -29.204   1.059  27.094  0.00  0.00    +0.031 C 
BRANCH  26  29
ATOM     29  C   UNL A   1     -26.077   4.926  26.850  0.00  0.00    +0.122 C 
BRANCH  29  30
ATOM     30  N   UNL A   1     -26.444   5.994  27.041  0.00  0.00    -0.257 N 
ATOM     31  C   UNL A   1     -25.848   7.075  27.445  0.00  0.00    +0.324 C 
ATOM     32  C   UNL A   1     -27.890   6.335  26.946  0.00  0.00    +0.117 C 
ATOM     33  N   UNL A   1     -24.487   7.029  27.628  0.00  0.00    -0.186 NA
ATOM     34  O   UNL A   1     -26.316   8.170  27.717  0.00  0.00    -0.251 OA
ATOM     35  C   UNL A   1     -23.663   8.264  27.774  0.00  0.00    +0.140 C 
ENDBRANCH  29  30
ENDBRANCH  26  29
ENDBRANCH  20  22
ENDBRANCH   7  19
TORSDOF 6
ENDMDL
ENDMDL
