MODEL 2148
MODEL 1
REMARK VINA RESULT:    -5.222      0.000      0.000
REMARK INTER + INTRA:          -5.575
REMARK INTER:                  -5.527
REMARK INTRA:                  -0.048
REMARK UNBOUND:                -0.048
REMARK  Name = No_2148-gen_results/8p0m/2024-11-26-14-13-15/
REMARK  1 active torsions:
REMARK  status: ('A' for Active; 'I' for Inactive)
REMARK    1  A    between atoms: C_3  and  C_7
REMARK                            x       y       z     vdW  Elec       q    Type
REMARK                         _______ _______ _______ _____ _____    ______ ____
ROOT
ATOM      1  C   UNL A   1      -8.264 -10.520  18.693  0.00  0.00    +0.007 A 
ATOM      2  C   UNL A   1      -7.858 -10.116  19.577  0.00  0.00    +0.000 A 
ATOM      3  C   UNL A   1      -9.641 -10.085  18.429  0.00  0.00    +0.080 A 
ATOM      4  C   UNL A   1     -10.358  -9.398  19.320  0.00  0.00    +0.007 A 
ATOM      5  C   UNL A   1      -8.430  -9.384  20.682  0.00  0.00    +0.000 A 
ATOM      6  C   UNL A   1      -9.716  -9.010  20.429  0.00  0.00    +0.000 A 
ENDROOT
BRANCH   3   7
ATOM      7  C   UNL A   1     -10.253 -10.547  17.109  0.00  0.00    +0.388 C 
ATOM      8  O   UNL A   1      -9.468 -10.910  16.177  0.00  0.00    -0.241 OA
ATOM      9  O   UNL A   1     -11.501 -10.517  16.908  0.00  0.00    -0.241 OA
ENDBRANCH   3   7
TORSDOF 1
ENDMDL
ENDMDL
