REMARK  Name = No_2149-gen_results/8p0m/2024-11-26-14-13-15/
REMARK  5 active torsions:
REMARK  status: ('A' for Active; 'I' for Inactive)
REMARK    1  A    between atoms: N_4  and  C_15
REMARK    2  A    between atoms: C_11  and  C_12
REMARK    3  A    between atoms: C_15  and  C_16
REMARK    4  A    between atoms: C_16  and  C_17
REMARK    5  A    between atoms: C_21  and  C_23
REMARK                            x       y       z     vdW  Elec       q    Type
REMARK                         _______ _______ _______ _____ _____    ______ ____
ROOT
ATOM      1  O   UNL A   1     -28.123  -1.335  28.487  0.00  0.00    -0.270 OA
ATOM      2  C   UNL A   1     -27.064  -0.824  28.869  0.00  0.00    +0.249 C 
ATOM      3  C   UNL A   1     -26.402  -0.062  28.622  0.00  0.00    +0.050 A 
ATOM      4  N   UNL A   1     -26.265  -1.867  29.761  0.00  0.00    -0.275 N 
ATOM      5  C   UNL A   1     -25.044   0.392  29.066  0.00  0.00    -0.010 A 
ATOM      6  C   UNL A   1     -24.473  -0.544  29.987  0.00  0.00    +0.048 C 
ATOM      7  C   UNL A   1     -25.133  -1.670  30.289  0.00  0.00    +0.098 C 
ATOM      8  C   UNL A   1     -26.905   1.110  27.652  0.00  0.00    +0.004 A 
ATOM      9  C   UNL A   1     -26.134   1.718  26.812  0.00  0.00    +0.000 A 
ATOM     10  C   UNL A   1     -24.745   2.085  27.296  0.00  0.00    +0.006 A 
ATOM     11  C   UNL A   1     -24.160   1.254  28.279  0.00  0.00    +0.076 A 
ENDROOT
BRANCH  11  12
ATOM     12  C   UNL A   1     -22.773   1.493  28.645  0.00  0.00    +0.387 C 
ATOM     13  O   UNL A   1     -21.980   1.977  27.688  0.00  0.00    -0.241 OA
ATOM     14  O   UNL A   1     -22.253   1.012  29.760  0.00  0.00    -0.241 OA
ENDBRANCH  11  12
BRANCH   4  15
ATOM     15  C   UNL A   1     -27.112  -3.026  30.247  0.00  0.00    +0.098 C 
BRANCH  15  16
ATOM     16  C   UNL A   1     -28.405  -2.881  30.811  0.00  0.00    +0.048 C 
BRANCH  16  17
ATOM     17  C   UNL A   1     -28.683  -1.658  31.349  0.00  0.00    -0.021 A 
ATOM     18  C   UNL A   1     -29.624  -1.424  31.971  0.00  0.00    -0.004 A 
ATOM     19  C   UNL A   1     -29.921  -0.138  32.578  0.00  0.00    -0.000 A 
ATOM     20  C   UNL A   1     -29.141   0.982  32.237  0.00  0.00    -0.000 A 
ATOM     21  C   UNL A   1     -28.000   0.731  31.440  0.00  0.00    -0.001 A 
ATOM     22  C   UNL A   1     -27.674  -0.611  31.347  0.00  0.00    -0.004 A 
BRANCH  21  23
ATOM     23  C   UNL A   1     -27.082   1.883  31.360  0.00  0.00    -0.005 C 
ATOM     24  C   UNL A   1     -27.077   2.938  32.193  0.00  0.00    -0.026 C 
ATOM     25  C   UNL A   1     -28.386   3.143  32.921  0.00  0.00    +0.031 C 
ENDBRANCH  21  23
ENDBRANCH  16  17
ENDBRANCH  15  16
ENDBRANCH   4  15
TORSDOF 5
