MODEL 2149
MODEL 1
REMARK VINA RESULT:    -7.490      0.000      0.000
REMARK INTER + INTRA:         -10.300
REMARK INTER:                  -9.679
REMARK INTRA:                  -0.621
REMARK UNBOUND:                -0.621
REMARK  Name = No_2149-gen_results/8p0m/2024-11-26-14-13-15/
REMARK  5 active torsions:
REMARK  status: ('A' for Active; 'I' for Inactive)
REMARK    1  A    between atoms: N_4  and  C_15
REMARK    2  A    between atoms: C_11  and  C_12
REMARK    3  A    between atoms: C_15  and  C_16
REMARK    4  A    between atoms: C_16  and  C_17
REMARK    5  A    between atoms: C_21  and  C_23
REMARK                            x       y       z     vdW  Elec       q    Type
REMARK                         _______ _______ _______ _____ _____    ______ ____
ROOT
ATOM      1  O   UNL A   1     -22.422  -1.876  28.684  0.00  0.00    -0.270 OA
ATOM      2  C   UNL A   1     -23.481  -1.846  29.321  0.00  0.00    +0.249 C 
ATOM      3  C   UNL A   1     -24.293  -2.448  29.562  0.00  0.00    +0.050 A 
ATOM      4  N   UNL A   1     -23.942  -0.339  29.510  0.00  0.00    -0.275 N 
ATOM      5  C   UNL A   1     -25.624  -2.270  30.229  0.00  0.00    -0.010 A 
ATOM      6  C   UNL A   1     -25.878  -0.886  30.493  0.00  0.00    +0.048 C 
ATOM      7  C   UNL A   1     -24.996   0.041  30.096  0.00  0.00    +0.098 C 
ATOM      8  C   UNL A   1     -24.154  -4.035  29.390  0.00  0.00    +0.004 A 
ATOM      9  C   UNL A   1     -25.138  -4.803  29.056  0.00  0.00    +0.000 A 
ATOM     10  C   UNL A   1     -26.478  -4.526  29.709  0.00  0.00    +0.006 A 
ATOM     11  C   UNL A   1     -26.753  -3.191  30.084  0.00  0.00    +0.076 A 
ENDROOT
BRANCH  11  12
ATOM     12  C   UNL A   1     -28.087  -2.874  30.568  0.00  0.00    +0.387 C 
ATOM     13  O   UNL A   1     -28.587  -3.678  31.507  0.00  0.00    -0.241 OA
ATOM     14  O   UNL A   1     -28.873  -2.019  29.938  0.00  0.00    -0.241 OA
ENDBRANCH  11  12
BRANCH   4  15
ATOM     15  C   UNL A   1     -22.845   0.671  29.241  0.00  0.00    +0.098 C 
BRANCH  15  16
ATOM     16  C   UNL A   1     -22.475   1.114  27.946  0.00  0.00    +0.048 C 
BRANCH  16  17
ATOM     17  C   UNL A   1     -23.478   1.659  27.197  0.00  0.00    -0.021 A 
ATOM     18  C   UNL A   1     -23.748   2.779  27.195  0.00  0.00    -0.004 A 
ATOM     19  C   UNL A   1     -24.790   3.382  26.382  0.00  0.00    -0.000 A 
ATOM     20  C   UNL A   1     -25.693   2.552  25.692  0.00  0.00    -0.000 A 
ATOM     21  C   UNL A   1     -25.409   1.167  25.711  0.00  0.00    -0.001 A 
ATOM     22  C   UNL A   1     -24.139   0.868  26.172  0.00  0.00    -0.004 A 
BRANCH  21  23
ATOM     23  C   UNL A   1     -26.216   0.395  24.746  0.00  0.00    -0.005 C 
ATOM     24  C   UNL A   1     -27.550   0.235  24.794  0.00  0.00    -0.026 C 
ATOM     25  C   UNL A   1     -28.140   0.462  26.167  0.00  0.00    +0.031 C 
ENDBRANCH  21  23
ENDBRANCH  16  17
ENDBRANCH  15  16
ENDBRANCH   4  15
TORSDOF 5
ENDMDL
ENDMDL
