MODEL 214
MODEL 1
REMARK VINA RESULT:    -5.807      0.000      0.000
REMARK INTER + INTRA:          -5.807
REMARK INTER:                  -5.807
REMARK INTRA:                   0.000
REMARK UNBOUND:                 0.000
REMARK  Name = No_214-gen_results/8p0m/2024-11-26-14-13-15/
REMARK  0 active torsions:
REMARK  status: ('A' for Active; 'I' for Inactive)
REMARK                            x       y       z     vdW  Elec       q    Type
REMARK                         _______ _______ _______ _____ _____    ______ ____
ROOT
ATOM      1  C   UNL A   1     -24.226   0.381  27.211  0.00  0.00    -0.004 A 
ATOM      2  C   UNL A   1     -23.435   1.076  27.163  0.00  0.00    -0.000 A 
ATOM      3  C   UNL A   1     -24.138  -0.653  28.169  0.00  0.00    -0.021 A 
ATOM      4  C   UNL A   1     -23.053  -0.775  29.015  0.00  0.00    -0.022 A 
ATOM      5  C   UNL A   1     -22.062   0.185  28.890  0.00  0.00    -0.004 A 
ATOM      6  C   UNL A   1     -22.208   1.197  27.965  0.00  0.00    -0.000 A 
ATOM      7  C   UNL A   1     -25.054  -1.824  28.451  0.00  0.00    +0.052 C 
ATOM      8  C   UNL A   1     -25.584  -1.999  29.553  0.00  0.00    -0.021 C 
ATOM      9  C   UNL A   1     -24.790  -1.824  30.751  0.00  0.00    -0.005 C 
ATOM     10  C   UNL A   1     -23.756  -1.342  30.864  0.00  0.00    -0.005 C 
ATOM     11  C   UNL A   1     -22.564  -0.682  31.072  0.00  0.00    -0.022 C 
ATOM     12  C   UNL A   1     -23.181  -0.602  30.469  0.00  0.00    +0.044 C 
ATOM     13  C   UNL A   1     -23.904   0.831  30.874  0.00  0.00    +0.009 C 
ENDROOT
TORSDOF 0
ENDMDL
ENDMDL
