REMARK  Name = No_215-gen_results/8p0m/2024-11-26-14-13-15/
REMARK  3 active torsions:
REMARK  status: ('A' for Active; 'I' for Inactive)
REMARK    1  A    between atoms: C_4  and  C_8
REMARK    2  A    between atoms: C_8  and  C_10
REMARK    3  A    between atoms: C_10  and  C_11
REMARK                            x       y       z     vdW  Elec       q    Type
REMARK                         _______ _______ _______ _____ _____    ______ ____
ROOT
ATOM      1  C   UNL A   1     -29.190   2.470  27.486  0.00  0.00    +0.029 C 
ATOM      2  C   UNL A   1     -29.855   2.433  26.335  0.00  0.00    +0.005 C 
ENDROOT
BRANCH   1   6
ATOM      3  C   UNL A   1     -28.016  -0.814  28.878  0.00  0.00    +0.029 A 
ATOM      4  C   UNL A   1     -28.469  -0.785  29.829  0.00  0.00    +0.002 A 
ATOM      5  C   UNL A   1     -28.196   0.348  28.055  0.00  0.00    +0.136 A 
ATOM      6  C   UNL A   1     -29.019   1.350  28.378  0.00  0.00    +0.005 A 
ATOM      7  C   UNL A   1     -29.625   1.268  29.601  0.00  0.00    -0.002 A 
ATOM      8  C   UNL A   1     -29.382   0.182  30.400  0.00  0.00    -0.000 A 
ATOM      9  F   UNL A   1     -27.548   0.334  26.841  0.00  0.00    -0.204 F 
ENDBRANCH   1   6
BRANCH   1  10
ATOM     10  C   UNL A   1     -28.539   3.743  27.859  0.00  0.00    +0.031 C 
BRANCH  10  11
ATOM     11  C   UNL A   1     -27.614   3.860  28.888  0.00  0.00    -0.022 A 
ATOM     12  C   UNL A   1     -26.809   4.948  28.961  0.00  0.00    -0.004 A 
ATOM     13  C   UNL A   1     -25.652   5.055  29.927  0.00  0.00    -0.000 A 
ATOM     14  C   UNL A   1     -25.478   3.904  30.697  0.00  0.00    -0.000 A 
ATOM     15  C   UNL A   1     -26.192   2.775  30.590  0.00  0.00    -0.000 A 
ATOM     16  C   UNL A   1     -27.202   2.764  29.663  0.00  0.00    -0.004 A 
ENDBRANCH  10  11
ENDBRANCH   1  10
TORSDOF 3
