REMARK  Name = No_2150-gen_results/8p0m/2024-11-26-14-13-15/
REMARK  5 active torsions:
REMARK  status: ('A' for Active; 'I' for Inactive)
REMARK    1  A    between atoms: C_7  and  C_8
REMARK    2  A    between atoms: C_8  and  C_9
REMARK    3  A    between atoms: C_8  and  C_17
REMARK    4  A    between atoms: C_10  and  C_11
REMARK    5  A    between atoms: C_13  and  C_20
REMARK                            x       y       z     vdW  Elec       q    Type
REMARK                         _______ _______ _______ _____ _____    ______ ____
ROOT
ATOM      1  C   UNL A   1     -26.608   0.984  25.612  0.00  0.00    -0.011 C 
ATOM      2  C   UNL A   1     -25.407   0.485  25.775  0.00  0.00    -0.004 C 
ENDROOT
BRANCH   2   3
ATOM      3  C   UNL A   1     -24.974  -0.215  26.907  0.00  0.00    -0.000 A 
ATOM      4  C   UNL A   1     -25.270  -1.279  27.311  0.00  0.00    +0.004 A 
ATOM      5  C   UNL A   1     -24.686  -1.884  28.570  0.00  0.00    +0.071 A 
ATOM      6  C   UNL A   1     -23.707  -1.176  29.200  0.00  0.00    +0.004 A 
ATOM      7  C   UNL A   1     -23.831   0.523  27.643  0.00  0.00    -0.000 A 
ATOM      8  C   UNL A   1     -23.277   0.015  28.771  0.00  0.00    -0.000 A 
BRANCH   5   9
ATOM      9  C   UNL A   1     -25.285  -3.164  28.937  0.00  0.00    +0.419 C 
ATOM     10  F   UNL A   1     -25.985  -3.560  28.078  0.00  0.00    -0.166 F 
ATOM     11  F   UNL A   1     -26.005  -2.942  30.118  0.00  0.00    -0.166 F 
ATOM     12  F   UNL A   1     -24.263  -3.955  29.262  0.00  0.00    -0.166 F 
ENDBRANCH   5   9
ENDBRANCH   2   3
BRANCH   1  13
ATOM     13  C   UNL A   1     -27.599   0.757  26.579  0.00  0.00    +0.148 C 
BRANCH  13  20
ATOM     14 CL   UNL A   1     -28.149  -0.820  28.908  0.00  0.00    -0.083 Cl
ATOM     15  C   UNL A   1     -27.834   0.496  29.060  0.00  0.00    +0.054 A 
ATOM     16  C   UNL A   1     -27.602   1.013  30.297  0.00  0.00    +0.011 A 
ATOM     17  C   UNL A   1     -27.145   2.373  30.440  0.00  0.00    +0.001 A 
ATOM     18  C   UNL A   1     -26.886   3.136  29.278  0.00  0.00    -0.000 A 
ATOM     19  C   UNL A   1     -27.043   2.554  28.061  0.00  0.00    -0.003 A 
ATOM     20  C   UNL A   1     -27.468   1.278  27.940  0.00  0.00    +0.003 A 
ENDBRANCH  13  20
BRANCH  13  21
ATOM     21  C   UNL A   1     -28.841   0.262  26.194  0.00  0.00    +0.372 C 
ATOM     22  O   UNL A   1     -29.098  -0.034  25.007  0.00  0.00    -0.245 OA
ATOM     23  O   UNL A   1     -29.814  -0.070  27.075  0.00  0.00    -0.245 OA
ENDBRANCH  13  21
ENDBRANCH   1  13
TORSDOF 5
