MODEL 2150
MODEL 1
REMARK VINA RESULT:    -6.629      0.000      0.000
REMARK INTER + INTRA:         -10.227
REMARK INTER:                  -8.567
REMARK INTRA:                  -1.660
REMARK UNBOUND:                -1.660
REMARK  Name = No_2150-gen_results/8p0m/2024-11-26-14-13-15/
REMARK  5 active torsions:
REMARK  status: ('A' for Active; 'I' for Inactive)
REMARK    1  A    between atoms: C_7  and  C_8
REMARK    2  A    between atoms: C_8  and  C_9
REMARK    3  A    between atoms: C_8  and  C_17
REMARK    4  A    between atoms: C_10  and  C_11
REMARK    5  A    between atoms: C_13  and  C_20
REMARK                            x       y       z     vdW  Elec       q    Type
REMARK                         _______ _______ _______ _____ _____    ______ ____
ROOT
ATOM      1  C   UNL A   1     -21.975   0.579  28.936  0.00  0.00    -0.011 C 
ATOM      2  C   UNL A   1     -22.041   1.160  27.763  0.00  0.00    -0.004 C 
ENDROOT
BRANCH   2   3
ATOM      3  C   UNL A   1     -23.226   1.460  27.080  0.00  0.00    -0.000 A 
ATOM      4  C   UNL A   1     -23.918   0.785  26.411  0.00  0.00    +0.004 A 
ATOM      5  C   UNL A   1     -25.182   1.289  25.747  0.00  0.00    +0.071 A 
ATOM      6  C   UNL A   1     -25.558   2.569  26.024  0.00  0.00    +0.004 A 
ATOM      7  C   UNL A   1     -23.726   2.891  27.389  0.00  0.00    -0.000 A 
ATOM      8  C   UNL A   1     -24.854   3.381  26.819  0.00  0.00    -0.000 A 
BRANCH   5   9
ATOM      9  C   UNL A   1     -25.817   0.305  24.875  0.00  0.00    +0.419 C 
ATOM     10  F   UNL A   1     -26.868   0.688  24.508  0.00  0.00    -0.166 F 
ATOM     11  F   UNL A   1     -25.938  -0.872  25.625  0.00  0.00    -0.166 F 
ATOM     12  F   UNL A   1     -24.926   0.052  23.916  0.00  0.00    -0.166 F 
ENDBRANCH   5   9
ENDBRANCH   2   3
BRANCH   1  13
ATOM     13  C   UNL A   1     -23.152   0.290  29.643  0.00  0.00    +0.148 C 
BRANCH  13  20
ATOM     14 CL   UNL A   1     -25.989   0.334  29.240  0.00  0.00    -0.083 Cl
ATOM     15  C   UNL A   1     -25.342  -0.865  29.256  0.00  0.00    +0.054 A 
ATOM     16  C   UNL A   1     -25.993  -2.007  28.905  0.00  0.00    +0.011 A 
ATOM     17  C   UNL A   1     -25.271  -3.250  28.801  0.00  0.00    +0.001 A 
ATOM     18  C   UNL A   1     -23.872  -3.251  29.010  0.00  0.00    -0.000 A 
ATOM     19  C   UNL A   1     -23.246  -2.074  29.269  0.00  0.00    -0.003 A 
ATOM     20  C   UNL A   1     -23.933  -0.915  29.361  0.00  0.00    +0.003 A 
ENDBRANCH  13  20
BRANCH  13  21
ATOM     21  C   UNL A   1     -23.457   1.000  30.800  0.00  0.00    +0.372 C 
ATOM     22  O   UNL A   1     -23.529   2.248  30.812  0.00  0.00    -0.245 OA
ATOM     23  O   UNL A   1     -23.834   0.408  31.957  0.00  0.00    -0.245 OA
ENDBRANCH  13  21
ENDBRANCH   1  13
TORSDOF 5
ENDMDL
ENDMDL
