REMARK  Name = No_2151-gen_results/8p0m/2024-11-26-14-13-15/
REMARK  3 active torsions:
REMARK  status: ('A' for Active; 'I' for Inactive)
REMARK    1  A    between atoms: C_2  and  C_10
REMARK    2  A    between atoms: C_5  and  C_7
REMARK    3  A    between atoms: C_10  and  N_12
REMARK                            x       y       z     vdW  Elec       q    Type
REMARK                         _______ _______ _______ _____ _____    ______ ____
ROOT
ATOM      1  C   UNL A   1     -28.016  -0.814  28.878  0.00  0.00    +0.005 A 
ATOM      2  C   UNL A   1     -27.064  -0.119  28.608  0.00  0.00    +0.055 A 
ATOM      3  C   UNL A   1     -26.972   0.714  27.506  0.00  0.00    +0.005 A 
ATOM      4  C   UNL A   1     -28.105   0.774  26.642  0.00  0.00    +0.005 A 
ATOM      5  C   UNL A   1     -29.201   0.104  27.053  0.00  0.00    +0.057 A 
ATOM      6  C   UNL A   1     -29.210  -0.603  28.185  0.00  0.00    +0.005 A 
ENDROOT
BRANCH   5   7
ATOM      7  C   UNL A   1     -30.375   0.223  26.167  0.00  0.00    +0.284 C 
ATOM      8  O   UNL A   1     -31.246  -0.419  26.360  0.00  0.00    -0.267 OA
ATOM      9  N   UNL A   1     -30.272   1.030  25.017  0.00  0.00    -0.084 NA
ENDBRANCH   5   7
BRANCH   2  10
ATOM     10  C   UNL A   1     -25.704  -0.229  29.431  0.00  0.00    +0.269 C 
ATOM     11  O   UNL A   1     -24.664  -0.511  28.893  0.00  0.00    -0.268 OA
BRANCH  10  12
ATOM     12  N   UNL A   1     -25.608   0.416  30.637  0.00  0.00    -0.179 NA
ATOM     13  C   UNL A   1     -24.799   0.718  31.220  0.00  0.00    +0.063 C 
ATOM     14  C   UNL A   1     -23.483   0.243  30.944  0.00  0.00    +0.050 C 
ENDBRANCH  10  12
ENDBRANCH   2  10
TORSDOF 3
