MODEL 2151
MODEL 1
REMARK VINA RESULT:    -5.283      0.000      0.000
REMARK INTER + INTRA:          -6.549
REMARK INTER:                  -6.209
REMARK INTRA:                  -0.340
REMARK UNBOUND:                -0.340
REMARK  Name = No_2151-gen_results/8p0m/2024-11-26-14-13-15/
REMARK  3 active torsions:
REMARK  status: ('A' for Active; 'I' for Inactive)
REMARK    1  A    between atoms: C_2  and  C_10
REMARK    2  A    between atoms: C_5  and  C_7
REMARK    3  A    between atoms: C_10  and  N_12
REMARK                            x       y       z     vdW  Elec       q    Type
REMARK                         _______ _______ _______ _____ _____    ______ ____
ROOT
ATOM      1  C   UNL A   1     -24.877  -0.522  28.150  0.00  0.00    +0.005 A 
ATOM      2  C   UNL A   1     -23.777  -0.268  28.582  0.00  0.00    +0.055 A 
ATOM      3  C   UNL A   1     -22.983  -1.142  29.306  0.00  0.00    +0.005 A 
ATOM      4  C   UNL A   1     -23.499  -2.452  29.530  0.00  0.00    +0.005 A 
ATOM      5  C   UNL A   1     -24.658  -2.748  28.907  0.00  0.00    +0.057 A 
ATOM      6  C   UNL A   1     -25.302  -1.853  28.156  0.00  0.00    +0.005 A 
ENDROOT
BRANCH   5   7
ATOM      7  C   UNL A   1     -25.144  -4.126  29.114  0.00  0.00    +0.284 C 
ATOM      8  O   UNL A   1     -26.139  -4.271  29.559  0.00  0.00    -0.267 OA
ATOM      9  N   UNL A   1     -24.255  -5.195  28.889  0.00  0.00    -0.084 NA
ENDBRANCH   5   7
BRANCH   2  10
ATOM     10  C   UNL A   1     -23.183   1.209  28.507  0.00  0.00    +0.269 C 
ATOM     11  O   UNL A   1     -23.435   2.032  29.350  0.00  0.00    -0.268 OA
BRANCH  10  12
ATOM     12  N   UNL A   1     -22.054   1.430  27.761  0.00  0.00    -0.179 NA
ATOM     13  C   UNL A   1     -21.890   1.881  26.837  0.00  0.00    +0.063 C 
ATOM     14  C   UNL A   1     -22.978   2.176  25.964  0.00  0.00    +0.050 C 
ENDBRANCH  10  12
ENDBRANCH   2  10
TORSDOF 3
ENDMDL
ENDMDL
