REMARK  Name = No_2152-gen_results/8p0m/2024-11-26-14-13-15/
REMARK  7 active torsions:
REMARK  status: ('A' for Active; 'I' for Inactive)
REMARK    1  A    between atoms: C_6  and  O_7
REMARK    2  A    between atoms: O_7  and  C_9
REMARK    3  A    between atoms: C_9  and  C_10
REMARK    4  A    between atoms: C_10  and  C_11
REMARK    5  A    between atoms: C_11  and  C_12
REMARK    6  A    between atoms: C_12  and  C_13
REMARK    7  A    between atoms: C_13  and  C_14
REMARK                            x       y       z     vdW  Elec       q    Type
REMARK                         _______ _______ _______ _____ _____    ______ ____
ROOT
ATOM      1  O   UNL A   1     -29.000  -2.701  30.115  0.00  0.00    -0.475 OA
ENDROOT
BRANCH   1   7
ATOM      2  C   UNL A   1     -28.016  -0.814  28.878  0.00  0.00    +0.039 A 
ATOM      3  C   UNL A   1     -27.064  -0.119  28.608  0.00  0.00    +0.033 A 
ATOM      4  C   UNL A   1     -25.792  -0.430  29.076  0.00  0.00    +0.140 A 
ATOM      5  C   UNL A   1     -25.576  -1.565  29.936  0.00  0.00    +0.033 A 
ATOM      6  C   UNL A   1     -26.735  -2.300  30.217  0.00  0.00    +0.039 A 
ATOM      7  C   UNL A   1     -27.918  -1.954  29.763  0.00  0.00    +0.139 A 
ATOM      8  F   UNL A   1     -24.680   0.296  28.838  0.00  0.00    -0.204 F 
ENDBRANCH   1   7
BRANCH   1   9
ATOM      9  C   UNL A   1     -28.887  -3.948  30.587  0.00  0.00    +0.205 C 
BRANCH   9  10
ATOM     10  C   UNL A   1     -30.073  -4.769  30.231  0.00  0.00    +0.047 C 
BRANCH  10  11
ATOM     11  C   UNL A   1     -30.727  -4.526  29.100  0.00  0.00    +0.004 C 
BRANCH  11  12
ATOM     12  C   UNL A   1     -31.530  -5.682  28.608  0.00  0.00    +0.008 C 
BRANCH  12  13
ATOM     13  C   UNL A   1     -31.516  -5.944  27.244  0.00  0.00    +0.072 C 
BRANCH  13  14
ATOM     14  C   UNL A   1     -31.609  -7.345  26.925  0.00  0.00    +0.207 C 
ATOM     15  O   UNL A   1     -31.489  -8.141  27.740  0.00  0.00    -0.288 OA
ENDBRANCH  13  14
ENDBRANCH  12  13
ENDBRANCH  11  12
ENDBRANCH  10  11
ENDBRANCH   9  10
ENDBRANCH   1   9
TORSDOF 7
