MODEL 2152
MODEL 1
REMARK VINA RESULT:    -5.112      0.000      0.000
REMARK INTER + INTRA:          -7.787
REMARK INTER:                  -7.203
REMARK INTRA:                  -0.584
REMARK UNBOUND:                -0.584
REMARK  Name = No_2152-gen_results/8p0m/2024-11-26-14-13-15/
REMARK  7 active torsions:
REMARK  status: ('A' for Active; 'I' for Inactive)
REMARK    1  A    between atoms: C_6  and  O_7
REMARK    2  A    between atoms: O_7  and  C_9
REMARK    3  A    between atoms: C_9  and  C_10
REMARK    4  A    between atoms: C_10  and  C_11
REMARK    5  A    between atoms: C_11  and  C_12
REMARK    6  A    between atoms: C_12  and  C_13
REMARK    7  A    between atoms: C_13  and  C_14
REMARK                            x       y       z     vdW  Elec       q    Type
REMARK                         _______ _______ _______ _____ _____    ______ ____
ROOT
ATOM      1  O   UNL A   1     -24.560  -0.230  28.942  0.00  0.00    -0.475 OA
ENDROOT
BRANCH   1   7
ATOM      2  C   UNL A   1     -22.770   1.230  28.091  0.00  0.00    +0.039 A 
ATOM      3  C   UNL A   1     -22.266   1.853  27.186  0.00  0.00    +0.033 A 
ATOM      4  C   UNL A   1     -22.912   1.991  25.962  0.00  0.00    +0.140 A 
ATOM      5  C   UNL A   1     -24.181   1.355  25.718  0.00  0.00    +0.033 A 
ATOM      6  C   UNL A   1     -24.680   0.634  26.811  0.00  0.00    +0.039 A 
ATOM      7  C   UNL A   1     -24.022   0.521  27.942  0.00  0.00    +0.139 A 
ATOM      8  F   UNL A   1     -22.418   2.653  24.895  0.00  0.00    -0.204 F 
ENDBRANCH   1   7
BRANCH   1   9
ATOM      9  C   UNL A   1     -23.826  -1.068  29.683  0.00  0.00    +0.205 C 
BRANCH   9  10
ATOM     10  C   UNL A   1     -23.575  -2.344  28.965  0.00  0.00    +0.047 C 
BRANCH  10  11
ATOM     11  C   UNL A   1     -24.600  -3.056  28.509  0.00  0.00    +0.004 C 
BRANCH  11  12
ATOM     12  C   UNL A   1     -24.860  -4.303  29.285  0.00  0.00    +0.008 C 
BRANCH  12  13
ATOM     13  C   UNL A   1     -26.178  -4.599  29.608  0.00  0.00    +0.072 C 
BRANCH  13  14
ATOM     14  C   UNL A   1     -26.888  -3.497  30.204  0.00  0.00    +0.207 C 
ATOM     15  O   UNL A   1     -27.912  -3.175  29.804  0.00  0.00    -0.288 OA
ENDBRANCH  13  14
ENDBRANCH  12  13
ENDBRANCH  11  12
ENDBRANCH  10  11
ENDBRANCH   9  10
ENDBRANCH   1   9
TORSDOF 7
ENDMDL
ENDMDL
