MODEL 2153
MODEL 1
REMARK VINA RESULT:    -5.944      0.000      0.000
REMARK INTER + INTRA:          -8.888
REMARK INTER:                  -7.334
REMARK INTRA:                  -1.554
REMARK UNBOUND:                -1.554
REMARK  Name = No_2153-gen_results/8p0m/2024-11-26-14-13-15/
REMARK  4 active torsions:
REMARK  status: ('A' for Active; 'I' for Inactive)
REMARK    1  A    between atoms: C_3  and  C_7
REMARK    2  A    between atoms: C_9  and  N_13
REMARK    3  A    between atoms: C_14  and  C_15
REMARK    4  A    between atoms: C_15  and  C_17
REMARK                            x       y       z     vdW  Elec       q    Type
REMARK                         _______ _______ _______ _____ _____    ______ ____
ROOT
ATOM      1  C   UNL A   1     -24.368  -2.742  29.274  0.00  0.00    +0.097 A 
ATOM      2  N   UNL A   1     -23.642  -3.545  28.602  0.00  0.00    -0.242 NA
ATOM      3  C   UNL A   1     -25.550  -3.122  29.869  0.00  0.00    +0.091 A 
ATOM      4  C   UNL A   1     -26.023  -4.022  29.908  0.00  0.00    +0.020 A 
ATOM      5  C   UNL A   1     -24.188  -4.838  28.472  0.00  0.00    +0.099 A 
ATOM      6  C   UNL A   1     -25.368  -5.160  29.153  0.00  0.00    +0.022 A 
ENDROOT
BRANCH   1   9
ATOM      7  C   UNL A   1     -23.142  -0.865  30.550  0.00  0.00    +0.002 A 
ATOM      8  C   UNL A   1     -22.766   0.119  30.526  0.00  0.00    +0.000 A 
ATOM      9  C   UNL A   1     -23.789  -1.351  29.393  0.00  0.00    +0.019 A 
ATOM     10  C   UNL A   1     -23.946  -0.574  28.262  0.00  0.00    +0.002 A 
ATOM     11  C   UNL A   1     -22.755   1.020  29.566  0.00  0.00    +0.000 A 
ATOM     12  C   UNL A   1     -23.361   0.703  28.369  0.00  0.00    +0.000 A 
ENDBRANCH   1   9
BRANCH   3  13
ATOM     13  N   UNL A   1     -26.038  -1.908  30.626  0.00  0.00    -0.177 NA
ATOM     14  C   UNL A   1     -27.091  -1.241  30.109  0.00  0.00    +0.250 C 
ATOM     15  O   UNL A   1     -27.548  -1.435  29.055  0.00  0.00    -0.273 OA
BRANCH  14  16
ATOM     16  C   UNL A   1     -27.548  -0.102  30.907  0.00  0.00    +0.114 C 
BRANCH  16  17
ATOM     17  C   UNL A   1     -26.822   0.864  31.435  0.00  0.00    -0.013 A 
ATOM     18  C   UNL A   1     -26.265   1.867  30.502  0.00  0.00    -0.004 A 
ATOM     19  C   UNL A   1     -25.450   2.941  31.015  0.00  0.00    -0.000 A 
ATOM     20  C   UNL A   1     -25.203   2.936  32.382  0.00  0.00    -0.000 A 
ATOM     21  C   UNL A   1     -25.714   2.019  33.244  0.00  0.00    -0.000 A 
ATOM     22  C   UNL A   1     -26.463   1.008  32.748  0.00  0.00    -0.004 A 
ENDBRANCH  16  17
ENDBRANCH  14  16
ENDBRANCH   3  13
TORSDOF 4
ENDMDL
ENDMDL
