REMARK  Name = No_2153-gen_results/8p0m/2024-11-26-14-13-15/
REMARK  4 active torsions:
REMARK  status: ('A' for Active; 'I' for Inactive)
REMARK    1  A    between atoms: C_3  and  C_7
REMARK    2  A    between atoms: C_9  and  N_13
REMARK    3  A    between atoms: C_14  and  C_15
REMARK    4  A    between atoms: C_15  and  C_17
REMARK                            x       y       z     vdW  Elec       q    Type
REMARK                         _______ _______ _______ _____ _____    ______ ____
ROOT
ATOM      1  C   UNL A   1     -26.406   0.325  27.215  0.00  0.00    +0.097 A 
ATOM      2  N   UNL A   1     -25.147   0.149  27.311  0.00  0.00    -0.242 NA
ATOM      3  C   UNL A   1     -27.042   0.535  26.012  0.00  0.00    +0.091 A 
ATOM      4  C   UNL A   1     -26.684   0.570  25.060  0.00  0.00    +0.020 A 
ATOM      5  C   UNL A   1     -24.460   0.251  26.085  0.00  0.00    +0.099 A 
ATOM      6  C   UNL A   1     -25.186   0.412  24.898  0.00  0.00    +0.022 A 
ENDROOT
BRANCH   1   9
ATOM      7  C   UNL A   1     -28.016  -0.814  28.878  0.00  0.00    +0.002 A 
ATOM      8  C   UNL A   1     -28.469  -0.785  29.829  0.00  0.00    +0.000 A 
ATOM      9  C   UNL A   1     -27.136   0.236  28.535  0.00  0.00    +0.019 A 
ATOM     10  C   UNL A   1     -26.875   1.282  29.398  0.00  0.00    +0.002 A 
ATOM     11  C   UNL A   1     -28.343   0.069  30.824  0.00  0.00    +0.000 A 
ATOM     12  C   UNL A   1     -27.524   1.163  30.642  0.00  0.00    +0.000 A 
ENDBRANCH   1   9
BRANCH   3  13
ATOM     13  N   UNL A   1     -28.517   0.606  26.334  0.00  0.00    -0.177 NA
ATOM     14  C   UNL A   1     -29.275   1.427  25.577  0.00  0.00    +0.250 C 
ATOM     15  O   UNL A   1     -28.857   2.194  24.805  0.00  0.00    -0.273 OA
BRANCH  14  16
ATOM     16  C   UNL A   1     -30.702   1.421  25.905  0.00  0.00    +0.114 C 
BRANCH  16  17
ATOM     17  C   UNL A   1     -31.272   1.702  27.060  0.00  0.00    -0.013 A 
ATOM     18  C   UNL A   1     -30.414   2.315  28.097  0.00  0.00    -0.004 A 
ATOM     19  C   UNL A   1     -30.973   2.633  29.387  0.00  0.00    -0.000 A 
ATOM     20  C   UNL A   1     -32.306   2.294  29.588  0.00  0.00    -0.000 A 
ATOM     21  C   UNL A   1     -33.099   1.733  28.640  0.00  0.00    -0.000 A 
ATOM     22  C   UNL A   1     -32.558   1.425  27.439  0.00  0.00    -0.004 A 
ENDBRANCH  16  17
ENDBRANCH  14  16
ENDBRANCH   3  13
TORSDOF 4
