REMARK  Name = No_2154-gen_results/8p0m/2024-11-26-14-13-15/
REMARK  2 active torsions:
REMARK  status: ('A' for Active; 'I' for Inactive)
REMARK    1  A    between atoms: C_7  and  O_10
REMARK    2  A    between atoms: O_10  and  C_11
REMARK                            x       y       z     vdW  Elec       q    Type
REMARK                         _______ _______ _______ _____ _____    ______ ____
ROOT
ATOM      1  C   UNL A   1     -28.016  -0.814  28.878  0.00  0.00    +0.187 A 
ATOM      2  C   UNL A   1     -28.469  -0.785  29.829  0.00  0.00    +0.088 A 
ATOM      3  F   UNL A   1     -28.654  -0.674  27.845  0.00  0.00    -0.200 F 
ATOM      4  C   UNL A   1     -27.727  -1.014  31.138  0.00  0.00    +0.016 A 
ATOM      5  C   UNL A   1     -26.313  -1.108  31.063  0.00  0.00    +0.034 A 
ATOM      6  C   UNL A   1     -25.732  -1.135  29.773  0.00  0.00    +0.177 A 
ATOM      7  C   UNL A   1     -26.583  -0.953  28.714  0.00  0.00    +0.201 A 
ATOM      8  F   UNL A   1     -24.454  -1.223  29.680  0.00  0.00    -0.201 F 
ATOM      9 CL   UNL A   1     -30.200  -0.674  30.136  0.00  0.00    -0.080 Cl
ENDROOT
BRANCH   7  10
ATOM     10  O   UNL A   1     -25.890  -0.920  27.492  0.00  0.00    -0.449 OA
BRANCH  10  11
ATOM     11  C   UNL A   1     -25.821   0.292  26.890  0.00  0.00    +0.145 A 
ATOM     12  C   UNL A   1     -26.215   0.338  25.577  0.00  0.00    +0.037 A 
ATOM     13  C   UNL A   1     -25.073   1.339  27.438  0.00  0.00    +0.037 A 
ATOM     14  C   UNL A   1     -24.766   2.441  26.723  0.00  0.00    +0.003 A 
ATOM     15  C   UNL A   1     -25.982   1.526  24.879  0.00  0.00    +0.003 A 
ATOM     16  C   UNL A   1     -25.225   2.578  25.442  0.00  0.00    +0.000 A 
ENDBRANCH  10  11
ENDBRANCH   7  10
TORSDOF 2
