MODEL 2154
MODEL 1
REMARK VINA RESULT:    -6.777      0.000      0.000
REMARK INTER + INTRA:          -7.909
REMARK INTER:                  -7.569
REMARK INTRA:                  -0.340
REMARK UNBOUND:                -0.340
REMARK  Name = No_2154-gen_results/8p0m/2024-11-26-14-13-15/
REMARK  2 active torsions:
REMARK  status: ('A' for Active; 'I' for Inactive)
REMARK    1  A    between atoms: C_7  and  O_10
REMARK    2  A    between atoms: O_10  and  C_11
REMARK                            x       y       z     vdW  Elec       q    Type
REMARK                         _______ _______ _______ _____ _____    ______ ____
ROOT
ATOM      1  C   UNL A   1     -24.853  -0.111  27.549  0.00  0.00    +0.187 A 
ATOM      2  C   UNL A   1     -24.424   0.520  26.822  0.00  0.00    +0.088 A 
ATOM      3  F   UNL A   1     -25.915  -0.688  27.370  0.00  0.00    -0.200 F 
ATOM      4  C   UNL A   1     -23.136   1.306  27.023  0.00  0.00    +0.016 A 
ATOM      5  C   UNL A   1     -22.398   1.032  28.203  0.00  0.00    +0.034 A 
ATOM      6  C   UNL A   1     -22.994   0.173  29.157  0.00  0.00    +0.177 A 
ATOM      7  C   UNL A   1     -24.184  -0.406  28.801  0.00  0.00    +0.201 A 
ATOM      8  F   UNL A   1     -22.346  -0.086  30.235  0.00  0.00    -0.201 F 
ATOM      9 CL   UNL A   1     -25.175   0.984  25.298  0.00  0.00    -0.080 Cl
ENDROOT
BRANCH   7  10
ATOM     10  O   UNL A   1     -24.643  -1.295  29.787  0.00  0.00    -0.449 OA
BRANCH  10  11
ATOM     11  C   UNL A   1     -24.870  -2.565  29.371  0.00  0.00    +0.145 A 
ATOM     12  C   UNL A   1     -25.987  -3.177  29.879  0.00  0.00    +0.037 A 
ATOM     13  C   UNL A   1     -23.867  -3.325  28.761  0.00  0.00    +0.037 A 
ATOM     14  C   UNL A   1     -23.985  -4.659  28.601  0.00  0.00    +0.003 A 
ATOM     15  C   UNL A   1     -26.147  -4.540  29.617  0.00  0.00    +0.003 A 
ATOM     16  C   UNL A   1     -25.127  -5.299  28.999  0.00  0.00    +0.000 A 
ENDBRANCH  10  11
ENDBRANCH   7  10
TORSDOF 2
ENDMDL
ENDMDL
