REMARK  Name = No_2155-gen_results/8p0m/2024-11-26-14-13-15/
REMARK  2 active torsions:
REMARK  status: ('A' for Active; 'I' for Inactive)
REMARK    1  A    between atoms: C_3  and  C_8
REMARK    2  A    between atoms: N_9  and  C_10
REMARK                            x       y       z     vdW  Elec       q    Type
REMARK                         _______ _______ _______ _____ _____    ______ ____
ROOT
ATOM      1  C   UNL A   1     -28.016  -0.814  28.878  0.00  0.00    +0.042 A 
ATOM      2  C   UNL A   1     -27.064  -0.119  28.608  0.00  0.00    +0.005 A 
ATOM      3  C   UNL A   1     -25.792  -0.430  29.076  0.00  0.00    +0.019 A 
ATOM      4  C   UNL A   1     -25.576  -1.565  29.936  0.00  0.00    +0.005 A 
ATOM      5  C   UNL A   1     -26.735  -2.300  30.217  0.00  0.00    +0.042 A 
ATOM      6  C   UNL A   1     -27.918  -1.954  29.763  0.00  0.00    +0.196 A 
ATOM      7  O   UNL A   1     -29.000  -2.701  30.115  0.00  0.00    -0.287 OA
ENDROOT
BRANCH   3   8
ATOM      8  C   UNL A   1     -24.529   0.349  28.800  0.00  0.00    +0.099 C 
ATOM      9  N   UNL A   1     -24.459   1.183  27.854  0.00  0.00    -0.242 NA
BRANCH   9  10
ATOM     10  C   UNL A   1     -23.666   1.799  27.421  0.00  0.00    +0.099 C 
ATOM     11  C   UNL A   1     -23.811   2.791  26.273  0.00  0.00    +0.022 C 
ENDBRANCH   9  10
ENDBRANCH   3   8
TORSDOF 2
