MODEL 2155
MODEL 1
REMARK VINA RESULT:    -4.890      0.000      0.000
REMARK INTER + INTRA:          -5.607
REMARK INTER:                  -5.462
REMARK INTRA:                  -0.145
REMARK UNBOUND:                -0.145
REMARK  Name = No_2155-gen_results/8p0m/2024-11-26-14-13-15/
REMARK  2 active torsions:
REMARK  status: ('A' for Active; 'I' for Inactive)
REMARK    1  A    between atoms: C_3  and  C_8
REMARK    2  A    between atoms: N_9  and  C_10
REMARK                            x       y       z     vdW  Elec       q    Type
REMARK                         _______ _______ _______ _____ _____    ______ ____
ROOT
ATOM      1  C   UNL A   1     -25.348  -4.800  29.299  0.00  0.00    +0.042 A 
ATOM      2  C   UNL A   1     -24.373  -4.157  28.982  0.00  0.00    +0.005 A 
ATOM      3  C   UNL A   1     -24.312  -2.787  29.210  0.00  0.00    +0.019 A 
ATOM      4  C   UNL A   1     -25.426  -2.081  29.788  0.00  0.00    +0.005 A 
ATOM      5  C   UNL A   1     -26.521  -2.897  30.103  0.00  0.00    +0.042 A 
ATOM      6  C   UNL A   1     -26.535  -4.186  29.852  0.00  0.00    +0.196 A 
ATOM      7  O   UNL A   1     -27.654  -4.900  30.153  0.00  0.00    -0.287 OA
ENDROOT
BRANCH   3   8
ATOM      8  C   UNL A   1     -23.153  -1.881  28.871  0.00  0.00    +0.099 C 
ATOM      9  N   UNL A   1     -22.742  -1.001  29.678  0.00  0.00    -0.242 NA
BRANCH   9  10
ATOM     10  C   UNL A   1     -21.994  -0.204  29.642  0.00  0.00    +0.099 C 
ATOM     11  C   UNL A   1     -21.014   0.070  28.507  0.00  0.00    +0.022 C 
ENDBRANCH   9  10
ENDBRANCH   3   8
TORSDOF 2
ENDMDL
ENDMDL
