REMARK  Name = No_2156-gen_results/8p0m/2024-11-26-14-13-15/
REMARK  0 active torsions:
REMARK  status: ('A' for Active; 'I' for Inactive)
REMARK                            x       y       z     vdW  Elec       q    Type
REMARK                         _______ _______ _______ _____ _____    ______ ____
ROOT
ATOM      1 CL   UNL A   1     -28.149  -0.820  28.908  0.00  0.00    -0.078 Cl
ATOM      2  C   UNL A   1     -26.912  -0.080  28.945  0.00  0.00    +0.104 A 
ATOM      3  C   UNL A   1     -25.966  -0.212  29.623  0.00  0.00    +0.018 A 
ATOM      4  C   UNL A   1     -24.704   0.553  29.622  0.00  0.00    +0.047 A 
ATOM      5  C   UNL A   1     -23.506   0.426  30.405  0.00  0.00    +0.004 A 
ATOM      6  C   UNL A   1     -23.562  -0.656  31.283  0.00  0.00    +0.000 A 
ATOM      7  C   UNL A   1     -24.680  -1.468  31.412  0.00  0.00    +0.000 A 
ATOM      8  C   UNL A   1     -25.740  -1.315  30.619  0.00  0.00    +0.001 A 
ATOM      9  C   UNL A   1     -26.747   0.990  27.802  0.00  0.00    +0.235 A 
ATOM     10  N   UNL A   1     -25.758   1.663  27.544  0.00  0.00    -0.189 NA
ATOM     11  C   UNL A   1     -24.610   1.546  28.493  0.00  0.00    +0.224 A 
ATOM     12  F   UNL A   1     -23.590   2.336  28.326  0.00  0.00    -0.183 F 
ATOM     13  F   UNL A   1     -27.840   1.165  27.129  0.00  0.00    -0.182 F 
ENDROOT
TORSDOF 0
