MODEL 2156
MODEL 1
REMARK VINA RESULT:    -5.565      0.000      0.000
REMARK INTER + INTRA:          -5.565
REMARK INTER:                  -5.565
REMARK INTRA:                   0.000
REMARK UNBOUND:                 0.000
REMARK  Name = No_2156-gen_results/8p0m/2024-11-26-14-13-15/
REMARK  0 active torsions:
REMARK  status: ('A' for Active; 'I' for Inactive)
REMARK                            x       y       z     vdW  Elec       q    Type
REMARK                         _______ _______ _______ _____ _____    ______ ____
ROOT
ATOM      1 CL   UNL A   1     -25.600  -1.495  28.561  0.00  0.00    -0.078 Cl
ATOM      2  C   UNL A   1     -24.315  -0.870  28.366  0.00  0.00    +0.104 A 
ATOM      3  C   UNL A   1     -24.023   0.105  27.786  0.00  0.00    +0.018 A 
ATOM      4  C   UNL A   1     -22.697   0.730  27.621  0.00  0.00    +0.047 A 
ATOM      5  C   UNL A   1     -22.279   1.929  26.948  0.00  0.00    +0.004 A 
ATOM      6  C   UNL A   1     -23.355   2.629  26.402  0.00  0.00    +0.000 A 
ATOM      7  C   UNL A   1     -24.664   2.171  26.462  0.00  0.00    +0.000 A 
ATOM      8  C   UNL A   1     -24.980   1.070  27.143  0.00  0.00    +0.001 A 
ATOM      9  C   UNL A   1     -23.132  -1.523  29.174  0.00  0.00    +0.235 A 
ATOM     10  N   UNL A   1     -21.981  -1.121  29.271  0.00  0.00    -0.189 NA
ATOM     11  C   UNL A   1     -21.618   0.063  28.434  0.00  0.00    +0.224 A 
ATOM     12  F   UNL A   1     -20.375   0.444  28.413  0.00  0.00    -0.183 F 
ATOM     13  F   UNL A   1     -23.474  -2.641  29.732  0.00  0.00    -0.182 F 
ENDROOT
TORSDOF 0
ENDMDL
ENDMDL
