MODEL 2158
MODEL 1
REMARK VINA RESULT:    -5.515      0.000      0.000
REMARK INTER + INTRA:          -6.642
REMARK INTER:                  -6.482
REMARK INTRA:                  -0.160
REMARK UNBOUND:                -0.160
REMARK  Name = No_2158-gen_results/8p0m/2024-11-26-14-13-15/
REMARK  3 active torsions:
REMARK  status: ('A' for Active; 'I' for Inactive)
REMARK    1  A    between atoms: C_3  and  C_7
REMARK    2  A    between atoms: C_7  and  N_8
REMARK    3  A    between atoms: N_8  and  C_9
REMARK                            x       y       z     vdW  Elec       q    Type
REMARK                         _______ _______ _______ _____ _____    ______ ____
ROOT
ATOM      1  C   UNL A   1     -24.151   0.290  27.353  0.00  0.00    -0.003 A 
ATOM      2  C   UNL A   1     -24.136   1.069  26.643  0.00  0.00    -0.000 A 
ATOM      3  C   UNL A   1     -23.004   0.189  28.209  0.00  0.00    -0.001 A 
ATOM      4  C   UNL A   1     -21.897   0.917  28.033  0.00  0.00    -0.003 A 
ATOM      5  C   UNL A   1     -23.046   1.958  26.267  0.00  0.00    -0.000 A 
ATOM      6  C   UNL A   1     -21.968   1.862  27.034  0.00  0.00    -0.000 A 
ENDROOT
BRANCH   3   7
ATOM      7  C   UNL A   1     -23.053  -0.863  29.328  0.00  0.00    +0.139 C 
BRANCH   7   8
ATOM      8  N   UNL A   1     -23.099  -2.182  28.956  0.00  0.00    -0.232 NA
BRANCH   8   9
ATOM      9  C   UNL A   1     -24.170  -2.997  29.175  0.00  0.00    +0.076 C 
ATOM     10  C   UNL A   1     -24.214  -4.293  28.559  0.00  0.00    -0.008 C 
ATOM     11  C   UNL A   1     -24.880  -5.372  29.133  0.00  0.00    +0.032 C 
ENDBRANCH   8   9
ENDBRANCH   7   8
ENDBRANCH   3   7
TORSDOF 3
ENDMDL
ENDMDL
