REMARK  Name = No_2159-gen_results/8p0m/2024-11-26-14-13-15/
REMARK  6 active torsions:
REMARK  status: ('A' for Active; 'I' for Inactive)
REMARK    1  A    between atoms: C_1  and  C_2
REMARK    2  A    between atoms: C_1  and  C_8
REMARK    3  A    between atoms: C_5  and  C_14
REMARK    4  A    between atoms: C_12  and  C_18
REMARK    5  A    between atoms: C_20  and  C_22
REMARK    6  A    between atoms: C_26  and  C_30
REMARK                            x       y       z     vdW  Elec       q    Type
REMARK                         _______ _______ _______ _____ _____    ______ ____
ROOT
ATOM      1  C   UNL A   1     -29.236  -0.061  29.267  0.00  0.00    -0.018 A 
ATOM      2  C   UNL A   1     -29.807  -0.356  30.383  0.00  0.00    -0.004 A 
ATOM      3  C   UNL A   1     -30.942   0.418  30.823  0.00  0.00    -0.001 A 
ATOM      4  C   UNL A   1     -31.453   1.345  29.924  0.00  0.00    -0.004 A 
ATOM      5  C   UNL A   1     -30.857   1.553  28.736  0.00  0.00    -0.022 A 
ATOM      6  C   UNL A   1     -29.721   0.882  28.382  0.00  0.00    -0.008 A 
ENDROOT
BRANCH   5   7
ATOM      7  C   UNL A   1     -31.378   2.618  27.814  0.00  0.00    +0.033 C 
ATOM      8  C   UNL A   1     -31.433   3.762  28.145  0.00  0.00    +0.005 C 
ATOM      9  C   UNL A   1     -31.679   2.124  26.502  0.00  0.00    +0.084 C 
ATOM     10  C   UNL A   1     -31.939   4.829  27.293  0.00  0.00    +0.008 C 
ATOM     11  C   UNL A   1     -32.292   4.377  25.973  0.00  0.00    +0.065 C 
ATOM     12  C   UNL A   1     -32.129   3.050  25.574  0.00  0.00    +0.155 C 
ATOM     13  O   UNL A   1     -32.479   2.718  24.407  0.00  0.00    -0.296 OA
BRANCH   9  14
ATOM     14  C   UNL A   1     -31.539   0.804  26.121  0.00  0.00    -0.019 A 
ATOM     15  C   UNL A   1     -32.467   0.006  26.279  0.00  0.00    -0.004 A 
ATOM     16  C   UNL A   1     -30.618   0.577  24.993  0.00  0.00    -0.026 A 
ATOM     17  C   UNL A   1     -30.459  -0.707  24.499  0.00  0.00    -0.005 A 
ATOM     18  C   UNL A   1     -32.395  -1.397  25.862  0.00  0.00    -0.000 A 
ATOM     19  C   UNL A   1     -31.408  -1.701  24.931  0.00  0.00    -0.000 A 
BRANCH  16  20
ATOM     20  C   UNL A   1     -29.352   1.281  24.834  0.00  0.00    +0.026 C 
ATOM     21  C   UNL A   1     -29.277   2.098  23.604  0.00  0.00    +0.005 C 
ENDBRANCH  16  20
ENDBRANCH   9  14
ENDBRANCH   5   7
BRANCH   1  22
ATOM     22  C   UNL A   1     -28.016  -0.814  28.878  0.00  0.00    +0.053 C 
BRANCH  22  23
ATOM     23  C   UNL A   1     -27.064  -0.119  28.608  0.00  0.00    -0.018 A 
ATOM     24  C   UNL A   1     -25.792  -0.430  29.076  0.00  0.00    -0.004 A 
ATOM     25  C   UNL A   1     -24.546   0.349  28.823  0.00  0.00    +0.004 A 
ATOM     26  C   UNL A   1     -24.659   1.420  27.888  0.00  0.00    +0.071 A 
ATOM     27  C   UNL A   1     -25.947   1.681  27.379  0.00  0.00    +0.004 A 
ATOM     28  C   UNL A   1     -27.044   0.974  27.687  0.00  0.00    -0.004 A 
BRANCH  26  29
ATOM     29  C   UNL A   1     -23.463   2.156  27.583  0.00  0.00    +0.419 C 
ATOM     30  F   UNL A   1     -23.626   3.242  27.041  0.00  0.00    -0.166 F 
ATOM     31  F   UNL A   1     -22.584   1.398  26.751  0.00  0.00    -0.166 F 
ATOM     32  F   UNL A   1     -22.684   2.398  28.760  0.00  0.00    -0.166 F 
ENDBRANCH  26  29
ENDBRANCH  22  23
ENDBRANCH   1  22
TORSDOF 6
