MODEL 2159
MODEL 1
REMARK VINA RESULT:    -9.111      0.000      0.000
REMARK INTER + INTRA:         -14.883
REMARK INTER:                 -12.307
REMARK INTRA:                  -2.576
REMARK UNBOUND:                -2.576
REMARK  Name = No_2159-gen_results/8p0m/2024-11-26-14-13-15/
REMARK  6 active torsions:
REMARK  status: ('A' for Active; 'I' for Inactive)
REMARK    1  A    between atoms: C_1  and  C_2
REMARK    2  A    between atoms: C_1  and  C_8
REMARK    3  A    between atoms: C_5  and  C_14
REMARK    4  A    between atoms: C_12  and  C_18
REMARK    5  A    between atoms: C_20  and  C_22
REMARK    6  A    between atoms: C_26  and  C_30
REMARK                            x       y       z     vdW  Elec       q    Type
REMARK                         _______ _______ _______ _____ _____    ______ ____
ROOT
ATOM      1  C   UNL A   1     -23.461   0.661  27.624  0.00  0.00    -0.018 A 
ATOM      2  C   UNL A   1     -22.313   0.894  28.160  0.00  0.00    -0.004 A 
ATOM      3  C   UNL A   1     -21.784  -0.034  29.130  0.00  0.00    -0.001 A 
ATOM      4  C   UNL A   1     -22.485  -1.220  29.307  0.00  0.00    -0.004 A 
ATOM      5  C   UNL A   1     -23.641  -1.441  28.656  0.00  0.00    -0.022 A 
ATOM      6  C   UNL A   1     -24.178  -0.503  27.820  0.00  0.00    -0.008 A 
ENDROOT
BRANCH   5   7
ATOM      7  C   UNL A   1     -24.424  -2.694  28.925  0.00  0.00    +0.033 C 
ATOM      8  C   UNL A   1     -23.951  -3.776  28.761  0.00  0.00    +0.005 C 
ATOM      9  C   UNL A   1     -25.715  -2.436  29.492  0.00  0.00    +0.084 C 
ATOM     10  C   UNL A   1     -24.671  -5.020  28.997  0.00  0.00    +0.008 C 
ATOM     11  C   UNL A   1     -25.991  -4.814  29.532  0.00  0.00    +0.065 C 
ATOM     12  C   UNL A   1     -26.490  -3.541  29.809  0.00  0.00    +0.155 C 
ATOM     13  O   UNL A   1     -27.666  -3.433  30.257  0.00  0.00    -0.296 OA
BRANCH   9  14
ATOM     14  C   UNL A   1     -26.214  -1.173  29.740  0.00  0.00    -0.019 A 
ATOM     15  C   UNL A   1     -27.100  -0.698  29.024  0.00  0.00    -0.004 A 
ATOM     16  C   UNL A   1     -26.169  -0.753  31.152  0.00  0.00    -0.026 A 
ATOM     17  C   UNL A   1     -26.702   0.474  31.510  0.00  0.00    -0.005 A 
ATOM     18  C   UNL A   1     -27.696   0.620  29.257  0.00  0.00    -0.000 A 
ATOM     19  C   UNL A   1     -27.517   1.148  30.531  0.00  0.00    -0.000 A 
BRANCH  16  20
ATOM     20  C   UNL A   1     -25.047  -1.033  32.039  0.00  0.00    +0.026 C 
ATOM     21  C   UNL A   1     -24.064   0.069  32.119  0.00  0.00    +0.005 C 
ENDBRANCH  16  20
ENDBRANCH   9  14
ENDBRANCH   5   7
BRANCH   1  22
ATOM     22  C   UNL A   1     -24.025   1.674  26.696  0.00  0.00    +0.053 C 
BRANCH  22  23
ATOM     23  C   UNL A   1     -25.019   1.316  26.108  0.00  0.00    -0.018 A 
ATOM     24  C   UNL A   1     -26.230   1.978  26.277  0.00  0.00    -0.004 A 
ATOM     25  C   UNL A   1     -27.523   1.628  25.621  0.00  0.00    +0.004 A 
ATOM     26  C   UNL A   1     -27.460   0.619  24.615  0.00  0.00    +0.071 A 
ATOM     27  C   UNL A   1     -26.208   0.003  24.417  0.00  0.00    +0.004 A 
ATOM     28  C   UNL A   1     -25.088   0.326  25.079  0.00  0.00    -0.004 A 
BRANCH  26  29
ATOM     29  C   UNL A   1     -28.680   0.298  23.928  0.00  0.00    +0.419 C 
ATOM     30  F   UNL A   1     -28.990   1.046  23.009  0.00  0.00    -0.166 F 
ATOM     31  F   UNL A   1     -29.788   0.256  24.827  0.00  0.00    -0.166 F 
ATOM     32  F   UNL A   1     -28.640  -1.026  23.383  0.00  0.00    -0.166 F 
ENDBRANCH  26  29
ENDBRANCH  22  23
ENDBRANCH   1  22
TORSDOF 6
ENDMDL
ENDMDL
