MODEL 215
MODEL 1
REMARK VINA RESULT:    -7.171      0.000      0.000
REMARK INTER + INTRA:          -9.191
REMARK INTER:                  -8.429
REMARK INTRA:                  -0.762
REMARK UNBOUND:                -0.762
REMARK  Name = No_215-gen_results/8p0m/2024-11-26-14-13-15/
REMARK  3 active torsions:
REMARK  status: ('A' for Active; 'I' for Inactive)
REMARK    1  A    between atoms: C_4  and  C_8
REMARK    2  A    between atoms: C_8  and  C_10
REMARK    3  A    between atoms: C_10  and  C_11
REMARK                            x       y       z     vdW  Elec       q    Type
REMARK                         _______ _______ _______ _____ _____    ______ ____
ROOT
ATOM      1  C   UNL A   1     -23.010  -0.790  29.433  0.00  0.00    +0.029 C 
ATOM      2  C   UNL A   1     -22.761  -0.622  30.728  0.00  0.00    +0.005 C 
ENDROOT
BRANCH   1   6
ATOM      3  C   UNL A   1     -22.074   1.939  27.029  0.00  0.00    +0.029 A 
ATOM      4  C   UNL A   1     -23.026   2.193  26.657  0.00  0.00    +0.002 A 
ATOM      5  C   UNL A   1     -22.028   0.846  27.959  0.00  0.00    +0.136 A 
ATOM      6  C   UNL A   1     -23.124   0.276  28.468  0.00  0.00    +0.005 A 
ATOM      7  C   UNL A   1     -24.322   0.721  27.982  0.00  0.00    -0.002 A 
ATOM      8  C   UNL A   1     -24.337   1.717  27.042  0.00  0.00    -0.000 A 
ATOM      9  F   UNL A   1     -20.776   0.474  28.392  0.00  0.00    -0.204 F 
ENDBRANCH   1   6
BRANCH   1  10
ATOM     10  C   UNL A   1     -23.137  -2.176  28.935  0.00  0.00    +0.031 C 
BRANCH  10  11
ATOM     11  C   UNL A   1     -24.166  -3.032  29.301  0.00  0.00    -0.022 A 
ATOM     12  C   UNL A   1     -24.114  -4.344  28.965  0.00  0.00    -0.004 A 
ATOM     13  C   UNL A   1     -25.277  -5.291  29.151  0.00  0.00    -0.000 A 
ATOM     14  C   UNL A   1     -26.414  -4.662  29.661  0.00  0.00    -0.000 A 
ATOM     15  C   UNL A   1     -26.535  -3.352  29.918  0.00  0.00    -0.000 A 
ATOM     16  C   UNL A   1     -25.434  -2.569  29.688  0.00  0.00    -0.004 A 
ENDBRANCH  10  11
ENDBRANCH   1  10
TORSDOF 3
ENDMDL
ENDMDL
