REMARK  Name = No_2160-gen_results/8p0m/2024-11-26-14-13-15/
REMARK  6 active torsions:
REMARK  status: ('A' for Active; 'I' for Inactive)
REMARK    1  A    between atoms: C_3  and  C_8
REMARK    2  A    between atoms: C_6  and  O_7
REMARK    3  A    between atoms: O_7  and  C_14
REMARK    4  A    between atoms: C_14  and  C_15
REMARK    5  A    between atoms: C_14  and  C_19
REMARK    6  A    between atoms: C_20  and  C_21
REMARK                            x       y       z     vdW  Elec       q    Type
REMARK                         _______ _______ _______ _____ _____    ______ ____
ROOT
ATOM      1  C   UNL A   1     -28.016  -0.814  28.878  0.00  0.00    +0.037 A 
ATOM      2  C   UNL A   1     -27.064  -0.119  28.608  0.00  0.00    +0.005 A 
ATOM      3  C   UNL A   1     -25.765  -0.390  29.036  0.00  0.00    +0.018 A 
ATOM      4  C   UNL A   1     -25.530  -1.530  29.901  0.00  0.00    +0.005 A 
ATOM      5  C   UNL A   1     -26.689  -2.289  30.181  0.00  0.00    +0.037 A 
ATOM      6  C   UNL A   1     -27.873  -1.951  29.737  0.00  0.00    +0.140 A 
ENDROOT
BRANCH   3   7
ATOM      7  C   UNL A   1     -24.539   0.421  28.742  0.00  0.00    +0.086 A 
ATOM      8  N   UNL A   1     -23.381   0.074  29.049  0.00  0.00    -0.211 NA
ATOM      9  C   UNL A   1     -22.247   0.725  28.581  0.00  0.00    +0.257 A 
ATOM     10  C   UNL A   1     -24.646   1.594  27.990  0.00  0.00    +0.040 A 
ATOM     11  C   UNL A   1     -23.589   2.302  27.483  0.00  0.00    +0.103 A 
ATOM     12  N   UNL A   1     -22.355   1.834  27.834  0.00  0.00    -0.210 NA
ATOM     13  N   UNL A   1     -21.027   0.240  28.898  0.00  0.00    -0.086 NA
ENDBRANCH   3   7
BRANCH   6  14
ATOM     14  O   UNL A   1     -28.930  -2.730  30.115  0.00  0.00    -0.463 OA
BRANCH  14  15
ATOM     15  C   UNL A   1     -30.047  -2.224  30.583  0.00  0.00    +0.290 C 
BRANCH  15  16
ATOM     16  C   UNL A   1     -31.088  -2.907  30.245  0.00  0.00    +0.408 C 
ATOM     17  O   UNL A   1     -32.008  -2.926  30.740  0.00  0.00    -0.241 OA
ATOM     18  O   UNL A   1     -30.945  -3.982  29.429  0.00  0.00    -0.241 OA
ENDBRANCH  15  16
BRANCH  15  19
ATOM     19  C   UNL A   1     -29.899  -2.007  32.102  0.00  0.00    +0.028 C 
ATOM     20  C   UNL A   1     -29.297  -0.789  32.453  0.00  0.00    -0.001 C 
BRANCH  20  21
ATOM     21  C   UNL A   1     -29.430   0.302  31.944  0.00  0.00    -0.005 C 
ATOM     22  C   UNL A   1     -28.737   1.494  32.357  0.00  0.00    -0.026 C 
ATOM     23  C   UNL A   1     -27.853   1.385  33.421  0.00  0.00    +0.031 C 
ENDBRANCH  20  21
ENDBRANCH  15  19
ENDBRANCH  14  15
ENDBRANCH   6  14
TORSDOF 6
