MODEL 2160
MODEL 1
REMARK VINA RESULT:    -6.150      0.000      0.000
REMARK INTER + INTRA:         -10.003
REMARK INTER:                  -8.308
REMARK INTRA:                  -1.695
REMARK UNBOUND:                -1.695
REMARK  Name = No_2160-gen_results/8p0m/2024-11-26-14-13-15/
REMARK  6 active torsions:
REMARK  status: ('A' for Active; 'I' for Inactive)
REMARK    1  A    between atoms: C_3  and  C_8
REMARK    2  A    between atoms: C_6  and  O_7
REMARK    3  A    between atoms: O_7  and  C_14
REMARK    4  A    between atoms: C_14  and  C_15
REMARK    5  A    between atoms: C_14  and  C_19
REMARK    6  A    between atoms: C_20  and  C_21
REMARK                            x       y       z     vdW  Elec       q    Type
REMARK                         _______ _______ _______ _____ _____    ______ ____
ROOT
ATOM      1  C   UNL A   1     -19.001 -20.983   7.605  0.00  0.00    +0.037 A 
ATOM      2  C   UNL A   1     -18.363 -21.759   8.278  0.00  0.00    +0.005 A 
ATOM      3  C   UNL A   1     -16.993 -21.967   8.125  0.00  0.00    +0.018 A 
ATOM      4  C   UNL A   1     -16.286 -21.267   7.070  0.00  0.00    +0.005 A 
ATOM      5  C   UNL A   1     -17.097 -20.386   6.320  0.00  0.00    +0.037 A 
ATOM      6  C   UNL A   1     -18.383 -20.262   6.533  0.00  0.00    +0.140 A 
ENDROOT
BRANCH   3   7
ATOM      7  C   UNL A   1     -16.137 -22.907   8.919  0.00  0.00    +0.086 A 
ATOM      8  N   UNL A   1     -15.930 -22.798  10.145  0.00  0.00    -0.211 NA
ATOM      9  C   UNL A   1     -15.319 -23.791  10.899  0.00  0.00    +0.257 A 
ATOM     10  C   UNL A   1     -15.604 -24.045   8.308  0.00  0.00    +0.040 A 
ATOM     11  C   UNL A   1     -14.989 -25.076   8.967  0.00  0.00    +0.103 A 
ATOM     12  N   UNL A   1     -14.835 -24.896  10.312  0.00  0.00    -0.210 NA
ATOM     13  N   UNL A   1     -15.200 -23.629  12.235  0.00  0.00    -0.086 NA
ENDBRANCH   3   7
BRANCH   6  14
ATOM     14  O   UNL A   1     -19.076 -19.419   5.711  0.00  0.00    -0.463 OA
BRANCH  14  15
ATOM     15  C   UNL A   1     -20.388 -19.383   5.683  0.00  0.00    +0.290 C 
BRANCH  15  16
ATOM     16  C   UNL A   1     -20.870 -18.275   6.135  0.00  0.00    +0.408 C 
ATOM     17  O   UNL A   1     -20.465 -17.321   6.003  0.00  0.00    -0.241 OA
ATOM     18  O   UNL A   1     -21.744 -18.301   7.172  0.00  0.00    -0.241 OA
ENDBRANCH  15  16
BRANCH  15  19
ATOM     19  C   UNL A   1     -20.868 -19.750   4.265  0.00  0.00    +0.028 C 
ATOM     20  C   UNL A   1     -20.830 -21.124   3.982  0.00  0.00    -0.001 C 
BRANCH  20  21
ATOM     21  C   UNL A   1     -21.095 -22.059   4.705  0.00  0.00    -0.005 C 
ATOM     22  C   UNL A   1     -20.204 -23.149   5.002  0.00  0.00    -0.026 C 
ATOM     23  C   UNL A   1     -18.948 -23.129   4.413  0.00  0.00    +0.031 C 
ENDBRANCH  20  21
ENDBRANCH  15  19
ENDBRANCH  14  15
ENDBRANCH   6  14
TORSDOF 6
ENDMDL
ENDMDL
