MODEL 2161
MODEL 1
REMARK VINA RESULT:    -7.194      0.000      0.000
REMARK INTER + INTRA:          -9.954
REMARK INTER:                  -9.296
REMARK INTRA:                  -0.658
REMARK UNBOUND:                -0.658
REMARK  Name = No_2161-gen_results/8p0m/2024-11-26-14-13-15/
REMARK  5 active torsions:
REMARK  status: ('A' for Active; 'I' for Inactive)
REMARK    1  A    between atoms: C_5  and  C_6
REMARK    2  A    between atoms: C_10  and  N_15
REMARK    3  A    between atoms: N_15  and  C_16
REMARK    4  A    between atoms: C_17  and  C_18
REMARK    5  A    between atoms: C_19  and  C_20
REMARK                            x       y       z     vdW  Elec       q    Type
REMARK                         _______ _______ _______ _____ _____    ______ ____
ROOT
ATOM      1  C   UNL A   1     -23.866  -1.467  29.065  0.00  0.00    +0.123 C 
ATOM      2  N   UNL A   1     -22.624  -1.603  28.940  0.00  0.00    -0.184 NA
ATOM      3  C   UNL A   1     -24.337  -0.113  29.065  0.00  0.00    +0.070 C 
ATOM      4  C   UNL A   1     -23.423   0.903  28.945  0.00  0.00    +0.190 C 
ATOM      5  C   UNL A   1     -21.665  -0.663  28.815  0.00  0.00    +0.341 C 
ATOM      6  N   UNL A   1     -22.115   0.606  28.800  0.00  0.00    -0.167 NA
ATOM      7  O   UNL A   1     -20.444  -0.921  28.663  0.00  0.00    -0.249 OA
ENDROOT
BRANCH   1  12
ATOM      8  C   UNL A   1     -24.362  -3.932  28.963  0.00  0.00    +0.027 A 
ATOM      9  C   UNL A   1     -25.139  -4.848  29.105  0.00  0.00    +0.140 A 
ATOM     10  C   UNL A   1     -26.378  -4.715  29.644  0.00  0.00    +0.030 A 
ATOM     11  C   UNL A   1     -26.789  -3.437  30.066  0.00  0.00    +0.002 A 
ATOM     12  C   UNL A   1     -24.753  -2.582  29.284  0.00  0.00    -0.000 A 
ATOM     13  C   UNL A   1     -25.981  -2.387  29.828  0.00  0.00    -0.003 A 
ATOM     14  F   UNL A   1     -24.793  -6.132  28.752  0.00  0.00    -0.204 F 
ENDBRANCH   1  12
BRANCH   4  15
ATOM     15  N   UNL A   1     -23.734   2.173  28.793  0.00  0.00    -0.216 NA
BRANCH  15  16
ATOM     16  C   UNL A   1     -24.145   2.611  27.547  0.00  0.00    +0.082 C 
ATOM     17  C   UNL A   1     -25.493   2.521  27.433  0.00  0.00    +0.018 C 
BRANCH  17  18
ATOM     18  C   UNL A   1     -26.040   2.764  26.099  0.00  0.00    +0.001 C 
ATOM     19  C   UNL A   1     -26.331   1.677  25.214  0.00  0.00    +0.000 C 
BRANCH  19  20
ATOM     20  C   UNL A   1     -26.056   0.378  25.701  0.00  0.00    +0.000 C 
ATOM     21  C   UNL A   1     -25.790  -0.655  24.855  0.00  0.00    +0.000 C 
ENDBRANCH  19  20
ENDBRANCH  17  18
ENDBRANCH  15  16
ENDBRANCH   4  15
TORSDOF 5
ENDMDL
ENDMDL
