REMARK  Name = No_2161-gen_results/8p0m/2024-11-26-14-13-15/
REMARK  5 active torsions:
REMARK  status: ('A' for Active; 'I' for Inactive)
REMARK    1  A    between atoms: C_5  and  C_6
REMARK    2  A    between atoms: C_10  and  N_15
REMARK    3  A    between atoms: N_15  and  C_16
REMARK    4  A    between atoms: C_17  and  C_18
REMARK    5  A    between atoms: C_19  and  C_20
REMARK                            x       y       z     vdW  Elec       q    Type
REMARK                         _______ _______ _______ _____ _____    ______ ____
ROOT
ATOM      1  C   UNL A   1     -30.170  -1.158  30.133  0.00  0.00    +0.123 C 
ATOM      2  N   UNL A   1     -30.028  -2.348  30.510  0.00  0.00    -0.184 NA
ATOM      3  C   UNL A   1     -31.526  -0.707  30.027  0.00  0.00    +0.070 C 
ATOM      4  C   UNL A   1     -32.538  -1.584  30.322  0.00  0.00    +0.190 C 
ATOM      5  C   UNL A   1     -30.964  -3.268  30.820  0.00  0.00    +0.341 C 
ATOM      6  N   UNL A   1     -32.236  -2.833  30.733  0.00  0.00    -0.167 NA
ATOM      7  O   UNL A   1     -30.701  -4.430  31.220  0.00  0.00    -0.249 OA
ENDROOT
BRANCH   1  12
ATOM      8  C   UNL A   1     -28.016  -0.814  28.878  0.00  0.00    +0.027 A 
ATOM      9  C   UNL A   1     -27.064  -0.119  28.608  0.00  0.00    +0.140 A 
ATOM     10  C   UNL A   1     -26.929   1.171  29.008  0.00  0.00    +0.030 A 
ATOM     11  C   UNL A   1     -27.956   1.741  29.784  0.00  0.00    +0.002 A 
ATOM     12  C   UNL A   1     -29.057  -0.327  29.747  0.00  0.00    -0.000 A 
ATOM     13  C   UNL A   1     -28.977   0.958  30.179  0.00  0.00    -0.003 A 
ATOM     14  F   UNL A   1     -26.040  -0.594  27.821  0.00  0.00    -0.204 F 
ENDBRANCH   1  12
BRANCH   4  15
ATOM     15  N   UNL A   1     -33.811  -1.258  30.398  0.00  0.00    -0.216 NA
BRANCH  15  16
ATOM     16  C   UNL A   1     -34.145   0.026  30.788  0.00  0.00    +0.082 C 
ATOM     17  C   UNL A   1     -34.165   0.858  29.717  0.00  0.00    +0.018 C 
BRANCH  17  18
ATOM     18  C   UNL A   1     -34.309   2.282  30.015  0.00  0.00    +0.001 C 
ATOM     19  C   UNL A   1     -34.206   3.264  28.979  0.00  0.00    +0.000 C 
BRANCH  19  20
ATOM     20  C   UNL A   1     -33.957   2.779  27.674  0.00  0.00    +0.000 C 
ATOM     21  C   UNL A   1     -33.761   1.453  27.435  0.00  0.00    +0.000 C 
ENDBRANCH  19  20
ENDBRANCH  17  18
ENDBRANCH  15  16
ENDBRANCH   4  15
TORSDOF 5
