REMARK  Name = No_2162-gen_results/8p0m/2024-11-26-14-13-15/
REMARK  3 active torsions:
REMARK  status: ('A' for Active; 'I' for Inactive)
REMARK    1  A    between atoms: C_3  and  O_15
REMARK    2  A    between atoms: N_4  and  C_8
REMARK    3  A    between atoms: O_15  and  C_16
REMARK                            x       y       z     vdW  Elec       q    Type
REMARK                         _______ _______ _______ _____ _____    ______ ____
ROOT
ATOM      1  O   UNL A   1     -28.123  -1.335  28.487  0.00  0.00    -0.270 OA
ATOM      2  C   UNL A   1     -28.521  -0.436  29.078  0.00  0.00    +0.275 C 
ATOM      3  C   UNL A   1     -29.698   0.051  28.976  0.00  0.00    +0.242 C 
ATOM      4  N   UNL A   1     -27.541   0.176  30.005  0.00  0.00    -0.205 N 
ATOM      5  C   UNL A   1     -27.889   1.266  30.818  0.00  0.00    +0.235 C 
ATOM      6  C   UNL A   1     -30.117   1.182  29.840  0.00  0.00    +0.063 C 
ATOM      7  C   UNL A   1     -29.157   1.756  30.714  0.00  0.00    +0.090 C 
ATOM      8  O   UNL A   1     -27.041   1.742  31.578  0.00  0.00    -0.274 OA
ENDROOT
BRANCH   4   9
ATOM      9  C   UNL A   1     -26.223  -0.397  30.110  0.00  0.00    +0.061 A 
ATOM     10  C   UNL A   1     -25.857  -0.846  31.108  0.00  0.00    +0.015 A 
ATOM     11  C   UNL A   1     -24.477  -1.381  31.257  0.00  0.00    +0.001 A 
ATOM     12  C   UNL A   1     -23.612  -1.471  30.170  0.00  0.00    +0.000 A 
ATOM     13  C   UNL A   1     -24.125  -0.943  28.956  0.00  0.00    +0.001 A 
ATOM     14  C   UNL A   1     -25.440  -0.420  28.898  0.00  0.00    +0.015 A 
ENDBRANCH   4   9
BRANCH   3  15
ATOM     15  O   UNL A   1     -30.566  -0.463  28.167  0.00  0.00    -0.467 OA
BRANCH  15  16
ATOM     16  C   UNL A   1     -31.713   0.151  27.808  0.00  0.00    +0.168 C 
ATOM     17  C   UNL A   1     -31.777   1.058  27.142  0.00  0.00    +0.014 C 
ATOM     18  C   UNL A   1     -33.022   1.685  26.709  0.00  0.00    +0.034 C 
ENDBRANCH  15  16
ENDBRANCH   3  15
TORSDOF 3
