MODEL 2162
MODEL 1
REMARK VINA RESULT:    -6.745      0.000      0.000
REMARK INTER + INTRA:          -8.164
REMARK INTER:                  -7.928
REMARK INTRA:                  -0.236
REMARK UNBOUND:                -0.236
REMARK  Name = No_2162-gen_results/8p0m/2024-11-26-14-13-15/
REMARK  3 active torsions:
REMARK  status: ('A' for Active; 'I' for Inactive)
REMARK    1  A    between atoms: C_3  and  O_15
REMARK    2  A    between atoms: N_4  and  C_8
REMARK    3  A    between atoms: O_15  and  C_16
REMARK                            x       y       z     vdW  Elec       q    Type
REMARK                         _______ _______ _______ _____ _____    ______ ____
ROOT
ATOM      1  O   UNL A   1     -25.201  -0.777  27.482  0.00  0.00    -0.270 OA
ATOM      2  C   UNL A   1     -24.751  -0.272  28.408  0.00  0.00    +0.275 C 
ATOM      3  C   UNL A   1     -24.541   0.982  28.535  0.00  0.00    +0.242 C 
ATOM      4  N   UNL A   1     -24.388  -1.201  29.503  0.00  0.00    -0.205 N 
ATOM      5  C   UNL A   1     -23.852  -0.729  30.712  0.00  0.00    +0.235 C 
ATOM      6  C   UNL A   1     -24.007   1.527  29.807  0.00  0.00    +0.063 C 
ATOM      7  C   UNL A   1     -23.660   0.615  30.839  0.00  0.00    +0.090 C 
ATOM      8  O   UNL A   1     -23.568  -1.539  31.598  0.00  0.00    -0.274 OA
ENDROOT
BRANCH   4   9
ATOM      9  C   UNL A   1     -24.643  -2.610  29.341  0.00  0.00    +0.061 A 
ATOM     10  C   UNL A   1     -23.848  -3.298  28.865  0.00  0.00    +0.015 A 
ATOM     11  C   UNL A   1     -24.116  -4.741  28.626  0.00  0.00    +0.001 A 
ATOM     12  C   UNL A   1     -25.288  -5.346  29.074  0.00  0.00    +0.000 A 
ATOM     13  C   UNL A   1     -26.215  -4.464  29.689  0.00  0.00    +0.001 A 
ATOM     14  C   UNL A   1     -25.902  -3.092  29.854  0.00  0.00    +0.015 A 
ENDBRANCH   4   9
BRANCH   3  15
ATOM     15  O   UNL A   1     -24.843   1.809  27.588  0.00  0.00    -0.467 OA
BRANCH  15  16
ATOM     16  C   UNL A   1     -23.931   2.395  26.783  0.00  0.00    +0.168 C 
ATOM     17  C   UNL A   1     -23.484   1.920  25.864  0.00  0.00    +0.014 C 
ATOM     18  C   UNL A   1     -22.541   2.578  24.964  0.00  0.00    +0.034 C 
ENDBRANCH  15  16
ENDBRANCH   3  15
TORSDOF 3
ENDMDL
ENDMDL
