REMARK  Name = No_2163-gen_results/8p0m/2024-11-26-14-13-15/
REMARK  0 active torsions:
REMARK  status: ('A' for Active; 'I' for Inactive)
REMARK                            x       y       z     vdW  Elec       q    Type
REMARK                         _______ _______ _______ _____ _____    ______ ____
ROOT
ATOM      1  F   UNL A   1     -28.073  -1.254  28.532  0.00  0.00    -0.203 F 
ATOM      2  C   UNL A   1     -27.061  -0.629  28.872  0.00  0.00    +0.149 A 
ATOM      3  C   UNL A   1     -27.176   0.615  29.369  0.00  0.00    +0.092 A 
ATOM      4  C   UNL A   1     -25.730  -1.269  28.724  0.00  0.00    +0.044 A 
ATOM      5  C   UNL A   1     -24.553  -0.508  29.013  0.00  0.00    +0.090 A 
ATOM      6  C   UNL A   1     -25.947   1.375  29.681  0.00  0.00    +0.176 A 
ATOM      7  C   UNL A   1     -24.675   0.820  29.507  0.00  0.00    +0.178 A 
ATOM      8  F   UNL A   1     -23.540   1.274  29.902  0.00  0.00    -0.201 F 
ATOM      9 CL   UNL A   1     -23.004  -1.184  28.932  0.00  0.00    -0.080 Cl
ATOM     10  F   UNL A   1     -25.992   2.611  30.185  0.00  0.00    -0.201 F 
ATOM     11 BR   UNL A   1     -28.799   1.440  29.553  0.00  0.00    -0.044 Br
ENDROOT
TORSDOF 0
