MODEL 2163
MODEL 1
REMARK VINA RESULT:    -4.787      0.000      0.000
REMARK INTER + INTRA:          -4.787
REMARK INTER:                  -4.787
REMARK INTRA:                   0.000
REMARK UNBOUND:                 0.000
REMARK  Name = No_2163-gen_results/8p0m/2024-11-26-14-13-15/
REMARK  0 active torsions:
REMARK  status: ('A' for Active; 'I' for Inactive)
REMARK                            x       y       z     vdW  Elec       q    Type
REMARK                         _______ _______ _______ _____ _____    ______ ____
ROOT
ATOM      1  F   UNL A   1     -25.693  -0.985  27.761  0.00  0.00    -0.203 F 
ATOM      2  C   UNL A   1     -24.642  -0.334  27.709  0.00  0.00    +0.149 A 
ATOM      3  C   UNL A   1     -23.671  -0.555  28.612  0.00  0.00    +0.092 A 
ATOM      4  C   UNL A   1     -24.473   0.685  26.643  0.00  0.00    +0.044 A 
ATOM      5  C   UNL A   1     -23.306   1.514  26.648  0.00  0.00    +0.090 A 
ATOM      6  C   UNL A   1     -22.465   0.299  28.585  0.00  0.00    +0.176 A 
ATOM      7  C   UNL A   1     -22.294   1.302  27.625  0.00  0.00    +0.178 A 
ATOM      8  F   UNL A   1     -21.242   1.988  27.358  0.00  0.00    -0.201 F 
ATOM      9 CL   UNL A   1     -23.008   2.653  25.433  0.00  0.00    -0.080 Cl
ATOM     10  F   UNL A   1     -21.460   0.127  29.448  0.00  0.00    -0.201 F 
ATOM     11 BR   UNL A   1     -23.850  -1.793  29.947  0.00  0.00    -0.044 Br
ENDROOT
TORSDOF 0
ENDMDL
ENDMDL
