MODEL 2164
MODEL 1
REMARK VINA RESULT:    -5.018      0.000      0.000
REMARK INTER + INTRA:          -5.018
REMARK INTER:                  -5.018
REMARK INTRA:                   0.000
REMARK UNBOUND:                 0.000
REMARK  Name = No_2164-gen_results/8p0m/2024-11-26-14-13-15/
REMARK  0 active torsions:
REMARK  status: ('A' for Active; 'I' for Inactive)
REMARK                            x       y       z     vdW  Elec       q    Type
REMARK                         _______ _______ _______ _____ _____    ______ ____
ROOT
ATOM      1  C   UNL A   1     -10.510  -9.283  19.226  0.00  0.00    +0.042 A 
ATOM      2  C   UNL A   1      -9.752  -9.108  20.151  0.00  0.00    +0.003 A 
ATOM      3  C   UNL A   1      -8.460  -9.621  20.128  0.00  0.00    +0.000 A 
ATOM      4  C   UNL A   1      -7.998 -10.416  19.019  0.00  0.00    +0.003 A 
ATOM      5  C   UNL A   1      -8.947 -10.588  18.003  0.00  0.00    +0.042 A 
ATOM      6  C   UNL A   1     -10.162 -10.097  18.081  0.00  0.00    +0.196 A 
ATOM      7  O   UNL A   1     -11.036 -10.343  17.067  0.00  0.00    -0.287 OA
ENDROOT
TORSDOF 0
ENDMDL
ENDMDL
