MODEL 2165
MODEL 1
REMARK VINA RESULT:    -7.974      0.000      0.000
REMARK INTER + INTRA:          -8.891
REMARK INTER:                  -8.440
REMARK INTRA:                  -0.451
REMARK UNBOUND:                -0.451
REMARK  Name = No_2165-gen_results/8p0m/2024-11-26-14-13-15/
REMARK  1 active torsions:
REMARK  status: ('A' for Active; 'I' for Inactive)
REMARK    1  A    between atoms: C_2  and  C_10
REMARK                            x       y       z     vdW  Elec       q    Type
REMARK                         _______ _______ _______ _____ _____    ______ ____
ROOT
ATOM      1  C   UNL A   1     -26.254  -0.395  28.508  0.00  0.00    +0.001 A 
ATOM      2  C   UNL A   1     -25.185  -0.950  28.614  0.00  0.00    +0.000 A 
ATOM      3  C   UNL A   1     -23.972  -0.311  28.445  0.00  0.00    +0.001 A 
ATOM      4  C   UNL A   1     -23.987   1.085  28.167  0.00  0.00    +0.013 A 
ATOM      5  C   UNL A   1     -25.196   1.691  28.227  0.00  0.00    +0.048 A 
ATOM      6  C   UNL A   1     -26.303   1.005  28.436  0.00  0.00    +0.015 A 
ATOM      7  N   UNL A   1     -25.403   3.054  28.060  0.00  0.00    -0.309 N 
ATOM      8  C   UNL A   1     -24.852   3.712  27.098  0.00  0.00    +0.077 C 
ATOM      9  C   UNL A   1     -26.238   3.799  28.938  0.00  0.00    +0.091 C 
ATOM     10  C   UNL A   1     -26.047   4.752  29.211  0.00  0.00    +0.021 C 
ATOM     11  C   UNL A   1     -24.153   3.073  26.057  0.00  0.00    +0.046 C 
ATOM     12  C   UNL A   1     -24.888   5.117  27.058  0.00  0.00    +0.020 C 
ATOM     13  C   UNL A   1     -25.557   5.755  28.133  0.00  0.00    +0.004 C 
ATOM     14  C   UNL A   1     -23.232   2.054  26.320  0.00  0.00    -0.024 C 
ATOM     15  C   UNL A   1     -23.348   0.938  27.056  0.00  0.00    -0.003 C 
ENDROOT
BRANCH   2  16
ATOM     16  C   UNL A   1     -25.051  -2.525  28.747  0.00  0.00    +0.000 A 
ATOM     17  C   UNL A   1     -24.169  -3.097  28.499  0.00  0.00    +0.000 A 
ATOM     18  C   UNL A   1     -24.018  -4.599  28.601  0.00  0.00    +0.000 A 
ATOM     19  C   UNL A   1     -24.857  -5.197  29.171  0.00  0.00    +0.000 A 
ATOM     20  C   UNL A   1     -26.054  -3.406  29.500  0.00  0.00    +0.000 A 
ATOM     21  C   UNL A   1     -26.004  -4.644  29.658  0.00  0.00    +0.000 A 
ENDBRANCH   2  16
TORSDOF 1
ENDMDL
ENDMDL
