REMARK  Name = No_2165-gen_results/8p0m/2024-11-26-14-13-15/
REMARK  1 active torsions:
REMARK  status: ('A' for Active; 'I' for Inactive)
REMARK    1  A    between atoms: C_2  and  C_10
REMARK                            x       y       z     vdW  Elec       q    Type
REMARK                         _______ _______ _______ _____ _____    ______ ____
ROOT
ATOM      1  C   UNL A   1     -28.016  -0.814  28.878  0.00  0.00    +0.001 A 
ATOM      2  C   UNL A   1     -27.064  -0.119  28.608  0.00  0.00    +0.000 A 
ATOM      3  C   UNL A   1     -27.001   0.691  27.491  0.00  0.00    +0.001 A 
ATOM      4  C   UNL A   1     -28.137   0.736  26.635  0.00  0.00    +0.013 A 
ATOM      5  C   UNL A   1     -29.236   0.076  27.069  0.00  0.00    +0.048 A 
ATOM      6  C   UNL A   1     -29.218  -0.643  28.175  0.00  0.00    +0.015 A 
ATOM      7  N   UNL A   1     -30.459   0.065  26.412  0.00  0.00    -0.309 N 
ATOM      8  C   UNL A   1     -30.546  -0.135  25.141  0.00  0.00    +0.077 C 
ATOM      9  C   UNL A   1     -31.685   0.269  27.104  0.00  0.00    +0.091 C 
ATOM     10  C   UNL A   1     -32.470   0.766  26.710  0.00  0.00    +0.021 C 
ATOM     11  C   UNL A   1     -29.438  -0.528  24.367  0.00  0.00    +0.046 C 
ATOM     12  C   UNL A   1     -31.753   0.067  24.449  0.00  0.00    +0.020 C 
ATOM     13  C   UNL A   1     -32.853   0.505  25.229  0.00  0.00    +0.004 C 
ATOM     14  C   UNL A   1     -28.194   0.094  24.512  0.00  0.00    -0.024 C 
ATOM     15  C   UNL A   1     -27.461   0.342  25.609  0.00  0.00    -0.003 C 
ENDROOT
BRANCH   2  16
ATOM     16  C   UNL A   1     -25.686  -0.220  29.388  0.00  0.00    +0.000 A 
ATOM     17  C   UNL A   1     -25.411  -1.016  30.064  0.00  0.00    +0.000 A 
ATOM     18  C   UNL A   1     -24.112  -1.130  30.832  0.00  0.00    +0.000 A 
ATOM     19  C   UNL A   1     -23.238  -0.396  30.542  0.00  0.00    +0.000 A 
ATOM     20  C   UNL A   1     -24.463   0.649  29.074  0.00  0.00    +0.000 A 
ATOM     21  C   UNL A   1     -23.346   0.614  29.633  0.00  0.00    +0.000 A 
ENDBRANCH   2  16
TORSDOF 1
