REMARK  Name = No_2166-gen_results/8p0m/2024-11-26-14-13-15/
REMARK  9 active torsions:
REMARK  status: ('A' for Active; 'I' for Inactive)
REMARK    1  A    between atoms: C_1  and  O_12
REMARK    2  A    between atoms: C_4  and  O_15
REMARK    3  A    between atoms: C_9  and  O_14
REMARK    4  A    between atoms: O_14  and  C_16
REMARK    5  A    between atoms: C_16  and  C_17
REMARK    6  A    between atoms: C_17  and  O_18
REMARK    7  A    between atoms: O_18  and  C_22
REMARK    8  A    between atoms: C_22  and  C_23
REMARK    9  A    between atoms: C_28  and  C_29
REMARK                            x       y       z     vdW  Elec       q    Type
REMARK                         _______ _______ _______ _____ _____    ______ ____
ROOT
ATOM      1  C   UNL A   1     -33.157  -2.731  28.059  0.00  0.00    +0.423 C 
ATOM      2  O   UNL A   1     -34.319  -2.489  27.550  0.00  0.00    -0.237 OA
ENDROOT
BRANCH   1   3
ATOM      3  C   UNL A   1     -32.630  -3.952  28.030  0.00  0.00    +0.421 C 
ATOM      4  O   UNL A   1     -32.842  -4.729  26.929  0.00  0.00    -0.237 OA
BRANCH   3   5
ATOM      5  O   UNL A   1     -31.894  -4.403  28.783  0.00  0.00    -0.411 OA
BRANCH   5   6
ATOM      6  C   UNL A   1     -31.142  -5.681  28.762  0.00  0.00    +0.344 C 
ATOM      7  O   UNL A   1     -31.275  -6.434  27.991  0.00  0.00    -0.169 OA
BRANCH   6   8
ATOM      8  C   UNL A   1     -30.474  -5.928  29.982  0.00  0.00    +0.050 A 
ATOM      9  C   UNL A   1     -29.715  -4.827  30.508  0.00  0.00    +0.002 A 
ATOM     10  C   UNL A   1     -29.011  -4.999  31.751  0.00  0.00    -0.000 A 
ATOM     11  C   UNL A   1     -29.344  -6.106  32.491  0.00  0.00    -0.000 A 
ATOM     12  C   UNL A   1     -30.140  -7.133  31.967  0.00  0.00    -0.000 A 
ATOM     13  C   UNL A   1     -30.743  -6.971  30.776  0.00  0.00    +0.002 A 
BRANCH  13  14
ATOM     14  C   UNL A   1     -31.620  -7.883  30.147  0.00  0.00    -0.000 A 
ATOM     15  C   UNL A   1     -31.674  -8.934  30.188  0.00  0.00    -0.000 A 
ATOM     16  C   UNL A   1     -32.357  -9.930  29.660  0.00  0.00    -0.000 A 
ATOM     17  C   UNL A   1     -33.290  -9.503  28.663  0.00  0.00    -0.000 A 
ATOM     18  C   UNL A   1     -33.360  -8.139  28.435  0.00  0.00    -0.000 A 
ATOM     19  C   UNL A   1     -32.499  -7.285  29.146  0.00  0.00    -0.000 A 
ENDBRANCH  13  14
ENDBRANCH   6   8
ENDBRANCH   5   6
ENDBRANCH   3   5
ENDBRANCH   1   3
BRANCH   1  20
ATOM     20  O   UNL A   1     -32.586  -1.847  28.532  0.00  0.00    -0.417 OA
BRANCH  20  29
ATOM     21  C   UNL A   1     -28.016  -0.814  28.878  0.00  0.00    +0.141 A 
ATOM     22  C   UNL A   1     -27.064  -0.119  28.608  0.00  0.00    +0.070 A 
ATOM     23  C   UNL A   1     -27.001   0.691  27.491  0.00  0.00    +0.177 A 
ATOM     24  C   UNL A   1     -28.137   0.736  26.635  0.00  0.00    +0.166 A 
ATOM     25  C   UNL A   1     -29.236   0.076  27.069  0.00  0.00    +0.039 A 
ATOM     26  C   UNL A   1     -29.218  -0.643  28.175  0.00  0.00    +0.040 A 
ATOM     27  C   UNL A   1     -30.523   0.081  26.369  0.00  0.00    +0.006 A 
ATOM     28  C   UNL A   1     -31.526  -0.509  26.865  0.00  0.00    +0.038 A 
ATOM     29  C   UNL A   1     -31.443  -1.219  28.091  0.00  0.00    +0.149 A 
ATOM     30  C   UNL A   1     -30.327  -1.300  28.734  0.00  0.00    +0.041 A 
ATOM     31  F   UNL A   1     -25.851   1.341  27.103  0.00  0.00    -0.201 F 
BRANCH  21  32
ATOM     32  O   UNL A   1     -27.913  -1.528  30.075  0.00  0.00    -0.471 OA
ATOM     33  C   UNL A   1     -27.802  -1.093  31.324  0.00  0.00    +0.253 C 
ENDBRANCH  21  32
BRANCH  24  34
ATOM     34  O   UNL A   1     -28.080   1.497  25.549  0.00  0.00    -0.469 OA
ATOM     35  C   UNL A   1     -28.409   2.654  25.576  0.00  0.00    +0.253 C 
ENDBRANCH  24  34
ENDBRANCH  20  29
ENDBRANCH   1  20
TORSDOF 9
