MODEL 2166
MODEL 1
REMARK VINA RESULT:    -6.768      0.000      0.000
REMARK INTER + INTRA:         -13.402
REMARK INTER:                 -10.329
REMARK INTRA:                  -3.073
REMARK UNBOUND:                -3.073
REMARK  Name = No_2166-gen_results/8p0m/2024-11-26-14-13-15/
REMARK  9 active torsions:
REMARK  status: ('A' for Active; 'I' for Inactive)
REMARK    1  A    between atoms: C_1  and  O_12
REMARK    2  A    between atoms: C_4  and  O_15
REMARK    3  A    between atoms: C_9  and  O_14
REMARK    4  A    between atoms: O_14  and  C_16
REMARK    5  A    between atoms: C_16  and  C_17
REMARK    6  A    between atoms: C_17  and  O_18
REMARK    7  A    between atoms: O_18  and  C_22
REMARK    8  A    between atoms: C_22  and  C_23
REMARK    9  A    between atoms: C_28  and  C_29
REMARK                            x       y       z     vdW  Elec       q    Type
REMARK                         _______ _______ _______ _____ _____    ______ ____
ROOT
ATOM      1  C   UNL A   1     -24.813   0.714  31.974  0.00  0.00    +0.423 C 
ATOM      2  O   UNL A   1     -25.547   0.336  32.967  0.00  0.00    -0.237 OA
ENDROOT
BRANCH   1   3
ATOM      3  C   UNL A   1     -23.825  -0.049  31.514  0.00  0.00    +0.421 C 
ATOM      4  O   UNL A   1     -23.800  -1.367  31.865  0.00  0.00    -0.237 OA
BRANCH   3   5
ATOM      5  O   UNL A   1     -23.035   0.241  30.737  0.00  0.00    -0.411 OA
BRANCH   5   6
ATOM      6  C   UNL A   1     -22.652  -0.398  29.455  0.00  0.00    +0.344 C 
ATOM      7  O   UNL A   1     -21.760  -1.007  29.340  0.00  0.00    -0.169 OA
BRANCH   6   8
ATOM      8  C   UNL A   1     -23.395   0.105  28.364  0.00  0.00    +0.050 A 
ATOM      9  C   UNL A   1     -22.858   1.282  27.738  0.00  0.00    +0.002 A 
ATOM     10  C   UNL A   1     -23.555   1.851  26.615  0.00  0.00    -0.000 A 
ATOM     11  C   UNL A   1     -24.526   1.068  26.041  0.00  0.00    -0.000 A 
ATOM     12  C   UNL A   1     -24.982  -0.108  26.650  0.00  0.00    -0.000 A 
ATOM     13  C   UNL A   1     -24.348  -0.591  27.733  0.00  0.00    +0.002 A 
BRANCH  13  14
ATOM     14  C   UNL A   1     -24.647  -1.790  28.417  0.00  0.00    -0.000 A 
ATOM     15  C   UNL A   1     -24.170  -2.729  28.412  0.00  0.00    -0.000 A 
ATOM     16  C   UNL A   1     -24.315  -3.937  28.920  0.00  0.00    -0.000 A 
ATOM     17  C   UNL A   1     -25.522  -4.086  29.674  0.00  0.00    -0.000 A 
ATOM     18  C   UNL A   1     -26.317  -2.958  29.786  0.00  0.00    -0.000 A 
ATOM     19  C   UNL A   1     -25.922  -1.779  29.129  0.00  0.00    -0.000 A 
ENDBRANCH  13  14
ENDBRANCH   6   8
ENDBRANCH   5   6
ENDBRANCH   3   5
ENDBRANCH   1   3
BRANCH   1  20
ATOM     20  O   UNL A   1     -25.052   1.734  31.490  0.00  0.00    -0.417 OA
BRANCH  20  29
ATOM     21  C   UNL A   1     -25.999   4.245  27.634  0.00  0.00    +0.141 A 
ATOM     22  C   UNL A   1     -26.758   4.603  26.763  0.00  0.00    +0.070 A 
ATOM     23  C   UNL A   1     -27.873   3.885  26.378  0.00  0.00    +0.177 A 
ATOM     24  C   UNL A   1     -28.161   2.677  27.073  0.00  0.00    +0.166 A 
ATOM     25  C   UNL A   1     -27.383   2.408  28.147  0.00  0.00    +0.039 A 
ATOM     26  C   UNL A   1     -26.359   3.176  28.468  0.00  0.00    +0.040 A 
ATOM     27  C   UNL A   1     -27.583   1.261  29.036  0.00  0.00    +0.006 A 
ATOM     28  C   UNL A   1     -26.854   1.105  30.058  0.00  0.00    +0.038 A 
ATOM     29  C   UNL A   1     -25.803   2.007  30.369  0.00  0.00    +0.149 A 
ATOM     30  C   UNL A   1     -25.545   3.012  29.602  0.00  0.00    +0.041 A 
ATOM     31  F   UNL A   1     -28.628   4.212  25.274  0.00  0.00    -0.201 F 
BRANCH  21  32
ATOM     32  O   UNL A   1     -24.953   5.129  27.915  0.00  0.00    -0.471 OA
ATOM     33  C   UNL A   1     -24.918   6.455  27.869  0.00  0.00    +0.253 C 
ENDBRANCH  21  32
BRANCH  24  34
ATOM     34  O   UNL A   1     -29.220   1.970  26.698  0.00  0.00    -0.469 OA
ATOM     35  C   UNL A   1     -29.134   1.106  25.865  0.00  0.00    +0.253 C 
ENDBRANCH  24  34
ENDBRANCH  20  29
ENDBRANCH   1  20
TORSDOF 9
ENDMDL
ENDMDL
