MODEL 2167
MODEL 1
REMARK VINA RESULT:    -4.330      0.000      0.000
REMARK INTER + INTRA:          -4.330
REMARK INTER:                  -4.330
REMARK INTRA:                   0.000
REMARK UNBOUND:                 0.000
REMARK  Name = No_2167-gen_results/8p0m/2024-11-26-14-13-15/
REMARK  0 active torsions:
REMARK  status: ('A' for Active; 'I' for Inactive)
REMARK                            x       y       z     vdW  Elec       q    Type
REMARK                         _______ _______ _______ _____ _____    ______ ____
ROOT
ATOM      1  C   UNL A   1     -23.972  -3.142  28.881  0.00  0.00    +0.000 A 
ATOM      2  C   UNL A   1     -24.875  -2.782  29.288  0.00  0.00    +0.000 A 
ATOM      3  C   UNL A   1     -23.992  -4.582  28.596  0.00  0.00    +0.000 A 
ATOM      4  C   UNL A   1     -24.989  -5.376  28.989  0.00  0.00    +0.000 A 
ATOM      5  C   UNL A   1     -26.054  -3.433  29.804  0.00  0.00    +0.000 A 
ATOM      6  C   UNL A   1     -26.043  -4.773  29.552  0.00  0.00    +0.000 A 
ENDROOT
TORSDOF 0
ENDMDL
ENDMDL
