MODEL 2168
MODEL 1
REMARK VINA RESULT:    -5.026      0.000      0.000
REMARK INTER + INTRA:          -5.026
REMARK INTER:                  -5.026
REMARK INTRA:                   0.000
REMARK UNBOUND:                 0.000
REMARK  Name = No_2168-gen_results/8p0m/2024-11-26-14-13-15/
REMARK  0 active torsions:
REMARK  status: ('A' for Active; 'I' for Inactive)
REMARK                            x       y       z     vdW  Elec       q    Type
REMARK                         _______ _______ _______ _____ _____    ______ ____
ROOT
ATOM      1  C   UNL A   1     -10.506  -9.293  19.206  0.00  0.00    +0.042 A 
ATOM      2  C   UNL A   1      -9.761  -9.100  20.139  0.00  0.00    +0.003 A 
ATOM      3  C   UNL A   1      -8.461  -9.595  20.134  0.00  0.00    +0.000 A 
ATOM      4  C   UNL A   1      -7.977 -10.392  19.037  0.00  0.00    +0.003 A 
ATOM      5  C   UNL A   1      -8.911 -10.586  18.012  0.00  0.00    +0.042 A 
ATOM      6  C   UNL A   1     -10.134 -10.110  18.073  0.00  0.00    +0.196 A 
ATOM      7  O   UNL A   1     -10.993 -10.377  17.051  0.00  0.00    -0.287 OA
ENDROOT
TORSDOF 0
ENDMDL
ENDMDL
