MODEL 2169
MODEL 1
REMARK VINA RESULT:    -5.282      0.000      0.000
REMARK INTER + INTRA:          -5.943
REMARK INTER:                  -5.899
REMARK INTRA:                  -0.044
REMARK UNBOUND:                -0.044
REMARK  Name = No_2169-gen_results/8p0m/2024-11-26-14-13-15/
REMARK  2 active torsions:
REMARK  status: ('A' for Active; 'I' for Inactive)
REMARK    1  A    between atoms: C_2  and  C_7
REMARK    2  A    between atoms: C_7  and  N_8
REMARK                            x       y       z     vdW  Elec       q    Type
REMARK                         _______ _______ _______ _____ _____    ______ ____
ROOT
ATOM      1  C   UNL A   1     -23.841  -3.364  28.563  0.00  0.00    +0.005 A 
ATOM      2  C   UNL A   1     -24.573  -2.808  29.078  0.00  0.00    +0.055 A 
ATOM      3  C   UNL A   1     -24.054  -4.861  28.546  0.00  0.00    +0.000 A 
ATOM      4  C   UNL A   1     -25.248  -5.396  29.074  0.00  0.00    +0.000 A 
ATOM      5  C   UNL A   1     -25.896  -3.106  29.671  0.00  0.00    +0.005 A 
ATOM      6  C   UNL A   1     -26.130  -4.474  29.668  0.00  0.00    +0.000 A 
ENDROOT
BRANCH   2   7
ATOM      7  C   UNL A   1     -24.380  -1.214  29.100  0.00  0.00    +0.269 C 
ATOM      8  O   UNL A   1     -24.837  -0.588  28.146  0.00  0.00    -0.268 OA
BRANCH   7   9
ATOM      9  N   UNL A   1     -23.878  -0.659  30.151  0.00  0.00    -0.179 NA
ATOM     10  C   UNL A   1     -22.715  -0.233  30.263  0.00  0.00    +0.063 C 
ATOM     11  C   UNL A   1     -21.840  -0.450  29.162  0.00  0.00    +0.050 C 
ENDBRANCH   7   9
ENDBRANCH   2   7
TORSDOF 2
ENDMDL
ENDMDL
