REMARK  Name = No_2169-gen_results/8p0m/2024-11-26-14-13-15/
REMARK  2 active torsions:
REMARK  status: ('A' for Active; 'I' for Inactive)
REMARK    1  A    between atoms: C_2  and  C_7
REMARK    2  A    between atoms: C_7  and  N_8
REMARK                            x       y       z     vdW  Elec       q    Type
REMARK                         _______ _______ _______ _____ _____    ______ ____
ROOT
ATOM      1  C   UNL A   1     -28.016  -0.814  28.878  0.00  0.00    +0.005 A 
ATOM      2  C   UNL A   1     -28.469  -0.785  29.829  0.00  0.00    +0.055 A 
ATOM      3  C   UNL A   1     -26.504  -0.778  28.877  0.00  0.00    +0.000 A 
ATOM      4  C   UNL A   1     -25.810  -0.853  30.103  0.00  0.00    +0.000 A 
ATOM      5  C   UNL A   1     -27.991  -0.892  31.226  0.00  0.00    +0.005 A 
ATOM      6  C   UNL A   1     -26.604  -0.868  31.265  0.00  0.00    +0.000 A 
ENDROOT
BRANCH   2   7
ATOM      7  C   UNL A   1     -30.074  -0.836  29.861  0.00  0.00    +0.269 C 
ATOM      8  O   UNL A   1     -30.606  -1.839  29.389  0.00  0.00    -0.268 OA
BRANCH   7   9
ATOM      9  N   UNL A   1     -30.717   0.096  30.478  0.00  0.00    -0.179 NA
ATOM     10  C   UNL A   1     -31.954   0.177  30.587  0.00  0.00    +0.063 C 
ATOM     11  C   UNL A   1     -32.727  -0.801  29.902  0.00  0.00    +0.050 C 
ENDBRANCH   7   9
ENDBRANCH   2   7
TORSDOF 2
