MODEL 216
MODEL 1
REMARK VINA RESULT:    -6.512      0.000      0.000
REMARK INTER + INTRA:          -7.691
REMARK INTER:                  -7.274
REMARK INTRA:                  -0.417
REMARK UNBOUND:                -0.417
REMARK  Name = No_216-gen_results/8p0m/2024-11-26-14-13-15/
REMARK  2 active torsions:
REMARK  status: ('A' for Active; 'I' for Inactive)
REMARK    1  A    between atoms: C_3  and  C_7
REMARK    2  A    between atoms: C_6  and  C_13
REMARK                            x       y       z     vdW  Elec       q    Type
REMARK                         _______ _______ _______ _____ _____    ______ ____
ROOT
ATOM      1  C   UNL A   1     -29.373 -10.247  32.456  0.00  0.00    +0.007 A 
ATOM      2  C   UNL A   1     -29.733 -10.168  31.304  0.00  0.00    +0.000 A 
ATOM      3  C   UNL A   1     -29.283 -11.020  30.296  0.00  0.00    +0.000 A 
ATOM      4  C   UNL A   1     -28.286 -12.024  30.613  0.00  0.00    +0.000 A 
ATOM      5  C   UNL A   1     -27.885 -12.066  31.947  0.00  0.00    +0.007 A 
ATOM      6  C   UNL A   1     -28.355 -11.212  32.836  0.00  0.00    +0.080 A 
ENDROOT
BRANCH   3   7
ATOM      7  C   UNL A   1     -29.681 -10.994  28.852  0.00  0.00    +0.000 A 
ATOM      8  C   UNL A   1     -30.698 -10.294  28.436  0.00  0.00    +0.000 A 
ATOM      9  C   UNL A   1     -31.123 -10.344  27.074  0.00  0.00    +0.000 A 
ATOM     10  C   UNL A   1     -30.607 -11.247  26.176  0.00  0.00    +0.000 A 
ATOM     11  C   UNL A   1     -29.079 -11.945  27.905  0.00  0.00    +0.000 A 
ATOM     12  C   UNL A   1     -29.553 -12.018  26.574  0.00  0.00    +0.000 A 
ENDBRANCH   3   7
BRANCH   6  13
ATOM     13  C   UNL A   1     -27.824 -11.289  34.231  0.00  0.00    +0.388 C 
ATOM     14  O   UNL A   1     -27.302 -12.326  34.674  0.00  0.00    -0.241 OA
ATOM     15  O   UNL A   1     -27.464 -10.185  34.807  0.00  0.00    -0.241 OA
ENDBRANCH   6  13
TORSDOF 2
ENDMDL
ENDMDL
