REMARK  Name = No_217-gen_results/8p0m/2024-11-26-14-13-15/
REMARK  5 active torsions:
REMARK  status: ('A' for Active; 'I' for Inactive)
REMARK    1  A    between atoms: C_2  and  O_7
REMARK    2  A    between atoms: O_7  and  C_8
REMARK    3  A    between atoms: C_11  and  C_28
REMARK    4  A    between atoms: C_14  and  C_15
REMARK    5  A    between atoms: N_21  and  C_22
REMARK                            x       y       z     vdW  Elec       q    Type
REMARK                         _______ _______ _______ _____ _____    ______ ____
ROOT
ATOM      1  C   UNL A   1     -28.016  -0.814  28.878  0.00  0.00    +0.052 A 
ATOM      2  C   UNL A   1     -28.469  -0.785  29.829  0.00  0.00    +0.146 A 
ATOM      3  C   UNL A   1     -26.546  -0.876  28.850  0.00  0.00    +0.053 A 
ATOM      4  C   UNL A   1     -25.804  -1.032  30.057  0.00  0.00    -0.003 A 
ATOM      5  C   UNL A   1     -27.944  -0.987  31.207  0.00  0.00    +0.037 A 
ATOM      6  C   UNL A   1     -26.582  -1.039  31.223  0.00  0.00    +0.001 A 
ATOM      7  C   UNL A   1     -24.420  -1.245  30.264  0.00  0.00    +0.066 C 
ATOM      8  N   UNL A   1     -25.780  -0.759  27.674  0.00  0.00    -0.262 N 
ATOM      9  C   UNL A   1     -24.721  -1.732  27.444  0.00  0.00    +0.244 C 
ATOM     10  C   UNL A   1     -23.967  -2.453  29.353  0.00  0.00    +0.152 C 
ATOM     11  O   UNL A   1     -23.950  -2.304  28.123  0.00  0.00    -0.333 OA
ATOM     12  C   UNL A   1     -24.129  -1.778  31.789  0.00  0.00    +0.011 C 
ENDROOT
BRANCH   7  13
ATOM     13  C   UNL A   1     -23.460  -0.109  30.123  0.00  0.00    -0.017 A 
ATOM     14  C   UNL A   1     -22.355  -0.119  29.328  0.00  0.00    -0.004 A 
ATOM     15  C   UNL A   1     -21.678   1.046  28.920  0.00  0.00    -0.000 A 
ATOM     16  C   UNL A   1     -22.529   2.231  28.824  0.00  0.00    -0.000 A 
ATOM     17  C   UNL A   1     -23.728   2.283  29.580  0.00  0.00    -0.000 A 
ATOM     18  C   UNL A   1     -24.247   1.166  30.250  0.00  0.00    -0.004 A 
ENDBRANCH   7  13
BRANCH   8  19
ATOM     19  C   UNL A   1     -26.111   0.055  26.638  0.00  0.00    +0.053 A 
ATOM     20  C   UNL A   1     -25.279   0.090  25.502  0.00  0.00    +0.015 A 
ATOM     21  C   UNL A   1     -27.140   1.015  26.673  0.00  0.00    +0.015 A 
ATOM     22  C   UNL A   1     -27.388   1.892  25.626  0.00  0.00    +0.001 A 
ATOM     23  C   UNL A   1     -26.765   1.746  24.526  0.00  0.00    +0.000 A 
ATOM     24  C   UNL A   1     -25.615   0.887  24.438  0.00  0.00    +0.001 A 
ENDBRANCH   8  19
BRANCH   2  25
ATOM     25  O   UNL A   1     -29.927  -0.726  29.877  0.00  0.00    -0.454 OA
BRANCH  25  26
ATOM     26  C   UNL A   1     -30.505  -0.024  28.962  0.00  0.00    +0.145 A 
ATOM     27  C   UNL A   1     -31.377  -0.399  28.117  0.00  0.00    +0.037 A 
ATOM     28  C   UNL A   1     -31.939   0.323  27.041  0.00  0.00    +0.007 A 
ATOM     29  C   UNL A   1     -31.491   1.658  26.946  0.00  0.00    +0.072 A 
ATOM     30  C   UNL A   1     -30.015   1.364  28.741  0.00  0.00    +0.037 A 
ATOM     31  C   UNL A   1     -30.543   2.152  27.815  0.00  0.00    +0.007 A 
BRANCH  29  32
ATOM     32  C   UNL A   1     -32.133   2.535  25.905  0.00  0.00    +0.419 C 
ATOM     33  F   UNL A   1     -31.465   2.641  24.912  0.00  0.00    -0.166 F 
ATOM     34  F   UNL A   1     -32.263   3.797  26.443  0.00  0.00    -0.166 F 
ATOM     35  F   UNL A   1     -33.374   2.134  25.582  0.00  0.00    -0.166 F 
ENDBRANCH  29  32
ENDBRANCH  25  26
ENDBRANCH   2  25
TORSDOF 5
