MODEL 2170
MODEL 1
REMARK VINA RESULT:    -7.473      0.000      0.000
REMARK INTER + INTRA:          -8.019
REMARK INTER:                  -7.910
REMARK INTRA:                  -0.109
REMARK UNBOUND:                -0.109
REMARK  Name = No_2170-gen_results/8p0m/2024-11-26-14-13-15/
REMARK  1 active torsions:
REMARK  status: ('A' for Active; 'I' for Inactive)
REMARK    1  A    between atoms: C_5  and  C_17
REMARK                            x       y       z     vdW  Elec       q    Type
REMARK                         _______ _______ _______ _____ _____    ______ ____
ROOT
ATOM      1  C   UNL A   1     -29.905  -9.816  32.600  0.00  0.00    +0.018 A 
ATOM      2  C   UNL A   1     -30.217 -10.044  31.454  0.00  0.00    +0.063 A 
ATOM      3  C   UNL A   1     -29.550 -10.909  30.604  0.00  0.00    +0.055 A 
ATOM      4  C   UNL A   1     -28.426 -11.606  31.137  0.00  0.00    +0.011 A 
ATOM      5  C   UNL A   1     -28.197 -11.457  32.452  0.00  0.00    +0.080 A 
ATOM      6  C   UNL A   1     -28.907 -10.651  33.188  0.00  0.00    +0.008 A 
ATOM      7  C   UNL A   1     -29.894 -11.051  29.144  0.00  0.00    +0.198 A 
ATOM      8  C   UNL A   1     -30.580 -10.005  28.653  0.00  0.00    +0.058 A 
ATOM      9  C   UNL A   1     -31.122 -10.098  27.293  0.00  0.00    +0.005 A 
ATOM     10  C   UNL A   1     -32.026  -9.089  26.804  0.00  0.00    +0.003 A 
ATOM     11  C   UNL A   1     -32.299  -7.969  27.528  0.00  0.00    +0.039 A 
ATOM     12  C   UNL A   1     -31.711  -7.802  28.804  0.00  0.00    +0.161 A 
ATOM     13  C   UNL A   1     -30.924  -8.820  29.345  0.00  0.00    +0.098 A 
ATOM     14  N   UNL A   1     -30.937  -8.966  30.766  0.00  0.00    -0.320 N 
ATOM     15  C   UNL A   1     -31.557  -7.939  31.543  0.00  0.00    +0.136 C 
ATOM     16  O   UNL A   1     -29.431 -12.002  28.484  0.00  0.00    -0.286 OA
ATOM     17  C   UNL A   1     -30.964  -6.723  31.330  0.00  0.00    +0.038 A 
ATOM     18  C   UNL A   1     -29.599  -6.482  31.610  0.00  0.00    +0.001 A 
ATOM     19  C   UNL A   1     -29.324  -5.083  31.458  0.00  0.00    +0.003 A 
ATOM     20  C   UNL A   1     -30.077  -4.229  30.668  0.00  0.00    +0.045 A 
ATOM     21  C   UNL A   1     -31.223  -4.755  30.060  0.00  0.00    +0.230 A 
ATOM     22  C   UNL A   1     -31.737  -5.949  30.438  0.00  0.00    +0.182 A 
ATOM     23  O   UNL A   1     -31.900  -6.747  29.264  0.00  0.00    -0.449 OA
ATOM     24  O   UNL A   1     -31.308  -4.347  28.927  0.00  0.00    -0.283 OA
ENDROOT
BRANCH   5  25
ATOM     25  C   UNL A   1     -27.275 -12.267  33.242  0.00  0.00    +0.388 C 
ATOM     26  O   UNL A   1     -27.136 -12.264  34.398  0.00  0.00    -0.241 OA
ATOM     27  O   UNL A   1     -26.359 -12.973  32.515  0.00  0.00    -0.241 OA
ENDBRANCH   5  25
TORSDOF 1
ENDMDL
ENDMDL
