REMARK  Name = No_2170-gen_results/8p0m/2024-11-26-14-13-15/
REMARK  1 active torsions:
REMARK  status: ('A' for Active; 'I' for Inactive)
REMARK    1  A    between atoms: C_5  and  C_17
REMARK                            x       y       z     vdW  Elec       q    Type
REMARK                         _______ _______ _______ _____ _____    ______ ____
ROOT
ATOM      1  C   UNL A   1     -28.016  -0.814  28.878  0.00  0.00    +0.018 A 
ATOM      2  C   UNL A   1     -27.064  -0.119  28.608  0.00  0.00    +0.063 A 
ATOM      3  C   UNL A   1     -26.972   0.714  27.506  0.00  0.00    +0.055 A 
ATOM      4  C   UNL A   1     -28.105   0.774  26.642  0.00  0.00    +0.011 A 
ATOM      5  C   UNL A   1     -29.204   0.118  27.048  0.00  0.00    +0.080 A 
ATOM      6  C   UNL A   1     -29.213  -0.609  28.128  0.00  0.00    +0.008 A 
ATOM      7  C   UNL A   1     -25.711   1.452  27.138  0.00  0.00    +0.198 A 
ATOM      8  C   UNL A   1     -24.605   0.925  27.690  0.00  0.00    +0.058 A 
ATOM      9  C   UNL A   1     -23.338   1.651  27.549  0.00  0.00    +0.005 A 
ATOM     10  C   UNL A   1     -22.176   1.228  28.287  0.00  0.00    +0.003 A 
ATOM     11  C   UNL A   1     -22.181   0.085  29.026  0.00  0.00    +0.039 A 
ATOM     12  C   UNL A   1     -23.361  -0.693  29.101  0.00  0.00    +0.161 A 
ATOM     13  C   UNL A   1     -24.531  -0.241  28.487  0.00  0.00    +0.098 A 
ATOM     14  N   UNL A   1     -25.768  -0.594  29.107  0.00  0.00    -0.320 N 
ATOM     15  C   UNL A   1     -25.742  -1.560  30.161  0.00  0.00    +0.136 C 
ATOM     16  O   UNL A   1     -25.747   2.361  26.287  0.00  0.00    -0.286 OA
ATOM     17  C   UNL A   1     -25.221  -2.752  29.735  0.00  0.00    +0.038 A 
ATOM     18  C   UNL A   1     -25.805  -3.510  28.693  0.00  0.00    +0.001 A 
ATOM     19  C   UNL A   1     -25.145  -4.780  28.604  0.00  0.00    +0.003 A 
ATOM     20  C   UNL A   1     -23.854  -5.013  29.051  0.00  0.00    +0.045 A 
ATOM     21  C   UNL A   1     -23.200  -3.964  29.709  0.00  0.00    +0.230 A 
ATOM     22  C   UNL A   1     -23.875  -2.874  30.142  0.00  0.00    +0.182 A 
ATOM     23  O   UNL A   1     -23.206  -1.716  29.638  0.00  0.00    -0.449 OA
ATOM     24  O   UNL A   1     -22.050  -3.908  29.344  0.00  0.00    -0.283 OA
ENDROOT
BRANCH   5  25
ATOM     25  C   UNL A   1     -30.532   0.256  26.458  0.00  0.00    +0.388 C 
ATOM     26  O   UNL A   1     -31.438  -0.468  26.566  0.00  0.00    -0.241 OA
ATOM     27  O   UNL A   1     -30.654   1.260  25.540  0.00  0.00    -0.241 OA
ENDBRANCH   5  25
TORSDOF 1
