MODEL 2171
MODEL 1
REMARK VINA RESULT:    -4.499      0.000      0.000
REMARK INTER + INTRA:          -4.499
REMARK INTER:                  -4.499
REMARK INTRA:                   0.000
REMARK UNBOUND:                 0.000
REMARK  Name = No_2171-gen_results/8p0m/2024-11-26-14-13-15/
REMARK  0 active torsions:
REMARK  status: ('A' for Active; 'I' for Inactive)
REMARK                            x       y       z     vdW  Elec       q    Type
REMARK                         _______ _______ _______ _____ _____    ______ ____
ROOT
ATOM      1  C   UNL A   1     -24.039  -4.349  28.682  0.00  0.00    +0.030 A 
ATOM      2  C   UNL A   1     -24.917  -4.894  28.889  0.00  0.00    +0.140 A 
ATOM      3  C   UNL A   1     -24.098  -2.874  29.011  0.00  0.00    +0.002 A 
ATOM      4  C   UNL A   1     -25.227  -2.361  29.685  0.00  0.00    +0.000 A 
ATOM      5  C   UNL A   1     -26.185  -4.618  29.601  0.00  0.00    +0.030 A 
ATOM      6  C   UNL A   1     -26.272  -3.271  29.926  0.00  0.00    +0.002 A 
ATOM      7  F   UNL A   1     -24.850  -6.312  28.583  0.00  0.00    -0.204 F 
ENDROOT
TORSDOF 0
ENDMDL
ENDMDL
