REMARK  Name = No_2172-gen_results/8p0m/2024-11-26-14-13-15/
REMARK  0 active torsions:
REMARK  status: ('A' for Active; 'I' for Inactive)
REMARK                            x       y       z     vdW  Elec       q    Type
REMARK                         _______ _______ _______ _____ _____    ______ ____
ROOT
ATOM      1  C   UNL A   1     -28.016  -0.814  28.878  0.00  0.00    +0.224 A 
ATOM      2  C   UNL A   1     -27.064  -0.119  28.608  0.00  0.00    +0.179 A 
ATOM      3  C   UNL A   1     -27.001   0.691  27.491  0.00  0.00    +0.034 A 
ATOM      4  C   UNL A   1     -28.137   0.736  26.635  0.00  0.00    +0.014 A 
ATOM      5  C   UNL A   1     -29.236   0.076  27.069  0.00  0.00    +0.061 A 
ATOM      6  C   UNL A   1     -29.218  -0.643  28.175  0.00  0.00    +0.056 A 
ATOM      7  O   UNL A   1     -28.033  -1.574  30.042  0.00  0.00    -0.284 OA
ATOM      8 CL   UNL A   1     -30.614   0.162  26.073  0.00  0.00    -0.082 Cl
ATOM      9  F   UNL A   1     -25.854  -0.176  29.374  0.00  0.00    -0.201 F 
ENDROOT
TORSDOF 0
