REMARK  Name = No_2173-gen_results/8p0m/2024-11-26-14-13-15/
REMARK  6 active torsions:
REMARK  status: ('A' for Active; 'I' for Inactive)
REMARK    1  A    between atoms: C_1  and  O_12
REMARK    2  A    between atoms: C_4  and  C_9
REMARK    3  A    between atoms: C_9  and  C_11
REMARK    4  A    between atoms: O_12  and  C_14
REMARK    5  A    between atoms: C_14  and  C_15
REMARK    6  A    between atoms: C_14  and  C_17
REMARK                            x       y       z     vdW  Elec       q    Type
REMARK                         _______ _______ _______ _____ _____    ______ ____
ROOT
ATOM      1  C   UNL A   1     -28.016  -0.814  28.878  0.00  0.00    +0.149 C 
ATOM      2  C   UNL A   1     -28.469  -0.785  29.829  0.00  0.00    +0.209 C 
ATOM      3  C   UNL A   1     -26.504  -0.778  28.877  0.00  0.00    +0.034 C 
ATOM      4  C   UNL A   1     -25.831  -1.681  29.685  0.00  0.00    +0.023 C 
ATOM      5  C   UNL A   1     -28.149  -1.885  30.903  0.00  0.00    +0.185 C 
ATOM      6  C   UNL A   1     -26.646  -1.956  31.033  0.00  0.00    +0.037 C 
ATOM      7  O   UNL A   1     -28.627  -1.731  32.186  0.00  0.00    -0.220 OA
ATOM      8  O   UNL A   1     -30.017  -0.927  29.877  0.00  0.00    -0.218 OA
ENDROOT
BRANCH   4   9
ATOM      9  C   UNL A   1     -24.653  -2.303  29.381  0.00  0.00    +0.115 C 
ATOM     10 CL   UNL A   1     -23.231  -1.963  29.619  0.00  0.00    -0.112 Cl
BRANCH   9  11
ATOM     11  C   UNL A   1     -24.798  -3.772  28.853  0.00  0.00    +0.209 C 
ATOM     12  F   UNL A   1     -23.805  -4.291  28.354  0.00  0.00    -0.233 F 
ENDBRANCH   9  11
ENDBRANCH   4   9
BRANCH   1  13
ATOM     13  O   UNL A   1     -28.369   0.370  28.051  0.00  0.00    -0.346 OA
BRANCH  13  14
ATOM     14  C   UNL A   1     -28.058   0.649  26.919  0.00  0.00    +0.212 C 
BRANCH  14  15
ATOM     15  C   UNL A   1     -26.826   1.184  26.695  0.00  0.00    +0.220 C 
ATOM     16  O   UNL A   1     -26.233   1.761  27.559  0.00  0.00    -0.217 OA
ENDBRANCH  14  15
BRANCH  14  17
ATOM     17  C   UNL A   1     -28.971   0.461  25.882  0.00  0.00    +0.239 C 
ATOM     18  O   UNL A   1     -28.554   0.221  24.718  0.00  0.00    -0.285 OA
ENDBRANCH  14  17
ENDBRANCH  13  14
ENDBRANCH   1  13
TORSDOF 6
