REMARK  Name = No_2174-gen_results/8p0m/2024-11-26-14-13-15/
REMARK  1 active torsions:
REMARK  status: ('A' for Active; 'I' for Inactive)
REMARK    1  A    between atoms: P_16  and  O_17
REMARK                            x       y       z     vdW  Elec       q    Type
REMARK                         _______ _______ _______ _____ _____    ______ ____
ROOT
ATOM      1  C   UNL A   1     -28.016  -0.814  28.878  0.00  0.00    +0.097 A 
ATOM      2  C   UNL A   1     -28.469  -0.785  29.829  0.00  0.00    +0.201 A 
ATOM      3  C   UNL A   1     -28.196   0.348  28.055  0.00  0.00    +0.055 A 
ATOM      4  C   UNL A   1     -29.019   1.350  28.378  0.00  0.00    +0.015 A 
ATOM      5  C   UNL A   1     -29.625   1.268  29.601  0.00  0.00    +0.005 A 
ATOM      6  C   UNL A   1     -29.379   0.147  30.392  0.00  0.00    +0.042 A 
ATOM      7  N   UNL A   1     -27.504   0.366  26.796  0.00  0.00    -0.302 N 
ATOM      8  C   UNL A   1     -27.752   0.671  25.766  0.00  0.00    +0.113 C 
ATOM      9  C   UNL A   1     -26.024   0.023  26.899  0.00  0.00    +0.118 C 
ATOM     10  C   UNL A   1     -25.351  -0.149  28.085  0.00  0.00    +0.002 A 
ATOM     11  C   UNL A   1     -24.023  -0.131  28.176  0.00  0.00    -0.003 A 
ATOM     12  C   UNL A   1     -23.284  -0.464  29.365  0.00  0.00    -0.000 A 
ATOM     13  C   UNL A   1     -23.966  -0.857  30.487  0.00  0.00    +0.000 A 
ATOM     14  C   UNL A   1     -25.331  -0.902  30.498  0.00  0.00    +0.004 A 
ATOM     15  C   UNL A   1     -25.985  -0.577  29.364  0.00  0.00    +0.043 A 
ATOM     16  P   UNL A   1     -27.061  -0.169  29.451  0.00  0.00    +0.206 P 
ATOM     17  O   UNL A   1     -28.628  -2.104  30.469  0.00  0.00    -0.286 OA
ATOM     18  O   UNL A   1     -27.493  -0.165  31.060  0.00  0.00    -0.177 OA
ENDROOT
BRANCH  16  19
ATOM     19  O   UNL A   1     -27.524   1.329  29.363  0.00  0.00    -0.314 OA
ATOM     20  C   UNL A   1     -26.622   2.287  28.772  0.00  0.00    +0.181 C 
ENDBRANCH  16  19
TORSDOF 1
