MODEL 2174
MODEL 1
REMARK VINA RESULT:    -6.527      0.000      0.000
REMARK INTER + INTRA:          -5.591
REMARK INTER:                  -6.909
REMARK INTRA:                   1.317
REMARK UNBOUND:                 1.317
REMARK  Name = No_2174-gen_results/8p0m/2024-11-26-14-13-15/
REMARK  1 active torsions:
REMARK  status: ('A' for Active; 'I' for Inactive)
REMARK    1  A    between atoms: P_16  and  O_17
REMARK                            x       y       z     vdW  Elec       q    Type
REMARK                         _______ _______ _______ _____ _____    ______ ____
ROOT
ATOM      1  C   UNL A   1     -24.705  -1.530  28.396  0.00  0.00    +0.097 A 
ATOM      2  C   UNL A   1     -24.395  -2.113  29.216  0.00  0.00    +0.201 A 
ATOM      3  C   UNL A   1     -25.789  -0.621  28.638  0.00  0.00    +0.055 A 
ATOM      4  C   UNL A   1     -26.492  -0.611  29.775  0.00  0.00    +0.015 A 
ATOM      5  C   UNL A   1     -26.064  -1.457  30.760  0.00  0.00    +0.005 A 
ATOM      6  C   UNL A   1     -24.973  -2.284  30.501  0.00  0.00    +0.042 A 
ATOM      7  N   UNL A   1     -26.159   0.252  27.559  0.00  0.00    -0.302 N 
ATOM      8  C   UNL A   1     -27.108   0.608  27.124  0.00  0.00    +0.113 C 
ATOM      9  C   UNL A   1     -24.985   0.993  26.933  0.00  0.00    +0.118 C 
ATOM     10  C   UNL A   1     -23.702   0.965  27.425  0.00  0.00    +0.002 A 
ATOM     11  C   UNL A   1     -22.770   1.849  27.074  0.00  0.00    -0.003 A 
ATOM     12  C   UNL A   1     -21.382   1.757  27.442  0.00  0.00    -0.000 A 
ATOM     13  C   UNL A   1     -20.957   0.684  28.181  0.00  0.00    +0.000 A 
ATOM     14  C   UNL A   1     -21.837  -0.274  28.597  0.00  0.00    +0.004 A 
ATOM     15  C   UNL A   1     -23.130  -0.148  28.234  0.00  0.00    +0.043 A 
ATOM     16  P   UNL A   1     -23.936  -0.631  28.903  0.00  0.00    +0.206 P 
ATOM     17  O   UNL A   1     -23.597  -3.300  28.854  0.00  0.00    -0.286 OA
ATOM     18  O   UNL A   1     -23.173  -1.422  30.156  0.00  0.00    -0.177 OA
ENDROOT
BRANCH  16  19
ATOM     19  O   UNL A   1     -24.851   0.081  29.962  0.00  0.00    -0.314 OA
ATOM     20  C   UNL A   1     -24.291   1.170  30.724  0.00  0.00    +0.181 C 
ENDBRANCH  16  19
TORSDOF 1
ENDMDL
ENDMDL
