MODEL 2175
MODEL 1
REMARK VINA RESULT:    -6.056      0.000      0.000
REMARK INTER + INTRA:          -7.483
REMARK INTER:                  -7.118
REMARK INTRA:                  -0.365
REMARK UNBOUND:                -0.365
REMARK  Name = No_2175-gen_results/8p0m/2024-11-26-14-13-15/
REMARK  3 active torsions:
REMARK  status: ('A' for Active; 'I' for Inactive)
REMARK    1  A    between atoms: C_3  and  C_4
REMARK    2  A    between atoms: C_4  and  C_8
REMARK    3  A    between atoms: C_9  and  C_10
REMARK                            x       y       z     vdW  Elec       q    Type
REMARK                         _______ _______ _______ _____ _____    ______ ____
ROOT
ATOM      1  C   UNL A   1     -22.356   1.365  27.662  0.00  0.00    -0.004 A 
ATOM      2  C   UNL A   1     -22.531   2.015  26.852  0.00  0.00    -0.000 A 
ATOM      3  C   UNL A   1     -23.374   0.332  27.910  0.00  0.00    -0.018 A 
ATOM      4  C   UNL A   1     -23.526   1.973  25.754  0.00  0.00    -0.000 A 
ATOM      5  C   UNL A   1     -24.523   1.017  25.912  0.00  0.00    -0.000 A 
ATOM      6  C   UNL A   1     -24.487   0.137  26.973  0.00  0.00    -0.004 A 
ENDROOT
BRANCH   3   7
ATOM      7  C   UNL A   1     -23.444  -0.582  29.040  0.00  0.00    +0.052 C 
BRANCH   7   8
ATOM      8  C   UNL A   1     -23.275  -1.956  28.832  0.00  0.00    -0.021 C 
ATOM      9  C   UNL A   1     -24.272  -2.798  29.027  0.00  0.00    -0.005 C 
BRANCH   9  10
ATOM     10  C   UNL A   1     -24.060  -4.191  28.823  0.00  0.00    -0.005 C 
ATOM     11  C   UNL A   1     -25.106  -5.080  29.231  0.00  0.00    -0.026 C 
ATOM     12  C   UNL A   1     -26.367  -4.555  29.666  0.00  0.00    +0.031 C 
ENDBRANCH   9  10
ENDBRANCH   7   8
ENDBRANCH   3   7
TORSDOF 3
ENDMDL
ENDMDL
