REMARK  Name = No_2176-gen_results/8p0m/2024-11-26-14-13-15/
REMARK  1 active torsions:
REMARK  status: ('A' for Active; 'I' for Inactive)
REMARK    1  A    between atoms: C_2  and  C_7
REMARK                            x       y       z     vdW  Elec       q    Type
REMARK                         _______ _______ _______ _____ _____    ______ ____
ROOT
ATOM      1  C   UNL A   1     -28.016  -0.814  28.878  0.00  0.00    +0.016 A 
ATOM      2  C   UNL A   1     -28.469  -0.785  29.829  0.00  0.00    +0.072 A 
ATOM      3  C   UNL A   1     -26.504  -0.778  28.877  0.00  0.00    +0.068 A 
ATOM      4  C   UNL A   1     -25.810  -0.853  30.103  0.00  0.00    +0.068 A 
ATOM      5  C   UNL A   1     -27.991  -0.892  31.226  0.00  0.00    +0.005 A 
ATOM      6  C   UNL A   1     -26.604  -0.868  31.265  0.00  0.00    +0.012 A 
ATOM      7 CL   UNL A   1     -25.510  -0.712  27.483  0.00  0.00    -0.081 Cl
ATOM      8 CL   UNL A   1     -24.135  -0.787  30.235  0.00  0.00    -0.081 Cl
ENDROOT
BRANCH   2   9
ATOM      9  C   UNL A   1     -30.074  -0.836  29.861  0.00  0.00    +0.419 C 
ATOM     10  F   UNL A   1     -30.592  -1.828  30.096  0.00  0.00    -0.166 F 
ATOM     11  F   UNL A   1     -30.498   0.172  30.708  0.00  0.00    -0.166 F 
ATOM     12  F   UNL A   1     -30.415  -0.415  28.644  0.00  0.00    -0.166 F 
ENDBRANCH   2   9
TORSDOF 1
