MODEL 2176
MODEL 1
REMARK VINA RESULT:    -5.553      0.000      0.000
REMARK INTER + INTRA:          -6.018
REMARK INTER:                  -5.878
REMARK INTRA:                  -0.140
REMARK UNBOUND:                -0.140
REMARK  Name = No_2176-gen_results/8p0m/2024-11-26-14-13-15/
REMARK  1 active torsions:
REMARK  status: ('A' for Active; 'I' for Inactive)
REMARK    1  A    between atoms: C_2  and  C_7
REMARK                            x       y       z     vdW  Elec       q    Type
REMARK                         _______ _______ _______ _____ _____    ______ ____
ROOT
ATOM      1  C   UNL A   1     -23.785  -2.967  29.006  0.00  0.00    +0.016 A 
ATOM      2  C   UNL A   1     -23.952  -1.995  29.379  0.00  0.00    +0.072 A 
ATOM      3  C   UNL A   1     -24.912  -3.951  29.229  0.00  0.00    +0.068 A 
ATOM      4  C   UNL A   1     -26.132  -3.493  29.771  0.00  0.00    +0.068 A 
ATOM      5  C   UNL A   1     -25.114  -1.267  29.938  0.00  0.00    +0.005 A 
ATOM      6  C   UNL A   1     -26.172  -2.139  30.151  0.00  0.00    +0.012 A 
ATOM      7 CL   UNL A   1     -24.877  -5.614  28.821  0.00  0.00    -0.081 Cl
ATOM      8 CL   UNL A   1     -27.443  -4.494  30.098  0.00  0.00    -0.081 Cl
ENDROOT
BRANCH   2   9
ATOM      9  C   UNL A   1     -22.777  -0.925  29.144  0.00  0.00    +0.419 C 
ATOM     10  F   UNL A   1     -21.710  -1.301  28.982  0.00  0.00    -0.166 F 
ATOM     11  F   UNL A   1     -23.184  -0.091  28.118  0.00  0.00    -0.166 F 
ATOM     12  F   UNL A   1     -22.837  -0.165  30.236  0.00  0.00    -0.166 F 
ENDBRANCH   2   9
TORSDOF 1
ENDMDL
ENDMDL
