REMARK  Name = No_2177-gen_results/8p0m/2024-11-26-14-13-15/
REMARK  3 active torsions:
REMARK  status: ('A' for Active; 'I' for Inactive)
REMARK    1  A    between atoms: C_3  and  C_7
REMARK    2  A    between atoms: C_8  and  C_19
REMARK    3  A    between atoms: C_10  and  C_13
REMARK                            x       y       z     vdW  Elec       q    Type
REMARK                         _______ _______ _______ _____ _____    ______ ____
ROOT
ATOM      1  C   UNL A   1     -26.399   0.295  27.228  0.00  0.00    +0.006 A 
ATOM      2  C   UNL A   1     -26.902   0.728  26.213  0.00  0.00    +0.080 A 
ATOM      3  C   UNL A   1     -26.175   0.636  24.926  0.00  0.00    +0.007 A 
ATOM      4  C   UNL A   1     -25.077  -0.207  27.239  0.00  0.00    +0.000 A 
ATOM      5  C   UNL A   1     -24.265  -0.122  26.150  0.00  0.00    +0.000 A 
ATOM      6  C   UNL A   1     -24.875   0.282  24.927  0.00  0.00    +0.000 A 
ENDROOT
BRANCH   1   9
ATOM      7  C   UNL A   1     -28.016  -0.814  28.878  0.00  0.00    +0.030 A 
ATOM      8  C   UNL A   1     -28.469  -0.785  29.829  0.00  0.00    +0.140 A 
ATOM      9  C   UNL A   1     -27.136   0.236  28.535  0.00  0.00    +0.002 A 
ATOM     10  C   UNL A   1     -26.875   1.282  29.398  0.00  0.00    +0.000 A 
ATOM     11  C   UNL A   1     -28.361   0.199  30.924  0.00  0.00    +0.030 A 
ATOM     12  C   UNL A   1     -27.528   1.223  30.636  0.00  0.00    +0.002 A 
ATOM     13  F   UNL A   1     -29.383  -1.829  30.254  0.00  0.00    -0.204 F 
ENDBRANCH   1   9
BRANCH   4  14
ATOM     14  C   UNL A   1     -24.404  -0.659  28.503  0.00  0.00    +0.000 A 
ATOM     15  C   UNL A   1     -24.275  -1.886  28.914  0.00  0.00    +0.000 A 
ATOM     16  C   UNL A   1     -23.644  -2.201  30.128  0.00  0.00    +0.000 A 
ATOM     17  C   UNL A   1     -23.367  -1.143  31.029  0.00  0.00    +0.000 A 
ATOM     18  C   UNL A   1     -24.041   0.367  29.526  0.00  0.00    +0.000 A 
ATOM     19  C   UNL A   1     -23.512   0.131  30.701  0.00  0.00    +0.000 A 
ENDBRANCH   4  14
BRANCH   2  20
ATOM     20  C   UNL A   1     -28.390   1.064  26.101  0.00  0.00    +0.388 C 
ATOM     21  O   UNL A   1     -28.627   2.213  26.046  0.00  0.00    -0.241 OA
ATOM     22  O   UNL A   1     -29.261   0.170  26.205  0.00  0.00    -0.241 OA
ENDBRANCH   2  20
TORSDOF 3
