MODEL 2177
MODEL 1
REMARK VINA RESULT:    -7.407      0.000      0.000
REMARK INTER + INTRA:          -9.765
REMARK INTER:                  -8.706
REMARK INTRA:                  -1.060
REMARK UNBOUND:                -1.060
REMARK  Name = No_2177-gen_results/8p0m/2024-11-26-14-13-15/
REMARK  3 active torsions:
REMARK  status: ('A' for Active; 'I' for Inactive)
REMARK    1  A    between atoms: C_3  and  C_7
REMARK    2  A    between atoms: C_8  and  C_19
REMARK    3  A    between atoms: C_10  and  C_13
REMARK                            x       y       z     vdW  Elec       q    Type
REMARK                         _______ _______ _______ _____ _____    ______ ____
ROOT
ATOM      1  C   UNL A   1     -23.731   0.820  27.147  0.00  0.00    +0.006 A 
ATOM      2  C   UNL A   1     -22.932   1.668  26.808  0.00  0.00    +0.080 A 
ATOM      3  C   UNL A   1     -21.554   1.648  27.350  0.00  0.00    +0.007 A 
ATOM      4  C   UNL A   1     -23.414  -0.138  28.138  0.00  0.00    +0.000 A 
ATOM      5  C   UNL A   1     -22.251  -0.087  28.842  0.00  0.00    +0.000 A 
ATOM      6  C   UNL A   1     -21.263   0.831  28.382  0.00  0.00    +0.000 A 
ENDROOT
BRANCH   1   9
ATOM      7  C   UNL A   1     -26.222   1.409  27.020  0.00  0.00    +0.030 A 
ATOM      8  C   UNL A   1     -27.136   1.287  26.509  0.00  0.00    +0.140 A 
ATOM      9  C   UNL A   1     -25.098   0.706  26.535  0.00  0.00    +0.002 A 
ATOM     10  C   UNL A   1     -25.175  -0.130  25.438  0.00  0.00    +0.000 A 
ATOM     11  C   UNL A   1     -27.485   0.472  25.329  0.00  0.00    +0.030 A 
ATOM     12  C   UNL A   1     -26.436  -0.220  24.833  0.00  0.00    +0.002 A 
ATOM     13  F   UNL A   1     -28.335   1.978  26.947  0.00  0.00    -0.204 F 
ENDBRANCH   1   9
BRANCH   4  14
ATOM     14  C   UNL A   1     -24.420  -1.134  28.638  0.00  0.00    +0.000 A 
ATOM     15  C   UNL A   1     -25.434  -0.885  29.413  0.00  0.00    +0.000 A 
ATOM     16  C   UNL A   1     -26.307  -1.898  29.842  0.00  0.00    +0.000 A 
ATOM     17  C   UNL A   1     -25.925  -3.244  29.623  0.00  0.00    +0.000 A 
ATOM     18  C   UNL A   1     -24.142  -2.589  28.447  0.00  0.00    +0.000 A 
ATOM     19  C   UNL A   1     -24.882  -3.579  28.880  0.00  0.00    +0.000 A 
ENDBRANCH   4  14
BRANCH   2  20
ATOM     20  C   UNL A   1     -23.144   2.570  25.592  0.00  0.00    +0.388 C 
ATOM     21  O   UNL A   1     -22.471   2.305  24.666  0.00  0.00    -0.241 OA
ATOM     22  O   UNL A   1     -23.877   3.583  25.662  0.00  0.00    -0.241 OA
ENDBRANCH   2  20
TORSDOF 3
ENDMDL
ENDMDL
