REMARK  Name = No_2178-gen_results/8p0m/2024-11-26-14-13-15/
REMARK  2 active torsions:
REMARK  status: ('A' for Active; 'I' for Inactive)
REMARK    1  A    between atoms: C_1  and  C_2
REMARK    2  A    between atoms: C_1  and  N_8
REMARK                            x       y       z     vdW  Elec       q    Type
REMARK                         _______ _______ _______ _____ _____    ______ ____
ROOT
ATOM      1  C   UNL A   1     -28.016  -0.814  28.878  0.00  0.00    +0.099 C 
ENDROOT
BRANCH   1   2
ATOM      2  C   UNL A   1     -27.064  -0.119  28.608  0.00  0.00    -0.006 A 
ATOM      3  C   UNL A   1     -26.929   1.171  29.008  0.00  0.00    -0.002 A 
ATOM      4  C   UNL A   1     -25.770   2.034  28.688  0.00  0.00    +0.011 A 
ATOM      5  C   UNL A   1     -24.714   1.443  27.919  0.00  0.00    +0.058 A 
ATOM      6  C   UNL A   1     -24.859   0.078  27.584  0.00  0.00    +0.011 A 
ATOM      7  C   UNL A   1     -25.965  -0.661  27.916  0.00  0.00    -0.002 A 
ATOM      8 CL   UNL A   1     -23.288   2.246  27.549  0.00  0.00    -0.082 Cl
ENDBRANCH   1   2
BRANCH   1   9
ATOM      9  N   UNL A   1     -29.170  -0.298  28.947  0.00  0.00    -0.269 NA
ATOM     10  C   UNL A   1     -29.722   0.373  28.043  0.00  0.00    +0.072 C 
ATOM     11  C   UNL A   1     -31.148   0.637  28.103  0.00  0.00    +0.017 C 
ATOM     12  C   UNL A   1     -30.091  -0.658  30.074  0.00  0.00    +0.072 C 
ATOM     13  C   UNL A   1     -31.400  -0.358  30.129  0.00  0.00    +0.017 C 
ATOM     14  C   UNL A   1     -31.908   0.382  29.115  0.00  0.00    +0.003 C 
ENDBRANCH   1   9
TORSDOF 2
