MODEL 2178
MODEL 1
REMARK VINA RESULT:    -6.287      0.000      0.000
REMARK INTER + INTRA:          -7.269
REMARK INTER:                  -7.022
REMARK INTRA:                  -0.247
REMARK UNBOUND:                -0.247
REMARK  Name = No_2178-gen_results/8p0m/2024-11-26-14-13-15/
REMARK  2 active torsions:
REMARK  status: ('A' for Active; 'I' for Inactive)
REMARK    1  A    between atoms: C_1  and  C_2
REMARK    2  A    between atoms: C_1  and  N_8
REMARK                            x       y       z     vdW  Elec       q    Type
REMARK                         _______ _______ _______ _____ _____    ______ ____
ROOT
ATOM      1  C   UNL A   1     -24.307  -1.367  29.544  0.00  0.00    +0.099 C 
ENDROOT
BRANCH   1   2
ATOM      2  C   UNL A   1     -24.078  -0.579  28.656  0.00  0.00    -0.006 A 
ATOM      3  C   UNL A   1     -24.941  -0.305  27.645  0.00  0.00    -0.002 A 
ATOM      4  C   UNL A   1     -24.678   0.657  26.552  0.00  0.00    +0.011 A 
ATOM      5  C   UNL A   1     -23.427   1.356  26.591  0.00  0.00    +0.058 A 
ATOM      6  C   UNL A   1     -22.587   1.096  27.698  0.00  0.00    +0.011 A 
ATOM      7  C   UNL A   1     -22.899   0.188  28.676  0.00  0.00    -0.002 A 
ATOM      8 CL   UNL A   1     -23.007   2.549  25.487  0.00  0.00    -0.082 Cl
ENDBRANCH   1   2
BRANCH   1   9
ATOM      9  N   UNL A   1     -24.621  -2.560  29.260  0.00  0.00    -0.269 NA
ATOM     10  C   UNL A   1     -23.858  -3.408  28.740  0.00  0.00    +0.072 C 
ATOM     11  C   UNL A   1     -24.217  -4.815  28.755  0.00  0.00    +0.017 C 
ATOM     12  C   UNL A   1     -25.913  -3.139  29.753  0.00  0.00    +0.072 C 
ATOM     13  C   UNL A   1     -26.244  -4.441  29.711  0.00  0.00    +0.017 C 
ATOM     14  C   UNL A   1     -25.364  -5.283  29.118  0.00  0.00    +0.003 C 
ENDBRANCH   1   9
TORSDOF 2
ENDMDL
ENDMDL
