MODEL 2179
MODEL 1
REMARK VINA RESULT:    -5.330      0.000      0.000
REMARK INTER + INTRA:          -5.792
REMARK INTER:                  -5.642
REMARK INTRA:                  -0.150
REMARK UNBOUND:                -0.150
REMARK  Name = No_2179-gen_results/8p0m/2024-11-26-14-13-15/
REMARK  1 active torsions:
REMARK  status: ('A' for Active; 'I' for Inactive)
REMARK    1  A    between atoms: C_4  and  C_7
REMARK                            x       y       z     vdW  Elec       q    Type
REMARK                         _______ _______ _______ _____ _____    ______ ____
ROOT
ATOM      1  C   UNL A   1     -26.572  -4.027  29.831  0.00  0.00    -0.000 A 
ATOM      2  C   UNL A   1     -26.048  -4.912  29.601  0.00  0.00    -0.000 A 
ATOM      3  C   UNL A   1     -25.812  -2.741  29.593  0.00  0.00    -0.000 A 
ATOM      4  C   UNL A   1     -24.550  -2.791  28.963  0.00  0.00    -0.000 A 
ATOM      5  C   UNL A   1     -24.774  -5.234  28.920  0.00  0.00    -0.000 A 
ATOM      6  C   UNL A   1     -24.049  -4.075  28.678  0.00  0.00    -0.000 A 
ENDROOT
BRANCH   4   7
ATOM      7  C   UNL A   1     -23.782  -1.616  28.729  0.00  0.00    -0.005 C 
ATOM      8  C   UNL A   1     -22.700  -1.347  29.330  0.00  0.00    -0.026 C 
ATOM      9  C   UNL A   1     -21.846  -0.198  28.981  0.00  0.00    +0.031 C 
ENDBRANCH   4   7
TORSDOF 1
ENDMDL
ENDMDL
