MODEL 217
MODEL 1
REMARK VINA RESULT:    -8.555      0.000      0.000
REMARK INTER + INTRA:         -12.796
REMARK INTER:                 -11.056
REMARK INTRA:                  -1.740
REMARK UNBOUND:                -1.740
REMARK  Name = No_217-gen_results/8p0m/2024-11-26-14-13-15/
REMARK  5 active torsions:
REMARK  status: ('A' for Active; 'I' for Inactive)
REMARK    1  A    between atoms: C_2  and  O_7
REMARK    2  A    between atoms: O_7  and  C_8
REMARK    3  A    between atoms: C_11  and  C_28
REMARK    4  A    between atoms: C_14  and  C_15
REMARK    5  A    between atoms: N_21  and  C_22
REMARK                            x       y       z     vdW  Elec       q    Type
REMARK                         _______ _______ _______ _____ _____    ______ ____
ROOT
ATOM      1  C   UNL A   1     -11.276   1.522  36.037  0.00  0.00    +0.052 A 
ATOM      2  C   UNL A   1     -11.386   1.981  35.095  0.00  0.00    +0.146 A 
ATOM      3  C   UNL A   1      -9.917   1.099  36.409  0.00  0.00    +0.053 A 
ATOM      4  C   UNL A   1      -8.802   1.432  35.586  0.00  0.00    -0.003 A 
ATOM      5  C   UNL A   1     -10.406   2.486  34.095  0.00  0.00    +0.037 A 
ATOM      6  C   UNL A   1      -9.134   2.104  34.401  0.00  0.00    +0.001 A 
ATOM      7  C   UNL A   1      -7.415   1.253  35.800  0.00  0.00    +0.066 C 
ATOM      8  N   UNL A   1      -9.621   0.331  37.552  0.00  0.00    -0.262 N 
ATOM      9  C   UNL A   1      -8.526   0.765  38.409  0.00  0.00    +0.244 C 
ATOM     10  C   UNL A   1      -7.057   1.843  37.221  0.00  0.00    +0.152 C 
ATOM     11  O   UNL A   1      -7.477   1.266  38.233  0.00  0.00    -0.333 OA
ATOM     12  C   UNL A   1      -6.536   2.176  34.764  0.00  0.00    +0.011 C 
ENDROOT
BRANCH   7  13
ATOM     13  C   UNL A   1      -6.802  -0.099  35.637  0.00  0.00    -0.017 A 
ATOM     14  C   UNL A   1      -7.268  -1.069  34.803  0.00  0.00    -0.004 A 
ATOM     15  C   UNL A   1      -6.501  -2.172  34.384  0.00  0.00    -0.000 A 
ATOM     16  C   UNL A   1      -5.062  -1.916  34.332  0.00  0.00    -0.000 A 
ATOM     17  C   UNL A   1      -4.516  -0.878  35.131  0.00  0.00    -0.000 A 
ATOM     18  C   UNL A   1      -5.316   0.054  35.806  0.00  0.00    -0.004 A 
ENDBRANCH   7  13
BRANCH   8  19
ATOM     19  C   UNL A   1     -10.431  -0.650  38.030  0.00  0.00    +0.053 A 
ATOM     20  C   UNL A   1     -10.791  -1.715  37.181  0.00  0.00    +0.015 A 
ATOM     21  C   UNL A   1     -11.096  -0.605  39.270  0.00  0.00    +0.015 A 
ATOM     22  C   UNL A   1     -11.988  -1.585  39.683  0.00  0.00    +0.001 A 
ATOM     23  C   UNL A   1     -12.117  -2.645  38.992  0.00  0.00    +0.000 A 
ATOM     24  C   UNL A   1     -11.586  -2.725  37.658  0.00  0.00    +0.001 A 
ENDBRANCH   8  19
BRANCH   2  25
ATOM     25  O   UNL A   1     -12.727   2.410  34.710  0.00  0.00    -0.454 OA
BRANCH  25  26
ATOM     26  C   UNL A   1     -13.412   3.035  35.607  0.00  0.00    +0.145 A 
ATOM     27  C   UNL A   1     -14.661   2.968  35.829  0.00  0.00    +0.037 A 
ATOM     28  C   UNL A   1     -15.444   3.723  36.731  0.00  0.00    +0.007 A 
ATOM     29  C   UNL A   1     -14.703   4.632  37.516  0.00  0.00    +0.072 A 
ATOM     30  C   UNL A   1     -12.716   4.079  36.407  0.00  0.00    +0.037 A 
ATOM     31  C   UNL A   1     -13.345   4.777  37.342  0.00  0.00    +0.007 A 
BRANCH  29  32
ATOM     32  C   UNL A   1     -15.441   5.386  38.590  0.00  0.00    +0.419 C 
ATOM     33  F   UNL A   1     -16.462   4.844  38.919  0.00  0.00    -0.166 F 
ATOM     34  F   UNL A   1     -15.783   6.618  38.077  0.00  0.00    -0.166 F 
ATOM     35  F   UNL A   1     -14.681   5.626  39.671  0.00  0.00    -0.166 F 
ENDBRANCH  29  32
ENDBRANCH  25  26
ENDBRANCH   2  25
TORSDOF 5
ENDMDL
ENDMDL
