REMARK  Name = No_2180-gen_results/8p0m/2024-11-26-14-13-15/
REMARK  7 active torsions:
REMARK  status: ('A' for Active; 'I' for Inactive)
REMARK    1  A    between atoms: C_4  and  C_9
REMARK    2  A    between atoms: C_9  and  C_10
REMARK    3  A    between atoms: C_10  and  C_11
REMARK    4  A    between atoms: C_12  and  C_17
REMARK    5  A    between atoms: C_17  and  O_19
REMARK    6  A    between atoms: O_19  and  C_20
REMARK    7  A    between atoms: C_20  and  C_21
REMARK                            x       y       z     vdW  Elec       q    Type
REMARK                         _______ _______ _______ _____ _____    ______ ____
ROOT
ATOM      1  C   UNL A   1     -23.344   0.722  28.803  0.00  0.00    -0.016 A 
ATOM      2  C   UNL A   1     -23.718   1.951  28.414  0.00  0.00    +0.072 A 
ATOM      3  C   UNL A   1     -23.228   2.429  27.122  0.00  0.00    +0.006 A 
ATOM      4  C   UNL A   1     -22.305   1.645  26.468  0.00  0.00    +0.000 A 
ATOM      5  C   UNL A   1     -21.734   0.655  27.108  0.00  0.00    -0.000 A 
ATOM      6  C   UNL A   1     -22.184   0.114  28.261  0.00  0.00    -0.004 A 
ENDROOT
BRANCH   2   7
ATOM      7  C   UNL A   1     -24.852   2.668  29.034  0.00  0.00    +0.341 C 
ATOM      8  O   UNL A   1     -25.346   3.640  28.586  0.00  0.00    -0.245 OA
BRANCH   7   9
ATOM      9  O   UNL A   1     -25.143   2.334  30.285  0.00  0.00    -0.445 OA
BRANCH   9  10
ATOM     10  C   UNL A   1     -26.345   2.883  30.816  0.00  0.00    +0.209 C 
BRANCH  10  11
ATOM     11  C   UNL A   1     -27.381   2.953  30.038  0.00  0.00    +0.048 C 
ATOM     12  C   UNL A   1     -27.250   3.138  28.769  0.00  0.00    +0.004 C 
ENDBRANCH  10  11
ENDBRANCH   9  10
ENDBRANCH   7   9
ENDBRANCH   2   7
BRANCH   1  13
ATOM     13  C   UNL A   1     -23.669   0.096  29.981  0.00  0.00    +0.031 C 
BRANCH  13  14
ATOM     14  C   UNL A   1     -24.350  -1.144  30.064  0.00  0.00    +0.033 C 
BRANCH  14  18
ATOM     15  C   UNL A   1     -28.016  -0.814  28.878  0.00  0.00    +0.030 A 
ATOM     16  C   UNL A   1     -28.469  -0.785  29.829  0.00  0.00    +0.014 A 
ATOM     17  C   UNL A   1     -26.546  -0.876  28.850  0.00  0.00    +0.136 A 
ATOM     18  C   UNL A   1     -25.804  -1.032  30.057  0.00  0.00    +0.006 A 
ATOM     19  C   UNL A   1     -26.537  -1.039  31.217  0.00  0.00    +0.009 A 
ATOM     20  C   UNL A   1     -27.893  -0.960  31.174  0.00  0.00    +0.058 A 
ATOM     21  F   UNL A   1     -25.827  -0.851  27.742  0.00  0.00    -0.204 F 
ATOM     22 CL   UNL A   1     -28.797  -0.947  32.650  0.00  0.00    -0.082 Cl
ENDBRANCH  14  18
ENDBRANCH  13  14
ENDBRANCH   1  13
TORSDOF 7
