MODEL 2181
MODEL 1
REMARK VINA RESULT:    -5.333      0.000      0.000
REMARK INTER + INTRA:          -5.709
REMARK INTER:                  -5.645
REMARK INTRA:                  -0.064
REMARK UNBOUND:                -0.064
REMARK  Name = No_2181-gen_results/8p0m/2024-11-26-14-13-15/
REMARK  1 active torsions:
REMARK  status: ('A' for Active; 'I' for Inactive)
REMARK    1  A    between atoms: C_5  and  C_7
REMARK                            x       y       z     vdW  Elec       q    Type
REMARK                         _______ _______ _______ _____ _____    ______ ____
ROOT
ATOM      1  C   UNL A   1     -24.704  -5.153  28.969  0.00  0.00    +0.000 A 
ATOM      2  C   UNL A   1     -25.813  -4.970  29.414  0.00  0.00    +0.000 A 
ATOM      3  C   UNL A   1     -26.305  -3.753  29.855  0.00  0.00    +0.000 A 
ATOM      4  C   UNL A   1     -25.439  -2.626  29.745  0.00  0.00    +0.005 A 
ATOM      5  C   UNL A   1     -24.269  -2.835  29.108  0.00  0.00    +0.055 A 
ATOM      6  C   UNL A   1     -23.928  -4.038  28.641  0.00  0.00    +0.005 A 
ENDROOT
BRANCH   5   7
ATOM      7  C   UNL A   1     -23.414  -1.642  28.963  0.00  0.00    +0.265 C 
ATOM      8  O   UNL A   1     -22.202  -1.686  28.933  0.00  0.00    -0.268 OA
ATOM      9  N   UNL A   1     -24.023  -0.447  28.594  0.00  0.00    -0.200 NA
ATOM     10  C   UNL A   1     -23.236   0.692  28.293  0.00  0.00    +0.139 C 
ENDBRANCH   5   7
TORSDOF 1
ENDMDL
ENDMDL
