REMARK  Name = No_2181-gen_results/8p0m/2024-11-26-14-13-15/
REMARK  1 active torsions:
REMARK  status: ('A' for Active; 'I' for Inactive)
REMARK    1  A    between atoms: C_5  and  C_7
REMARK                            x       y       z     vdW  Elec       q    Type
REMARK                         _______ _______ _______ _____ _____    ______ ____
ROOT
ATOM      1  C   UNL A   1     -28.016  -0.814  28.878  0.00  0.00    +0.000 A 
ATOM      2  C   UNL A   1     -27.064  -0.119  28.608  0.00  0.00    +0.000 A 
ATOM      3  C   UNL A   1     -26.972   0.714  27.506  0.00  0.00    +0.000 A 
ATOM      4  C   UNL A   1     -28.105   0.774  26.642  0.00  0.00    +0.005 A 
ATOM      5  C   UNL A   1     -29.201   0.104  27.053  0.00  0.00    +0.055 A 
ATOM      6  C   UNL A   1     -29.210  -0.603  28.185  0.00  0.00    +0.005 A 
ENDROOT
BRANCH   5   7
ATOM      7  C   UNL A   1     -30.375   0.223  26.167  0.00  0.00    +0.265 C 
ATOM      8  O   UNL A   1     -30.327   0.057  24.966  0.00  0.00    -0.268 OA
ATOM      9  N   UNL A   1     -31.632   0.280  26.759  0.00  0.00    -0.200 NA
ATOM     10  C   UNL A   1     -32.800   0.242  25.958  0.00  0.00    +0.139 C 
ENDBRANCH   5   7
TORSDOF 1
