REMARK  Name = No_2182-gen_results/8p0m/2024-11-26-14-13-15/
REMARK  6 active torsions:
REMARK  status: ('A' for Active; 'I' for Inactive)
REMARK    1  A    between atoms: C_2  and  C_3
REMARK    2  A    between atoms: N_4  and  C_11
REMARK    3  A    between atoms: C_5  and  C_19
REMARK    4  A    between atoms: C_12  and  C_13
REMARK    5  A    between atoms: C_14  and  C_15
REMARK    6  A    between atoms: C_17  and  C_26
REMARK                            x       y       z     vdW  Elec       q    Type
REMARK                         _______ _______ _______ _____ _____    ______ ____
ROOT
ATOM      1  C   UNL A   1     -26.848   1.521  30.221  0.00  0.00    +0.068 C 
ATOM      2  C   UNL A   1     -26.945   2.286  30.923  0.00  0.00    +0.016 C 
ENDROOT
BRANCH   1   5
ATOM      3  O   UNL A   1     -28.123  -1.335  28.487  0.00  0.00    -0.270 OA
ATOM      4  C   UNL A   1     -27.481  -0.404  28.709  0.00  0.00    +0.253 C 
ATOM      5  N   UNL A   1     -27.666   0.447  29.899  0.00  0.00    -0.252 N 
ATOM      6  C   UNL A   1     -28.785   0.112  30.779  0.00  0.00    +0.120 C 
BRANCH   4   7
ATOM      7  C   UNL A   1     -26.380  -0.087  27.939  0.00  0.00    +0.054 A 
ATOM      8  C   UNL A   1     -26.409   0.857  26.880  0.00  0.00    +0.004 A 
ATOM      9  C   UNL A   1     -25.082  -0.697  28.170  0.00  0.00    +0.004 A 
ATOM     10  C   UNL A   1     -25.284   1.049  26.047  0.00  0.00    +0.000 A 
ATOM     11  C   UNL A   1     -23.895  -0.331  27.478  0.00  0.00    +0.000 A 
ATOM     12  C   UNL A   1     -24.055   0.564  26.381  0.00  0.00    +0.000 A 
BRANCH   8  13
ATOM     13  C   UNL A   1     -27.693   1.490  26.542  0.00  0.00    -0.004 A 
ATOM     14  C   UNL A   1     -28.233   2.335  27.275  0.00  0.00    -0.000 A 
ATOM     15  C   UNL A   1     -29.478   3.061  26.918  0.00  0.00    -0.000 A 
ATOM     16  C   UNL A   1     -30.042   2.780  25.767  0.00  0.00    -0.000 A 
ATOM     17  C   UNL A   1     -28.248   1.167  25.247  0.00  0.00    -0.022 A 
ATOM     18  C   UNL A   1     -27.663   0.189  24.422  0.00  0.00    +0.031 C 
ATOM     19  C   UNL A   1     -29.438   1.800  24.852  0.00  0.00    -0.004 A 
ENDBRANCH   8  13
ENDBRANCH   4   7
ENDBRANCH   1   5
BRANCH   2  20
ATOM     20  C   UNL A   1     -27.223   3.228  31.237  0.00  0.00    -0.003 C 
ATOM     21  C   UNL A   1     -27.821   4.152  30.174  0.00  0.00    -0.018 C 
BRANCH  21  22
ATOM     22  C   UNL A   1     -27.425   5.141  29.782  0.00  0.00    +0.067 C 
ATOM     23  C   UNL A   1     -26.515   5.335  29.188  0.00  0.00    -0.007 C 
ATOM     24  C   UNL A   1     -25.294   5.592  29.791  0.00  0.00    -0.002 C 
ATOM     25  C   UNL A   1     -26.386   5.218  27.697  0.00  0.00    +0.038 C 
ATOM     26  C   UNL A   1     -28.381   6.344  29.823  0.00  0.00    -0.017 C 
ATOM     27  C   UNL A   1     -28.460   7.319  29.285  0.00  0.00    +0.004 C 
ATOM     28  C   UNL A   1     -27.675   7.645  28.060  0.00  0.00    +0.041 C 
ATOM     29  C   UNL A   1     -26.827   6.689  27.366  0.00  0.00    -0.101 C 
BRANCH  24  30
ATOM     30  C   UNL A   1     -25.343   5.987  31.146  0.00  0.00    +0.019 A 
ATOM     31  C   UNL A   1     -24.486   5.330  32.032  0.00  0.00    +0.099 A 
ATOM     32  N   UNL A   1     -24.934   5.069  33.194  0.00  0.00    -0.242 NA
ATOM     33  C   UNL A   1     -25.198   6.026  34.129  0.00  0.00    +0.099 A 
ATOM     34  C   UNL A   1     -25.978   7.065  33.432  0.00  0.00    +0.021 A 
ATOM     35  C   UNL A   1     -25.998   7.142  31.840  0.00  0.00    +0.003 A 
ENDBRANCH  24  30
ENDBRANCH  21  22
ENDBRANCH   2  20
TORSDOF 6
