MODEL 2182
MODEL 1
REMARK VINA RESULT:    -6.731      0.000      0.000
REMARK INTER + INTRA:         -13.341
REMARK INTER:                  -9.092
REMARK INTRA:                  -4.249
REMARK UNBOUND:                -4.249
REMARK  Name = No_2182-gen_results/8p0m/2024-11-26-14-13-15/
REMARK  6 active torsions:
REMARK  status: ('A' for Active; 'I' for Inactive)
REMARK    1  A    between atoms: C_2  and  C_3
REMARK    2  A    between atoms: N_4  and  C_11
REMARK    3  A    between atoms: C_5  and  C_19
REMARK    4  A    between atoms: C_12  and  C_13
REMARK    5  A    between atoms: C_14  and  C_15
REMARK    6  A    between atoms: C_17  and  C_26
REMARK                            x       y       z     vdW  Elec       q    Type
REMARK                         _______ _______ _______ _____ _____    ______ ____
ROOT
ATOM      1  C   UNL A   1     -10.295   1.802  34.785  0.00  0.00    +0.068 C 
ATOM      2  C   UNL A   1      -9.644   1.023  34.548  0.00  0.00    +0.016 C 
ENDROOT
BRANCH   1   5
ATOM      3  O   UNL A   1     -12.936   1.996  37.188  0.00  0.00    -0.270 OA
ATOM      4  C   UNL A   1     -11.869   1.919  36.760  0.00  0.00    +0.253 C 
ATOM      5  N   UNL A   1     -11.576   1.812  35.319  0.00  0.00    -0.252 N 
ATOM      6  C   UNL A   1     -12.726   1.718  34.420  0.00  0.00    +0.120 C 
BRANCH   4   7
ATOM      7  C   UNL A   1     -10.757   2.064  37.565  0.00  0.00    +0.054 A 
ATOM      8  C   UNL A   1     -10.223   1.017  38.361  0.00  0.00    +0.004 A 
ATOM      9  C   UNL A   1     -10.028   3.318  37.647  0.00  0.00    +0.004 A 
ATOM     10  C   UNL A   1      -9.159   1.258  39.259  0.00  0.00    +0.000 A 
ATOM     11  C   UNL A   1      -8.820   3.491  38.377  0.00  0.00    +0.000 A 
ATOM     12  C   UNL A   1      -8.421   2.402  39.204  0.00  0.00    +0.000 A 
BRANCH   8  13
ATOM     13  C   UNL A   1     -10.924  -0.276  38.378  0.00  0.00    -0.004 A 
ATOM     14  C   UNL A   1     -10.740  -1.145  37.509  0.00  0.00    -0.000 A 
ATOM     15  C   UNL A   1     -11.359  -2.494  37.550  0.00  0.00    -0.000 A 
ATOM     16  C   UNL A   1     -12.153  -2.774  38.556  0.00  0.00    -0.000 A 
ATOM     17  C   UNL A   1     -11.759  -0.540  39.528  0.00  0.00    -0.022 A 
ATOM     18  C   UNL A   1     -11.999   0.447  40.501  0.00  0.00    +0.031 C 
ATOM     19  C   UNL A   1     -12.394  -1.789  39.621  0.00  0.00    -0.004 A 
ENDBRANCH   8  13
ENDBRANCH   4   7
ENDBRANCH   1   5
BRANCH   2  20
ATOM     20  C   UNL A   1      -8.877   0.362  34.743  0.00  0.00    -0.003 C 
ATOM     21  C   UNL A   1      -7.871   0.784  35.816  0.00  0.00    -0.018 C 
BRANCH  21  22
ATOM     22  C   UNL A   1      -6.759   0.988  35.713  0.00  0.00    +0.067 C 
ATOM     23  C   UNL A   1      -6.118   1.649  36.321  0.00  0.00    -0.007 C 
ATOM     24  C   UNL A   1      -5.942   2.986  36.002  0.00  0.00    -0.002 C 
ATOM     25  C   UNL A   1      -5.465   1.298  37.626  0.00  0.00    +0.038 C 
ATOM     26  C   UNL A   1      -5.954   0.043  34.806  0.00  0.00    -0.017 C 
ATOM     27  C   UNL A   1      -4.881  -0.249  34.710  0.00  0.00    +0.004 C 
ATOM     28  C   UNL A   1      -3.846   0.085  35.730  0.00  0.00    +0.041 C 
ATOM     29  C   UNL A   1      -4.146   0.708  37.010  0.00  0.00    -0.101 C 
BRANCH  24  30
ATOM     30  C   UNL A   1      -6.276   3.357  34.681  0.00  0.00    +0.019 A 
ATOM     31  C   UNL A   1      -7.331   4.258  34.521  0.00  0.00    +0.099 A 
ATOM     32  N   UNL A   1      -8.116   4.071  33.536  0.00  0.00    -0.242 NA
ATOM     33  C   UNL A   1      -7.743   4.247  32.236  0.00  0.00    +0.099 A 
ATOM     34  C   UNL A   1      -6.456   3.543  32.088  0.00  0.00    +0.021 A 
ATOM     35  C   UNL A   1      -5.592   3.142  33.366  0.00  0.00    +0.003 A 
ENDBRANCH  24  30
ENDBRANCH  21  22
ENDBRANCH   2  20
TORSDOF 6
ENDMDL
ENDMDL
