MODEL 2183
MODEL 1
REMARK VINA RESULT:    -4.887      0.000      0.000
REMARK INTER + INTRA:          -5.685
REMARK INTER:                  -5.458
REMARK INTRA:                  -0.227
REMARK UNBOUND:                -0.227
REMARK  Name = No_2183-gen_results/8p0m/2024-11-26-14-13-15/
REMARK  2 active torsions:
REMARK  status: ('A' for Active; 'I' for Inactive)
REMARK    1  A    between atoms: C_3  and  C_7
REMARK    2  A    between atoms: C_7  and  C_8
REMARK                            x       y       z     vdW  Elec       q    Type
REMARK                         _______ _______ _______ _____ _____    ______ ____
ROOT
ATOM      1  C   UNL A   1     -23.865  -3.791  28.545  0.00  0.00    -0.004 A 
ATOM      2  C   UNL A   1     -24.212  -4.773  28.704  0.00  0.00    -0.000 A 
ATOM      3  C   UNL A   1     -24.687  -2.725  28.972  0.00  0.00    -0.018 A 
ATOM      4  C   UNL A   1     -25.914  -2.941  29.569  0.00  0.00    -0.004 A 
ATOM      5  C   UNL A   1     -25.460  -5.273  29.312  0.00  0.00    -0.000 A 
ATOM      6  C   UNL A   1     -26.278  -4.284  29.734  0.00  0.00    -0.000 A 
ENDROOT
BRANCH   3   7
ATOM      7  C   UNL A   1     -24.292  -1.280  28.849  0.00  0.00    +0.052 C 
BRANCH   7   8
ATOM      8  C   UNL A   1     -22.903  -0.987  29.019  0.00  0.00    -0.021 C 
ATOM      9  C   UNL A   1     -22.383  -0.376  30.096  0.00  0.00    -0.005 C 
ENDBRANCH   7   8
ENDBRANCH   3   7
TORSDOF 2
ENDMDL
ENDMDL
