REMARK  Name = No_2184-gen_results/8p0m/2024-11-26-14-13-15/
REMARK  3 active torsions:
REMARK  status: ('A' for Active; 'I' for Inactive)
REMARK    1  A    between atoms: C_2  and  C_5
REMARK    2  A    between atoms: C_3  and  C_11
REMARK    3  A    between atoms: C_13  and  C_14
REMARK                            x       y       z     vdW  Elec       q    Type
REMARK                         _______ _______ _______ _____ _____    ______ ____
ROOT
ATOM      1  C   UNL A   1     -27.449   0.379  26.665  0.00  0.00    -0.000 A 
ATOM      2  C   UNL A   1     -28.101   0.367  25.482  0.00  0.00    -0.000 A 
ATOM      3  C   UNL A   1     -25.994   0.374  26.664  0.00  0.00    -0.000 A 
ATOM      4  C   UNL A   1     -25.445   0.722  25.436  0.00  0.00    -0.000 A 
ATOM      5  C   UNL A   1     -27.622   0.703  24.342  0.00  0.00    -0.000 A 
ATOM      6  C   UNL A   1     -26.166   0.721  24.302  0.00  0.00    +0.000 A 
ENDROOT
BRANCH   1   9
ATOM      7  C   UNL A   1     -28.016  -0.814  28.878  0.00  0.00    +0.004 A 
ATOM      8  C   UNL A   1     -28.469  -0.785  29.829  0.00  0.00    +0.071 A 
ATOM      9  C   UNL A   1     -28.196   0.348  28.055  0.00  0.00    -0.000 A 
ATOM     10  C   UNL A   1     -29.019   1.350  28.378  0.00  0.00    -0.000 A 
ATOM     11  C   UNL A   1     -29.595   1.286  29.605  0.00  0.00    -0.000 A 
ATOM     12  C   UNL A   1     -29.346   0.209  30.375  0.00  0.00    +0.004 A 
BRANCH   8  13
ATOM     13  C   UNL A   1     -28.317  -1.981  30.856  0.00  0.00    +0.419 C 
ATOM     14  F   UNL A   1     -27.642  -1.725  31.698  0.00  0.00    -0.166 F 
ATOM     15  F   UNL A   1     -29.578  -2.436  31.252  0.00  0.00    -0.166 F 
ATOM     16  F   UNL A   1     -27.767  -3.040  30.132  0.00  0.00    -0.166 F 
ENDBRANCH   8  13
ENDBRANCH   1   9
BRANCH   3  17
ATOM     17  C   UNL A   1     -25.148   0.193  27.741  0.00  0.00    -0.000 A 
ATOM     18  C   UNL A   1     -24.361   1.061  28.404  0.00  0.00    +0.000 A 
ATOM     19  C   UNL A   1     -23.343   0.647  29.256  0.00  0.00    +0.000 A 
ATOM     20  C   UNL A   1     -23.161  -0.717  29.581  0.00  0.00    +0.000 A 
ATOM     21  C   UNL A   1     -24.683  -1.200  28.018  0.00  0.00    +0.000 A 
ATOM     22  C   UNL A   1     -23.842  -1.593  28.976  0.00  0.00    +0.000 A 
ENDBRANCH   3  17
TORSDOF 3
