MODEL 2184
MODEL 1
REMARK VINA RESULT:    -7.633      0.000      0.000
REMARK INTER + INTRA:         -10.770
REMARK INTER:                  -8.972
REMARK INTRA:                  -1.798
REMARK UNBOUND:                -1.798
REMARK  Name = No_2184-gen_results/8p0m/2024-11-26-14-13-15/
REMARK  3 active torsions:
REMARK  status: ('A' for Active; 'I' for Inactive)
REMARK    1  A    between atoms: C_2  and  C_5
REMARK    2  A    between atoms: C_3  and  C_11
REMARK    3  A    between atoms: C_13  and  C_14
REMARK                            x       y       z     vdW  Elec       q    Type
REMARK                         _______ _______ _______ _____ _____    ______ ____
ROOT
ATOM      1  C   UNL A   1     -24.595  -2.653  28.982  0.00  0.00    -0.000 A 
ATOM      2  C   UNL A   1     -24.186  -3.872  28.565  0.00  0.00    -0.000 A 
ATOM      3  C   UNL A   1     -25.915  -2.523  29.580  0.00  0.00    -0.000 A 
ATOM      4  C   UNL A   1     -26.459  -3.738  29.980  0.00  0.00    -0.000 A 
ATOM      5  C   UNL A   1     -24.658  -5.004  28.936  0.00  0.00    -0.000 A 
ATOM      6  C   UNL A   1     -25.976  -4.916  29.550  0.00  0.00    +0.000 A 
ENDROOT
BRANCH   1   9
ATOM      7  C   UNL A   1     -24.060  -0.468  27.725  0.00  0.00    +0.004 A 
ATOM      8  C   UNL A   1     -23.508   0.427  27.665  0.00  0.00    +0.071 A 
ATOM      9  C   UNL A   1     -23.722  -1.350  28.805  0.00  0.00    -0.000 A 
ATOM     10  C   UNL A   1     -22.668  -1.156  29.603  0.00  0.00    -0.000 A 
ATOM     11  C   UNL A   1     -21.986   0.005  29.430  0.00  0.00    -0.000 A 
ATOM     12  C   UNL A   1     -22.378   0.838  28.447  0.00  0.00    +0.004 A 
BRANCH   8  13
ATOM     13  C   UNL A   1     -23.803   1.510  26.548  0.00  0.00    +0.419 C 
ATOM     14  F   UNL A   1     -24.603   2.217  26.852  0.00  0.00    -0.166 F 
ATOM     15  F   UNL A   1     -22.614   2.129  26.154  0.00  0.00    -0.166 F 
ATOM     16  F   UNL A   1     -24.224   0.797  25.425  0.00  0.00    -0.166 F 
ENDBRANCH   8  13
ENDBRANCH   1   9
BRANCH   3  17
ATOM     17  C   UNL A   1     -26.592  -1.359  29.890  0.00  0.00    -0.000 A 
ATOM     18  C   UNL A   1     -27.338  -0.539  29.127  0.00  0.00    +0.000 A 
ATOM     19  C   UNL A   1     -27.681   0.748  29.528  0.00  0.00    +0.000 A 
ATOM     20  C   UNL A   1     -27.377   1.224  30.824  0.00  0.00    +0.000 A 
ATOM     21  C   UNL A   1     -26.166  -0.630  31.123  0.00  0.00    +0.000 A 
ATOM     22  C   UNL A   1     -26.653   0.522  31.586  0.00  0.00    +0.000 A 
ENDBRANCH   3  17
TORSDOF 3
ENDMDL
ENDMDL
