REMARK  Name = No_2185-gen_results/8p0m/2024-11-26-14-13-15/
REMARK  6 active torsions:
REMARK  status: ('A' for Active; 'I' for Inactive)
REMARK    1  A    between atoms: C_4  and  C_11
REMARK    2  A    between atoms: C_7  and  C_17
REMARK    3  A    between atoms: C_17  and  N_18
REMARK    4  A    between atoms: N_18  and  C_20
REMARK    5  A    between atoms: C_20  and  C_21
REMARK    6  A    between atoms: C_25  and  C_26
REMARK                            x       y       z     vdW  Elec       q    Type
REMARK                         _______ _______ _______ _____ _____    ______ ____
ROOT
ATOM      1  C   UNL A   1     -28.016  -0.814  28.878  0.00  0.00    -0.000 A 
ATOM      2  C   UNL A   1     -27.064  -0.119  28.608  0.00  0.00    -0.000 A 
ATOM      3  C   UNL A   1     -25.765  -0.390  29.036  0.00  0.00    +0.001 A 
ATOM      4  C   UNL A   1     -24.552   0.406  28.765  0.00  0.00    +0.018 A 
ATOM      5  C   UNL A   1     -23.230   0.118  29.258  0.00  0.00    +0.002 A 
ATOM      6  C   UNL A   1     -23.094  -1.131  29.873  0.00  0.00    +0.000 A 
ATOM      7  C   UNL A   1     -27.798  -1.934  29.856  0.00  0.00    +0.027 A 
ATOM      8  C   UNL A   1     -26.542  -2.327  30.258  0.00  0.00    -0.000 A 
ATOM      9  C   UNL A   1     -25.451  -1.552  29.908  0.00  0.00    -0.000 A 
ATOM     10  C   UNL A   1     -24.156  -1.910  30.281  0.00  0.00    -0.000 A 
ENDROOT
BRANCH   4  11
ATOM     11  C   UNL A   1     -24.645   1.658  27.946  0.00  0.00    +0.081 A 
ATOM     12  C   UNL A   1     -24.896   2.756  28.561  0.00  0.00    +0.019 A 
ATOM     13  C   UNL A   1     -25.792   3.594  28.030  0.00  0.00    +0.003 A 
ATOM     14  C   UNL A   1     -25.945   3.587  26.605  0.00  0.00    +0.021 A 
ATOM     15  N   UNL A   1     -24.692   1.585  26.618  0.00  0.00    -0.244 NA
ATOM     16  C   UNL A   1     -25.421   2.457  25.942  0.00  0.00    +0.099 A 
ENDBRANCH   4  11
BRANCH   7  17
ATOM     17  C   UNL A   1     -29.021  -2.740  30.239  0.00  0.00    +0.258 C 
ATOM     18  F   UNL A   1     -30.087  -2.201  30.331  0.00  0.00    -0.213 F 
BRANCH  17  19
ATOM     19  N   UNL A   1     -28.962  -3.965  30.442  0.00  0.00    -0.183 NA
BRANCH  19  20
ATOM     20  C   UNL A   1     -29.483  -4.835  30.696  0.00  0.00    +0.093 C 
BRANCH  20  21
ATOM     21  C   UNL A   1     -30.713  -4.693  31.305  0.00  0.00    +0.034 C 
ATOM     22  C   UNL A   1     -31.486  -5.929  31.555  0.00  0.00    +0.073 C 
ATOM     23  N   UNL A   1     -32.451  -6.195  31.912  0.00  0.00    -0.271 NA
ATOM     24  C   UNL A   1     -33.287  -5.276  32.294  0.00  0.00    +0.081 C 
ATOM     25  C   UNL A   1     -32.852  -3.959  32.234  0.00  0.00    +0.111 C 
ATOM     26  C   UNL A   1     -31.518  -3.742  31.752  0.00  0.00    +0.013 C 
ATOM     27  C   UNL A   1     -33.061  -7.618  32.088  0.00  0.00    +0.090 C 
BRANCH  25  28
ATOM     28  C   UNL A   1     -33.641  -2.807  32.627  0.00  0.00    +0.399 C 
ATOM     29  F   UNL A   1     -34.699  -2.974  32.984  0.00  0.00    -0.170 F 
ATOM     30  F   UNL A   1     -32.923  -2.167  33.640  0.00  0.00    -0.170 F 
ATOM     31  F   UNL A   1     -33.545  -1.895  31.568  0.00  0.00    -0.170 F 
ENDBRANCH  25  28
ENDBRANCH  20  21
ENDBRANCH  19  20
ENDBRANCH  17  19
ENDBRANCH   7  17
TORSDOF 6
