MODEL 2186
MODEL 1
REMARK VINA RESULT:    -8.061      0.000      0.000
REMARK INTER + INTRA:         -10.968
REMARK INTER:                  -9.946
REMARK INTRA:                  -1.022
REMARK UNBOUND:                -1.022
REMARK  Name = No_2186-gen_results/8p0m/2024-11-26-14-13-15/
REMARK  4 active torsions:
REMARK  status: ('A' for Active; 'I' for Inactive)
REMARK    1  A    between atoms: C_1  and  C_6
REMARK    2  A    between atoms: C_3  and  C_20
REMARK    3  A    between atoms: C_5  and  C_10
REMARK    4  A    between atoms: N_8  and  C_13
REMARK                            x       y       z     vdW  Elec       q    Type
REMARK                         _______ _______ _______ _____ _____    ______ ____
ROOT
ATOM      1  C   UNL A   1     -24.998   0.436  28.766  0.00  0.00    +0.056 A 
ATOM      2  C   UNL A   1     -25.794   0.381  27.858  0.00  0.00    +0.005 A 
ATOM      3  C   UNL A   1     -25.558   0.811  26.563  0.00  0.00    +0.000 A 
ATOM      4  C   UNL A   1     -24.260   1.331  26.279  0.00  0.00    +0.006 A 
ATOM      5  C   UNL A   1     -23.353   1.239  27.273  0.00  0.00    +0.068 A 
ATOM      6  C   UNL A   1     -23.705   0.780  28.464  0.00  0.00    +0.010 A 
ENDROOT
BRANCH   3   7
ATOM      7  C   UNL A   1     -26.624   0.869  25.508  0.00  0.00    +0.000 A 
ATOM      8  C   UNL A   1     -27.165   2.067  25.217  0.00  0.00    +0.000 A 
ATOM      9  C   UNL A   1     -28.228   2.126  24.271  0.00  0.00    +0.000 A 
ATOM     10  C   UNL A   1     -28.598   0.956  23.545  0.00  0.00    +0.000 A 
ATOM     11  C   UNL A   1     -27.042  -0.286  24.887  0.00  0.00    +0.000 A 
ATOM     12  C   UNL A   1     -28.045  -0.215  23.888  0.00  0.00    +0.000 A 
ENDBRANCH   3   7
BRANCH   1  13
ATOM     13  C   UNL A   1     -25.336  -0.103  30.055  0.00  0.00    +0.269 C 
ATOM     14  N   UNL A   1     -25.082  -1.357  30.316  0.00  0.00    -0.174 NA
ATOM     15  O   UNL A   1     -26.072   0.496  30.899  0.00  0.00    -0.268 OA
BRANCH  14  16
ATOM     16  C   UNL A   1     -25.112  -2.286  29.792  0.00  0.00    +0.090 A 
ATOM     17  C   UNL A   1     -26.220  -3.121  29.813  0.00  0.00    +0.104 A 
ATOM     18  C   UNL A   1     -23.956  -2.919  29.086  0.00  0.00    +0.018 A 
ATOM     19  C   UNL A   1     -23.961  -4.284  28.705  0.00  0.00    +0.001 A 
ATOM     20  N   UNL A   1     -27.248  -2.645  30.598  0.00  0.00    -0.127 NA
ATOM     21  C   UNL A   1     -25.116  -5.050  28.978  0.00  0.00    +0.002 A 
ATOM     22  C   UNL A   1     -26.154  -4.489  29.590  0.00  0.00    +0.019 A 
ENDBRANCH  14  16
ENDBRANCH   1  13
BRANCH   5  23
ATOM     23  C   UNL A   1     -21.999   1.738  26.959  0.00  0.00    +0.333 C 
ATOM     24  O   UNL A   1     -21.143   1.520  27.595  0.00  0.00    -0.254 OA
ATOM     25  F   UNL A   1     -21.725   2.099  25.730  0.00  0.00    -0.159 F 
ENDBRANCH   5  23
TORSDOF 4
ENDMDL
ENDMDL
