REMARK  Name = No_2186-gen_results/8p0m/2024-11-26-14-13-15/
REMARK  4 active torsions:
REMARK  status: ('A' for Active; 'I' for Inactive)
REMARK    1  A    between atoms: C_1  and  C_6
REMARK    2  A    between atoms: C_3  and  C_20
REMARK    3  A    between atoms: C_5  and  C_10
REMARK    4  A    between atoms: N_8  and  C_13
REMARK                            x       y       z     vdW  Elec       q    Type
REMARK                         _______ _______ _______ _____ _____    ______ ____
ROOT
ATOM      1  C   UNL A   1     -28.016  -0.814  28.878  0.00  0.00    +0.056 A 
ATOM      2  C   UNL A   1     -27.064  -0.119  28.608  0.00  0.00    +0.005 A 
ATOM      3  C   UNL A   1     -26.972   0.714  27.506  0.00  0.00    +0.000 A 
ATOM      4  C   UNL A   1     -28.105   0.774  26.642  0.00  0.00    +0.006 A 
ATOM      5  C   UNL A   1     -29.201   0.104  27.053  0.00  0.00    +0.068 A 
ATOM      6  C   UNL A   1     -29.164  -0.639  28.148  0.00  0.00    +0.010 A 
ENDROOT
BRANCH   3   7
ATOM      7  C   UNL A   1     -25.713   1.438  27.125  0.00  0.00    +0.000 A 
ATOM      8  C   UNL A   1     -25.601   2.737  27.460  0.00  0.00    +0.000 A 
ATOM      9  C   UNL A   1     -24.444   3.454  27.041  0.00  0.00    +0.000 A 
ATOM     10  C   UNL A   1     -23.368   2.761  26.413  0.00  0.00    +0.000 A 
ATOM     11  C   UNL A   1     -24.724   0.780  26.429  0.00  0.00    +0.000 A 
ATOM     12  C   UNL A   1     -23.538   1.474  26.082  0.00  0.00    +0.000 A 
ENDBRANCH   3   7
BRANCH   1  13
ATOM     13  C   UNL A   1     -28.022  -1.590  30.088  0.00  0.00    +0.269 C 
ATOM     14  N   UNL A   1     -27.067  -2.454  30.304  0.00  0.00    -0.174 NA
ATOM     15  O   UNL A   1     -29.015  -1.659  30.876  0.00  0.00    -0.268 OA
BRANCH  14  16
ATOM     16  C   UNL A   1     -26.492  -3.144  29.728  0.00  0.00    +0.090 A 
ATOM     17  C   UNL A   1     -26.788  -4.499  29.673  0.00  0.00    +0.104 A 
ATOM     18  C   UNL A   1     -25.215  -2.827  29.019  0.00  0.00    +0.018 A 
ATOM     19  C   UNL A   1     -24.335  -3.839  28.562  0.00  0.00    +0.001 A 
ATOM     20  N   UNL A   1     -27.864  -4.856  30.455  0.00  0.00    -0.127 NA
ATOM     21  C   UNL A   1     -24.706  -5.188  28.761  0.00  0.00    +0.002 A 
ATOM     22  C   UNL A   1     -25.849  -5.477  29.375  0.00  0.00    +0.019 A 
ENDBRANCH  14  16
ENDBRANCH   1  13
BRANCH   5  23
ATOM     23  C   UNL A   1     -30.386   0.206  26.177  0.00  0.00    +0.333 C 
ATOM     24  O   UNL A   1     -31.273  -0.404  26.335  0.00  0.00    -0.254 OA
ATOM     25  F   UNL A   1     -30.554   1.290  25.460  0.00  0.00    -0.159 F 
ENDBRANCH   5  23
TORSDOF 4
