MODEL 2187
MODEL 1
REMARK VINA RESULT:    -7.741      0.000      0.000
REMARK INTER + INTRA:         -10.606
REMARK INTER:                  -9.551
REMARK INTRA:                  -1.054
REMARK UNBOUND:                -1.054
REMARK  Name = No_2187-gen_results/8p0m/2024-11-26-14-13-15/
REMARK  4 active torsions:
REMARK  status: ('A' for Active; 'I' for Inactive)
REMARK    1  A    between atoms: C_1  and  C_8
REMARK    2  A    between atoms: C_5  and  C_11
REMARK    3  A    between atoms: N_10  and  C_16
REMARK    4  A    between atoms: C_15  and  C_22
REMARK                            x       y       z     vdW  Elec       q    Type
REMARK                         _______ _______ _______ _____ _____    ______ ____
ROOT
ATOM      1  C   UNL A   1     -24.400  -0.147  28.548  0.00  0.00    +0.258 C 
ATOM      2  O   UNL A   1     -24.107   0.874  28.547  0.00  0.00    -0.269 OA
ATOM      3  N   UNL A   1     -24.211  -0.963  29.604  0.00  0.00    -0.201 N 
ATOM      4  C   UNL A   1     -23.535  -0.442  30.842  0.00  0.00    +0.259 C 
ATOM      5  O   UNL A   1     -22.324  -0.727  30.822  0.00  0.00    -0.269 OA
ENDROOT
BRANCH   1   6
ATOM      6  C   UNL A   1     -24.983  -0.761  27.268  0.00  0.00    +0.050 C 
ATOM      7  C   UNL A   1     -25.801  -0.107  26.663  0.00  0.00    -0.040 C 
ATOM      8  C   UNL A   1     -27.073   0.011  26.913  0.00  0.00    +0.022 C 
ATOM      9  C   UNL A   1     -28.046   0.831  26.148  0.00  0.00    +0.013 C 
ATOM     10  C   UNL A   1     -27.518   1.593  25.067  0.00  0.00    +0.096 C 
ATOM     11  C   UNL A   1     -26.168   1.518  24.837  0.00  0.00    +0.013 C 
ATOM     12  C   UNL A   1     -25.311   0.769  25.570  0.00  0.00    +0.022 C 
BRANCH  10  13
ATOM     13  C   UNL A   1     -28.368   2.455  24.261  0.00  0.00    +0.398 C 
ATOM     14  F   UNL A   1     -28.337   3.560  24.465  0.00  0.00    -0.170 F 
ATOM     15  F   UNL A   1     -28.044   2.254  22.900  0.00  0.00    -0.170 F 
ATOM     16  F   UNL A   1     -29.705   1.883  24.213  0.00  0.00    -0.170 F 
ENDBRANCH  10  13
ENDBRANCH   1   6
BRANCH   3  17
ATOM     17  C   UNL A   1     -24.595  -2.333  29.652  0.00  0.00    +0.061 A 
ATOM     18  C   UNL A   1     -23.845  -3.184  29.126  0.00  0.00    +0.015 A 
ATOM     19  C   UNL A   1     -24.321  -4.463  28.858  0.00  0.00    +0.001 A 
ATOM     20  C   UNL A   1     -25.633  -4.780  29.242  0.00  0.00    +0.000 A 
ATOM     21  C   UNL A   1     -26.430  -3.829  29.827  0.00  0.00    +0.001 A 
ATOM     22  C   UNL A   1     -25.945  -2.563  29.990  0.00  0.00    +0.015 A 
ENDBRANCH   3  17
BRANCH   4  23
ATOM     23  C   UNL A   1     -24.282   0.191  31.678  0.00  0.00    +0.054 A 
ATOM     24  C   UNL A   1     -24.653   1.425  31.740  0.00  0.00    +0.004 A 
ATOM     25  C   UNL A   1     -25.491   2.052  32.692  0.00  0.00    +0.000 A 
ATOM     26  C   UNL A   1     -25.780   1.318  33.812  0.00  0.00    +0.000 A 
ATOM     27  C   UNL A   1     -24.723  -0.653  32.878  0.00  0.00    +0.004 A 
ATOM     28  C   UNL A   1     -25.460  -0.054  33.895  0.00  0.00    +0.000 A 
ENDBRANCH   4  23
TORSDOF 4
ENDMDL
ENDMDL
