REMARK  Name = No_2187-gen_results/8p0m/2024-11-26-14-13-15/
REMARK  4 active torsions:
REMARK  status: ('A' for Active; 'I' for Inactive)
REMARK    1  A    between atoms: C_1  and  C_8
REMARK    2  A    between atoms: C_5  and  C_11
REMARK    3  A    between atoms: N_10  and  C_16
REMARK    4  A    between atoms: C_15  and  C_22
REMARK                            x       y       z     vdW  Elec       q    Type
REMARK                         _______ _______ _______ _____ _____    ______ ____
ROOT
ATOM      1  C   UNL A   1     -28.061  -1.429  30.283  0.00  0.00    +0.258 C 
ATOM      2  O   UNL A   1     -27.188  -1.888  30.677  0.00  0.00    -0.269 OA
ATOM      3  N   UNL A   1     -29.243  -1.428  30.930  0.00  0.00    -0.201 N 
ATOM      4  C   UNL A   1     -29.372  -2.121  32.258  0.00  0.00    +0.259 C 
ATOM      5  O   UNL A   1     -29.831  -3.266  32.102  0.00  0.00    -0.269 OA
ENDROOT
BRANCH   1   6
ATOM      6  C   UNL A   1     -28.016  -0.814  28.878  0.00  0.00    +0.050 C 
ATOM      7  C   UNL A   1     -27.064  -0.119  28.608  0.00  0.00    -0.040 C 
ATOM      8  C   UNL A   1     -26.876   1.133  28.913  0.00  0.00    +0.022 C 
ATOM      9  C   UNL A   1     -25.688   1.952  28.567  0.00  0.00    +0.013 C 
ATOM     10  C   UNL A   1     -24.639   1.283  27.875  0.00  0.00    +0.096 C 
ATOM     11  C   UNL A   1     -24.807  -0.051  27.604  0.00  0.00    +0.013 C 
ATOM     12  C   UNL A   1     -25.902  -0.767  27.951  0.00  0.00    +0.022 C 
BRANCH  10  13
ATOM     13  C   UNL A   1     -23.413   1.974  27.506  0.00  0.00    +0.398 C 
ATOM     14  F   UNL A   1     -22.441   1.425  27.643  0.00  0.00    -0.170 F 
ATOM     15  F   UNL A   1     -23.509   2.357  26.149  0.00  0.00    -0.170 F 
ATOM     16  F   UNL A   1     -23.440   3.313  28.073  0.00  0.00    -0.170 F 
ENDBRANCH  10  13
ENDBRANCH   1   6
BRANCH   3  17
ATOM     17  C   UNL A   1     -30.435  -0.818  30.445  0.00  0.00    +0.061 A 
ATOM     18  C   UNL A   1     -31.384  -1.553  30.096  0.00  0.00    +0.015 A 
ATOM     19  C   UNL A   1     -32.418  -1.036  29.323  0.00  0.00    +0.001 A 
ATOM     20  C   UNL A   1     -32.391   0.329  28.998  0.00  0.00    +0.000 A 
ATOM     21  C   UNL A   1     -31.341   1.114  29.404  0.00  0.00    +0.001 A 
ATOM     22  C   UNL A   1     -30.307   0.541  30.087  0.00  0.00    +0.015 A 
ENDBRANCH   3  17
BRANCH   4  23
ATOM     23  C   UNL A   1     -28.996  -1.451  33.292  0.00  0.00    +0.054 A 
ATOM     24  C   UNL A   1     -28.235  -0.417  33.420  0.00  0.00    +0.004 A 
ATOM     25  C   UNL A   1     -27.872   0.276  34.598  0.00  0.00    +0.000 A 
ATOM     26  C   UNL A   1     -28.189  -0.342  35.779  0.00  0.00    +0.000 A 
ATOM     27  C   UNL A   1     -29.451  -2.058  34.623  0.00  0.00    +0.004 A 
ATOM     28  C   UNL A   1     -29.032  -1.473  35.814  0.00  0.00    +0.000 A 
ENDBRANCH   4  23
TORSDOF 4
