MODEL 2188
MODEL 1
REMARK VINA RESULT:    -4.600      0.000      0.000
REMARK INTER + INTRA:          -4.600
REMARK INTER:                  -4.600
REMARK INTRA:                   0.000
REMARK UNBOUND:                 0.000
REMARK  Name = No_2188-gen_results/8p0m/2024-11-26-14-13-15/
REMARK  0 active torsions:
REMARK  status: ('A' for Active; 'I' for Inactive)
REMARK                            x       y       z     vdW  Elec       q    Type
REMARK                         _______ _______ _______ _____ _____    ______ ____
ROOT
ATOM      1  C   UNL A   1      -8.058  -9.790  19.989  0.00  0.00    +0.140 A 
ATOM      2  C   UNL A   1      -9.102  -9.242  20.260  0.00  0.00    +0.030 A 
ATOM      3  C   UNL A   1     -10.199  -9.228  19.421  0.00  0.00    +0.002 A 
ATOM      4  C   UNL A   1     -10.104  -9.932  18.187  0.00  0.00    +0.000 A 
ATOM      5  C   UNL A   1      -8.983 -10.668  18.007  0.00  0.00    +0.002 A 
ATOM      6  C   UNL A   1      -7.998 -10.654  18.885  0.00  0.00    +0.030 A 
ATOM      7  F   UNL A   1      -7.035  -9.817  20.866  0.00  0.00    -0.204 F 
ENDROOT
TORSDOF 0
ENDMDL
ENDMDL
