MODEL 2189
MODEL 1
REMARK VINA RESULT:    -6.917      0.000      0.000
REMARK INTER + INTRA:         -10.026
REMARK INTER:                  -8.939
REMARK INTRA:                  -1.087
REMARK UNBOUND:                -1.087
REMARK  Name = No_2189-gen_results/8p0m/2024-11-26-14-13-15/
REMARK  5 active torsions:
REMARK  status: ('A' for Active; 'I' for Inactive)
REMARK    1  A    between atoms: C_1  and  C_6
REMARK    2  A    between atoms: C_3  and  C_13
REMARK    3  A    between atoms: C_6  and  O_8
REMARK    4  A    between atoms: O_8  and  C_22
REMARK    5  A    between atoms: C_22  and  C_24
REMARK                            x       y       z     vdW  Elec       q    Type
REMARK                         _______ _______ _______ _____ _____    ______ ____
ROOT
ATOM      1  C   UNL A   1     -25.272   0.028  26.856  0.00  0.00    +0.076 A 
ATOM      2  C   UNL A   1     -25.293  -1.046  27.410  0.00  0.00    +0.008 A 
ATOM      3  C   UNL A   1     -25.209  -1.239  28.779  0.00  0.00    +0.014 A 
ATOM      4  C   UNL A   1     -25.122  -0.072  29.594  0.00  0.00    -0.015 A 
ATOM      5  C   UNL A   1     -25.252   1.109  28.956  0.00  0.00    +0.050 A 
ATOM      6  C   UNL A   1     -25.353   1.153  27.637  0.00  0.00    +0.011 A 
ATOM      7  C   UNL A   1     -25.189   2.302  29.825  0.00  0.00    +0.249 C 
ATOM      8  O   UNL A   1     -25.137   3.320  29.390  0.00  0.00    -0.270 OA
ATOM      9  N   UNL A   1     -24.781   2.104  31.180  0.00  0.00    -0.274 N 
ATOM     10  C   UNL A   1     -24.834   0.888  31.886  0.00  0.00    +0.098 C 
ATOM     11  C   UNL A   1     -25.004  -0.226  31.041  0.00  0.00    +0.048 C 
ATOM     12  C   UNL A   1     -24.726   3.274  32.029  0.00  0.00    +0.115 C 
ENDROOT
BRANCH   3  13
ATOM     13  C   UNL A   1     -25.069  -2.603  29.413  0.00  0.00    +0.081 A 
ATOM     14  N   UNL A   1     -25.897  -3.254  29.972  0.00  0.00    -0.244 NA
ATOM     15  C   UNL A   1     -26.313  -4.488  29.610  0.00  0.00    +0.099 A 
ATOM     16  C   UNL A   1     -25.362  -5.267  29.078  0.00  0.00    +0.021 A 
ATOM     17  C   UNL A   1     -24.073  -4.728  28.842  0.00  0.00    +0.003 A 
ATOM     18  C   UNL A   1     -23.939  -3.310  28.800  0.00  0.00    +0.019 A 
ENDBRANCH   3  13
BRANCH   1  19
ATOM     19  C   UNL A   1     -25.433   0.106  25.430  0.00  0.00    +0.345 C 
ATOM     20  O   UNL A   1     -24.450   0.472  24.658  0.00  0.00    -0.244 OA
BRANCH  19  21
ATOM     21  O   UNL A   1     -26.437  -0.333  24.871  0.00  0.00    -0.425 OA
BRANCH  21  22
ATOM     22  C   UNL A   1     -27.575   0.417  24.628  0.00  0.00    +0.126 C 
ATOM     23  C   UNL A   1     -27.544   1.865  24.640  0.00  0.00    +0.036 C 
BRANCH  22  24
ATOM     24  C   UNL A   1     -28.833  -0.258  24.472  0.00  0.00    +0.065 C 
ATOM     25  C   UNL A   1     -28.980  -1.270  23.512  0.00  0.00    +0.008 C 
ENDBRANCH  22  24
ENDBRANCH  21  22
ENDBRANCH  19  21
ENDBRANCH   1  19
TORSDOF 5
ENDMDL
ENDMDL
