REMARK  Name = No_2189-gen_results/8p0m/2024-11-26-14-13-15/
REMARK  5 active torsions:
REMARK  status: ('A' for Active; 'I' for Inactive)
REMARK    1  A    between atoms: C_1  and  C_6
REMARK    2  A    between atoms: C_3  and  C_13
REMARK    3  A    between atoms: C_6  and  O_8
REMARK    4  A    between atoms: O_8  and  C_22
REMARK    5  A    between atoms: C_22  and  C_24
REMARK                            x       y       z     vdW  Elec       q    Type
REMARK                         _______ _______ _______ _____ _____    ______ ____
ROOT
ATOM      1  C   UNL A   1     -28.016  -0.814  28.878  0.00  0.00    +0.076 A 
ATOM      2  C   UNL A   1     -27.064  -0.119  28.608  0.00  0.00    +0.008 A 
ATOM      3  C   UNL A   1     -26.972   0.714  27.506  0.00  0.00    +0.014 A 
ATOM      4  C   UNL A   1     -28.105   0.774  26.642  0.00  0.00    -0.015 A 
ATOM      5  C   UNL A   1     -29.201   0.104  27.053  0.00  0.00    +0.050 A 
ATOM      6  C   UNL A   1     -29.164  -0.639  28.148  0.00  0.00    +0.011 A 
ATOM      7  C   UNL A   1     -30.371   0.206  26.157  0.00  0.00    +0.249 C 
ATOM      8  O   UNL A   1     -31.270  -0.421  26.322  0.00  0.00    -0.270 OA
ATOM      9  N   UNL A   1     -30.163   0.797  24.873  0.00  0.00    -0.274 N 
ATOM     10  C   UNL A   1     -29.103   1.653  24.523  0.00  0.00    +0.098 C 
ATOM     11  C   UNL A   1     -28.045   1.618  25.452  0.00  0.00    +0.048 C 
ATOM     12  C   UNL A   1     -31.313   0.901  24.001  0.00  0.00    +0.115 C 
ENDROOT
BRANCH   3  13
ATOM     13  C   UNL A   1     -25.701   1.433  27.119  0.00  0.00    +0.081 A 
ATOM     14  N   UNL A   1     -25.562   2.354  26.374  0.00  0.00    -0.244 NA
ATOM     15  C   UNL A   1     -25.051   3.563  26.695  0.00  0.00    +0.099 A 
ATOM     16  C   UNL A   1     -24.079   3.534  27.617  0.00  0.00    +0.021 A 
ATOM     17  C   UNL A   1     -23.748   2.306  28.241  0.00  0.00    +0.003 A 
ATOM     18  C   UNL A   1     -24.697   1.245  28.172  0.00  0.00    +0.019 A 
ENDBRANCH   3  13
BRANCH   1  19
ATOM     19  C   UNL A   1     -28.022  -1.590  30.088  0.00  0.00    +0.345 C 
ATOM     20  O   UNL A   1     -29.070  -1.630  30.860  0.00  0.00    -0.244 OA
BRANCH  19  21
ATOM     21  O   UNL A   1     -27.115  -2.378  30.350  0.00  0.00    -0.425 OA
BRANCH  21  22
ATOM     22  C   UNL A   1     -27.199  -3.745  30.148  0.00  0.00    +0.126 C 
ATOM     23  C   UNL A   1     -26.235  -4.450  29.329  0.00  0.00    +0.036 C 
BRANCH  22  24
ATOM     24  C   UNL A   1     -28.331  -4.458  30.673  0.00  0.00    +0.065 C 
ATOM     25  C   UNL A   1     -29.361  -3.768  31.329  0.00  0.00    +0.008 C 
ENDBRANCH  22  24
ENDBRANCH  21  22
ENDBRANCH  19  21
ENDBRANCH   1  19
TORSDOF 5
