MODEL 218
MODEL 1
REMARK VINA RESULT:    -6.053      0.000      0.000
REMARK INTER + INTRA:          -7.619
REMARK INTER:                  -7.114
REMARK INTRA:                  -0.505
REMARK UNBOUND:                -0.505
REMARK  Name = No_218-gen_results/8p0m/2024-11-26-14-13-15/
REMARK  3 active torsions:
REMARK  status: ('A' for Active; 'I' for Inactive)
REMARK    1  A    between atoms: C_3  and  C_4
REMARK    2  A    between atoms: C_4  and  C_8
REMARK    3  A    between atoms: C_9  and  C_10
REMARK                            x       y       z     vdW  Elec       q    Type
REMARK                         _______ _______ _______ _____ _____    ______ ____
ROOT
ATOM      1  C   UNL A   1     -25.796  -2.583  29.773  0.00  0.00    -0.004 A 
ATOM      2  C   UNL A   1     -26.416  -3.414  29.963  0.00  0.00    -0.000 A 
ATOM      3  C   UNL A   1     -24.459  -2.870  29.228  0.00  0.00    -0.018 A 
ATOM      4  C   UNL A   1     -26.286  -4.843  29.594  0.00  0.00    -0.000 A 
ATOM      5  C   UNL A   1     -25.049  -5.195  29.064  0.00  0.00    -0.000 A 
ATOM      6  C   UNL A   1     -24.089  -4.233  28.832  0.00  0.00    -0.004 A 
ENDROOT
BRANCH   3   7
ATOM      7  C   UNL A   1     -23.372  -1.925  29.021  0.00  0.00    +0.052 C 
BRANCH   7   8
ATOM      8  C   UNL A   1     -23.174  -0.927  30.085  0.00  0.00    -0.021 C 
ATOM      9  C   UNL A   1     -22.241   0.011  29.786  0.00  0.00    -0.005 C 
BRANCH   9  10
ATOM     10  C   UNL A   1     -21.345   0.039  28.682  0.00  0.00    -0.005 C 
ATOM     11  C   UNL A   1     -21.382   1.025  27.673  0.00  0.00    -0.026 C 
ATOM     12  C   UNL A   1     -22.495   1.857  27.641  0.00  0.00    +0.031 C 
ENDBRANCH   9  10
ENDBRANCH   7   8
ENDBRANCH   3   7
TORSDOF 3
ENDMDL
ENDMDL
