REMARK  Name = No_2190-gen_results/8p0m/2024-11-26-14-13-15/
REMARK  0 active torsions:
REMARK  status: ('A' for Active; 'I' for Inactive)
REMARK                            x       y       z     vdW  Elec       q    Type
REMARK                         _______ _______ _______ _____ _____    ______ ____
ROOT
ATOM      1  O   UNL A   1     -28.123  -1.335  28.487  0.00  0.00    -0.273 OA
ATOM      2  C   UNL A   1     -27.481  -0.404  28.709  0.00  0.00    +0.242 C 
ATOM      3  C   UNL A   1     -26.380  -0.087  27.939  0.00  0.00    +0.094 C 
ATOM      4  N   UNL A   1     -27.666   0.447  29.899  0.00  0.00    -0.205 NA
ATOM      5  C   UNL A   1     -25.177  -0.439  28.395  0.00  0.00    +0.085 C 
ATOM      6  C   UNL A   1     -24.870  -0.105  29.831  0.00  0.00    +0.038 C 
ATOM      7  C   UNL A   1     -26.193   0.218  30.562  0.00  0.00    +0.117 C 
ATOM      8  C   UNL A   1     -26.512   1.205  27.173  0.00  0.00    +0.011 C 
ATOM      9  C   UNL A   1     -26.278   0.865  25.806  0.00  0.00    +0.004 C 
ATOM     10  C   UNL A   1     -25.347   0.098  25.546  0.00  0.00    +0.037 C 
ATOM     11  C   UNL A   1     -24.519  -0.345  26.488  0.00  0.00    +0.164 C 
ATOM     12  N   UNL A   1     -23.710   0.299  27.068  0.00  0.00    -0.114 NA
ATOM     13  N   UNL A   1     -25.149  -1.097  27.382  0.00  0.00    -0.202 NA
ATOM     14  C   UNL A   1     -24.181  -1.054  30.755  0.00  0.00    +0.003 C 
ENDROOT
TORSDOF 0
