REMARK  Name = No_2191-gen_results/8p0m/2024-11-26-14-13-15/
REMARK  2 active torsions:
REMARK  status: ('A' for Active; 'I' for Inactive)
REMARK    1  A    between atoms: C_2  and  C_4
REMARK    2  A    between atoms: C_4  and  C_5
REMARK                            x       y       z     vdW  Elec       q    Type
REMARK                         _______ _______ _______ _____ _____    ______ ____
ROOT
ATOM      1  C   UNL A   1     -26.390   1.395  27.367  0.00  0.00    -0.018 A 
ATOM      2  C   UNL A   1     -26.090   2.225  26.176  0.00  0.00    -0.004 A 
ATOM      3  C   UNL A   1     -24.784   2.362  25.659  0.00  0.00    -0.000 A 
ATOM      4  C   UNL A   1     -23.715   1.608  26.290  0.00  0.00    -0.000 A 
ATOM      5  C   UNL A   1     -23.965   0.813  27.359  0.00  0.00    -0.000 A 
ATOM      6  C   UNL A   1     -25.164   0.717  27.864  0.00  0.00    -0.004 A 
ENDROOT
BRANCH   1   7
ATOM      7  C   UNL A   1     -27.448   1.305  27.943  0.00  0.00    +0.079 C 
BRANCH   7   9
ATOM      8 CL   UNL A   1     -28.149  -0.820  28.908  0.00  0.00    -0.076 Cl
ATOM      9  C   UNL A   1     -27.834   0.496  29.060  0.00  0.00    +0.243 C 
ATOM     10  F   UNL A   1     -27.883   1.038  30.194  0.00  0.00    -0.219 F 
ENDBRANCH   7   9
ENDBRANCH   1   7
TORSDOF 2
