MODEL 2191
MODEL 1
REMARK VINA RESULT:    -5.248      0.000      0.000
REMARK INTER + INTRA:          -6.095
REMARK INTER:                  -5.862
REMARK INTRA:                  -0.233
REMARK UNBOUND:                -0.233
REMARK  Name = No_2191-gen_results/8p0m/2024-11-26-14-13-15/
REMARK  2 active torsions:
REMARK  status: ('A' for Active; 'I' for Inactive)
REMARK    1  A    between atoms: C_2  and  C_4
REMARK    2  A    between atoms: C_4  and  C_5
REMARK                            x       y       z     vdW  Elec       q    Type
REMARK                         _______ _______ _______ _____ _____    ______ ____
ROOT
ATOM      1  C   UNL A   1     -24.419  -2.581  28.960  0.00  0.00    -0.018 A 
ATOM      2  C   UNL A   1     -23.996  -3.963  28.632  0.00  0.00    -0.004 A 
ATOM      3  C   UNL A   1     -24.774  -5.092  28.966  0.00  0.00    -0.000 A 
ATOM      4  C   UNL A   1     -26.062  -4.873  29.600  0.00  0.00    -0.000 A 
ATOM      5  C   UNL A   1     -26.492  -3.619  29.881  0.00  0.00    -0.000 A 
ATOM      6  C   UNL A   1     -25.756  -2.576  29.610  0.00  0.00    -0.004 A 
ENDROOT
BRANCH   1   7
ATOM      7  C   UNL A   1     -23.776  -1.569  28.814  0.00  0.00    +0.079 C 
BRANCH   7   9
ATOM      8 CL   UNL A   1     -22.694  -0.588  30.765  0.00  0.00    -0.076 Cl
ATOM      9  C   UNL A   1     -22.613  -1.098  29.505  0.00  0.00    +0.243 C 
ATOM     10  F   UNL A   1     -21.506  -1.159  28.910  0.00  0.00    -0.219 F 
ENDBRANCH   7   9
ENDBRANCH   1   7
TORSDOF 2
ENDMDL
ENDMDL
