MODEL 2192
MODEL 1
REMARK VINA RESULT:    -3.498      0.000      0.000
REMARK INTER + INTRA:          -3.498
REMARK INTER:                  -3.498
REMARK INTRA:                   0.000
REMARK UNBOUND:                 0.000
REMARK  Name = No_2192-gen_results/8p0m/2024-11-26-14-13-15/
REMARK  0 active torsions:
REMARK  status: ('A' for Active; 'I' for Inactive)
REMARK                            x       y       z     vdW  Elec       q    Type
REMARK                         _______ _______ _______ _____ _____    ______ ____
ROOT
ATOM      1  F   UNL A   1      -7.709 -10.607  19.661  0.00  0.00    -0.140 F 
ATOM      2  C   UNL A   1      -7.744  -9.764  20.434  0.00  0.00    +0.561 C 
ATOM      3  F   UNL A   1      -7.248 -10.227  21.378  0.00  0.00    -0.140 F 
ATOM      4  F   UNL A   1      -7.075  -8.660  20.058  0.00  0.00    -0.140 F 
ATOM      5  F   UNL A   1      -9.033  -9.441  20.691  0.00  0.00    -0.140 F 
ENDROOT
TORSDOF 0
ENDMDL
ENDMDL
