REMARK  Name = No_2193-gen_results/8p0m/2024-11-26-14-13-15/
REMARK  6 active torsions:
REMARK  status: ('A' for Active; 'I' for Inactive)
REMARK    1  A    between atoms: C_1  and  O_21
REMARK    2  A    between atoms: C_3  and  C_8
REMARK    3  A    between atoms: C_6  and  O_7
REMARK    4  A    between atoms: O_7  and  C_14
REMARK    5  A    between atoms: C_14  and  C_15
REMARK    6  A    between atoms: O_21  and  C_22
REMARK                            x       y       z     vdW  Elec       q    Type
REMARK                         _______ _______ _______ _____ _____    ______ ____
ROOT
ATOM      1  C   UNL A   1     -28.016  -0.814  28.878  0.00  0.00    +0.179 A 
ATOM      2  C   UNL A   1     -27.064  -0.119  28.608  0.00  0.00    +0.041 A 
ATOM      3  C   UNL A   1     -25.792  -0.430  29.076  0.00  0.00    +0.003 A 
ATOM      4  C   UNL A   1     -25.576  -1.565  29.936  0.00  0.00    +0.003 A 
ATOM      5  C   UNL A   1     -26.735  -2.300  30.217  0.00  0.00    +0.040 A 
ATOM      6  C   UNL A   1     -27.918  -1.954  29.763  0.00  0.00    +0.178 A 
ENDROOT
BRANCH   3   7
ATOM      7  C   UNL A   1     -24.529   0.349  28.800  0.00  0.00    +0.000 A 
ATOM      8  C   UNL A   1     -24.481   1.211  27.800  0.00  0.00    +0.000 A 
ATOM      9  C   UNL A   1     -23.248   1.897  27.495  0.00  0.00    +0.000 A 
ATOM     10  C   UNL A   1     -22.050   1.589  28.164  0.00  0.00    +0.000 A 
ATOM     11  C   UNL A   1     -23.307   0.015  29.462  0.00  0.00    +0.000 A 
ATOM     12  C   UNL A   1     -22.085   0.690  29.137  0.00  0.00    +0.000 A 
ENDBRANCH   3   7
BRANCH   6  13
ATOM     13  O   UNL A   1     -29.000  -2.701  30.115  0.00  0.00    -0.421 OA
BRANCH  13  14
ATOM     14  C   UNL A   1     -29.363  -2.812  31.442  0.00  0.00    +0.500 C 
ATOM     15  F   UNL A   1     -28.168  -3.197  32.043  0.00  0.00    -0.156 F 
ATOM     16  F   UNL A   1     -30.202  -4.000  31.350  0.00  0.00    -0.156 F 
BRANCH  14  17
ATOM     17  C   UNL A   1     -29.924  -1.779  31.993  0.00  0.00    +0.497 C 
ATOM     18  F   UNL A   1     -29.866  -1.797  33.146  0.00  0.00    -0.162 F 
ATOM     19  F   UNL A   1     -31.251  -1.745  31.649  0.00  0.00    -0.162 F 
ATOM     20  F   UNL A   1     -29.433  -0.591  31.540  0.00  0.00    -0.162 F 
ENDBRANCH  14  17
ENDBRANCH  13  14
ENDBRANCH   6  13
BRANCH   1  21
ATOM     21  O   UNL A   1     -29.312  -0.502  28.635  0.00  0.00    -0.449 OA
BRANCH  21  22
ATOM     22  C   UNL A   1     -29.740   0.622  27.970  0.00  0.00    +0.165 A 
ATOM     23  C   UNL A   1     -29.593   1.757  28.455  0.00  0.00    +0.041 A 
ATOM     24  C   UNL A   1     -29.718   2.829  27.691  0.00  0.00    +0.024 A 
ATOM     25  C   UNL A   1     -30.295   2.681  26.490  0.00  0.00    +0.099 A 
ATOM     26  C   UNL A   1     -30.241   0.472  26.702  0.00  0.00    +0.136 A 
ATOM     27  N   UNL A   1     -30.468   1.495  25.964  0.00  0.00    -0.239 NA
ENDBRANCH  21  22
ENDBRANCH   1  21
TORSDOF 6
