MODEL 2193
MODEL 1
REMARK VINA RESULT:    -7.422      0.000      0.000
REMARK INTER + INTRA:         -11.093
REMARK INTER:                 -10.026
REMARK INTRA:                  -1.067
REMARK UNBOUND:                -1.067
REMARK  Name = No_2193-gen_results/8p0m/2024-11-26-14-13-15/
REMARK  6 active torsions:
REMARK  status: ('A' for Active; 'I' for Inactive)
REMARK    1  A    between atoms: C_1  and  O_21
REMARK    2  A    between atoms: C_3  and  C_8
REMARK    3  A    between atoms: C_6  and  O_7
REMARK    4  A    between atoms: O_7  and  C_14
REMARK    5  A    between atoms: C_14  and  C_15
REMARK    6  A    between atoms: O_21  and  C_22
REMARK                            x       y       z     vdW  Elec       q    Type
REMARK                         _______ _______ _______ _____ _____    ______ ____
ROOT
ATOM      1  C   UNL A   1      -9.191   0.537  34.924  0.00  0.00    +0.179 A 
ATOM      2  C   UNL A   1      -9.482  -0.123  35.895  0.00  0.00    +0.041 A 
ATOM      3  C   UNL A   1     -10.616   0.166  36.646  0.00  0.00    +0.003 A 
ATOM      4  C   UNL A   1     -11.455   1.290  36.318  0.00  0.00    +0.003 A 
ATOM      5  C   UNL A   1     -11.033   2.012  35.194  0.00  0.00    +0.040 A 
ATOM      6  C   UNL A   1      -9.943   1.707  34.528  0.00  0.00    +0.178 A 
ENDROOT
BRANCH   3   7
ATOM      7  C   UNL A   1     -11.088  -0.586  37.867  0.00  0.00    +0.000 A 
ATOM      8  C   UNL A   1     -11.436  -1.857  37.775  0.00  0.00    +0.000 A 
ATOM      9  C   UNL A   1     -11.958  -2.549  38.929  0.00  0.00    +0.000 A 
ATOM     10  C   UNL A   1     -12.220  -1.875  40.135  0.00  0.00    +0.000 A 
ATOM     11  C   UNL A   1     -11.379   0.107  39.083  0.00  0.00    +0.000 A 
ATOM     12  C   UNL A   1     -11.915  -0.588  40.216  0.00  0.00    +0.000 A 
ENDBRANCH   3   7
BRANCH   6  13
ATOM     13  O   UNL A   1      -9.581   2.484  33.471  0.00  0.00    -0.421 OA
BRANCH  13  14
ATOM     14  C   UNL A   1      -8.811   3.612  33.671  0.00  0.00    +0.500 C 
ATOM     15  F   UNL A   1      -8.333   3.416  34.964  0.00  0.00    -0.156 F 
ATOM     16  F   UNL A   1      -9.875   4.604  33.749  0.00  0.00    -0.156 F 
BRANCH  14  17
ATOM     17  C   UNL A   1      -7.884   3.861  32.796  0.00  0.00    +0.497 C 
ATOM     18  F   UNL A   1      -8.239   3.709  31.708  0.00  0.00    -0.162 F 
ATOM     19  F   UNL A   1      -6.824   3.016  33.004  0.00  0.00    -0.162 F 
ATOM     20  F   UNL A   1      -7.345   5.107  32.920  0.00  0.00    -0.162 F 
ENDBRANCH  14  17
ENDBRANCH  13  14
ENDBRANCH   6  13
BRANCH   1  21
ATOM     21  O   UNL A   1      -8.023   0.460  34.242  0.00  0.00    -0.449 OA
BRANCH  21  22
ATOM     22  C   UNL A   1      -6.955  -0.331  34.595  0.00  0.00    +0.165 A 
ATOM     23  C   UNL A   1      -6.926  -1.541  34.313  0.00  0.00    +0.041 A 
ATOM     24  C   UNL A   1      -5.787  -2.211  34.375  0.00  0.00    +0.024 A 
ATOM     25  C   UNL A   1      -4.761  -1.647  35.027  0.00  0.00    +0.099 A 
ATOM     26  C   UNL A   1      -5.868   0.271  35.175  0.00  0.00    +0.136 A 
ATOM     27  N   UNL A   1      -4.774  -0.377  35.341  0.00  0.00    -0.239 NA
ENDBRANCH  21  22
ENDBRANCH   1  21
TORSDOF 6
ENDMDL
ENDMDL
