MODEL 2194
MODEL 1
REMARK VINA RESULT:    -4.500      0.000      0.000
REMARK INTER + INTRA:          -5.913
REMARK INTER:                  -5.552
REMARK INTRA:                  -0.360
REMARK UNBOUND:                -0.360
REMARK  Name = No_2194-gen_results/8p0m/2024-11-26-14-13-15/
REMARK  4 active torsions:
REMARK  status: ('A' for Active; 'I' for Inactive)
REMARK    1  A    between atoms: C_1  and  C_2
REMARK    2  A    between atoms: C_1  and  C_3
REMARK    3  A    between atoms: C_4  and  C_6
REMARK    4  A    between atoms: C_7  and  C_8
REMARK                            x       y       z     vdW  Elec       q    Type
REMARK                         _______ _______ _______ _____ _____    ______ ____
ROOT
ATOM      1  C   UNL A   1     -24.460  -3.133  28.839  0.00  0.00    -0.026 C 
ATOM      2  C   UNL A   1     -23.469  -2.151  29.000  0.00  0.00    -0.005 C 
ENDROOT
BRANCH   2   3
ATOM      3  C   UNL A   1     -23.852  -0.776  29.204  0.00  0.00    -0.000 C 
ATOM      4  C   UNL A   1     -23.404  -0.012  30.321  0.00  0.00    -0.000 C 
BRANCH   4   5
ATOM      5  C   UNL A   1     -22.804  -0.760  31.435  0.00  0.00    -0.000 C 
ATOM      6  C   UNL A   1     -23.629  -1.084  32.532  0.00  0.00    -0.000 C 
ENDBRANCH   4   5
ENDBRANCH   2   3
BRANCH   1   7
ATOM      7  C   UNL A   1     -24.137  -4.597  28.638  0.00  0.00    +0.026 C 
BRANCH   7   8
ATOM      8  C   UNL A   1     -24.880  -5.273  28.956  0.00  0.00    +0.005 C 
ATOM      9  C   UNL A   1     -26.137  -4.699  29.616  0.00  0.00    +0.000 C 
ENDBRANCH   7   8
ENDBRANCH   1   7
TORSDOF 4
ENDMDL
ENDMDL
