MODEL 2195
MODEL 1
REMARK VINA RESULT:    -5.294      0.000      0.000
REMARK INTER + INTRA:          -5.718
REMARK INTER:                  -5.604
REMARK INTRA:                  -0.114
REMARK UNBOUND:                -0.114
REMARK  Name = No_2195-gen_results/8p0m/2024-11-26-14-13-15/
REMARK  1 active torsions:
REMARK  status: ('A' for Active; 'I' for Inactive)
REMARK    1  A    between atoms: C_2  and  C_3
REMARK                            x       y       z     vdW  Elec       q    Type
REMARK                         _______ _______ _______ _____ _____    ______ ____
ROOT
ATOM      1  C   UNL A   1     -24.091  -2.623  29.336  0.00  0.00    +0.139 A 
ATOM      2  N   UNL A   1     -24.044  -4.022  29.143  0.00  0.00    -0.213 NA
ATOM      3  C   UNL A   1     -25.445  -2.439  30.029  0.00  0.00    +0.024 A 
ATOM      4  C   UNL A   1     -25.002  -5.003  29.101  0.00  0.00    +0.222 A 
ATOM      5  C   UNL A   1     -26.252  -4.635  29.645  0.00  0.00    +0.050 A 
ATOM      6  C   UNL A   1     -26.490  -3.375  30.034  0.00  0.00    +0.006 A 
ATOM      7  F   UNL A   1     -24.773  -6.166  28.732  0.00  0.00    -0.183 F 
ENDROOT
BRANCH   1   9
ATOM      8  O   UNL A   1     -22.258  -1.608  28.878  0.00  0.00    -0.267 OA
ATOM      9  C   UNL A   1     -23.385  -1.861  29.319  0.00  0.00    +0.283 C 
ATOM     10  N   UNL A   1     -24.062  -0.486  29.833  0.00  0.00    -0.199 NA
ATOM     11  C   UNL A   1     -23.256   0.750  29.875  0.00  0.00    +0.139 C 
ENDBRANCH   1   9
TORSDOF 1
ENDMDL
ENDMDL
