REMARK  Name = No_2195-gen_results/8p0m/2024-11-26-14-13-15/
REMARK  1 active torsions:
REMARK  status: ('A' for Active; 'I' for Inactive)
REMARK    1  A    between atoms: C_2  and  C_3
REMARK                            x       y       z     vdW  Elec       q    Type
REMARK                         _______ _______ _______ _____ _____    ______ ____
ROOT
ATOM      1  C   UNL A   1     -26.402  -0.062  28.622  0.00  0.00    +0.139 A 
ATOM      2  N   UNL A   1     -25.103   0.298  29.045  0.00  0.00    -0.213 NA
ATOM      3  C   UNL A   1     -26.544   0.724  27.314  0.00  0.00    +0.024 A 
ATOM      4  C   UNL A   1     -24.272   1.351  28.756  0.00  0.00    +0.222 A 
ATOM      5  C   UNL A   1     -24.618   2.078  27.596  0.00  0.00    +0.050 A 
ATOM      6  C   UNL A   1     -25.754   1.819  26.934  0.00  0.00    +0.006 A 
ATOM      7  F   UNL A   1     -23.226   1.587  29.381  0.00  0.00    -0.183 F 
ENDROOT
BRANCH   1   9
ATOM      8  O   UNL A   1     -28.123  -1.335  28.487  0.00  0.00    -0.267 OA
ATOM      9  C   UNL A   1     -27.064  -0.824  28.869  0.00  0.00    +0.283 C 
ATOM     10  N   UNL A   1     -26.381  -1.799  29.962  0.00  0.00    -0.199 NA
ATOM     11  C   UNL A   1     -27.125  -2.976  30.453  0.00  0.00    +0.139 C 
ENDBRANCH   1   9
TORSDOF 1
