MODEL 2196
MODEL 1
REMARK VINA RESULT:    -6.841      0.000      0.000
REMARK INTER + INTRA:          -7.322
REMARK INTER:                  -7.241
REMARK INTRA:                  -0.081
REMARK UNBOUND:                -0.081
REMARK  Name = No_2196-gen_results/8p0m/2024-11-26-14-13-15/
REMARK  1 active torsions:
REMARK  status: ('A' for Active; 'I' for Inactive)
REMARK    1  A    between atoms: C_5  and  C_8
REMARK                            x       y       z     vdW  Elec       q    Type
REMARK                         _______ _______ _______ _____ _____    ______ ____
ROOT
ATOM      1  C   UNL A   1     -30.184  -9.806  32.080  0.00  0.00    +0.158 A 
ATOM      2  C   UNL A   1     -30.017 -10.470  31.083  0.00  0.00    +0.109 A 
ATOM      3  C   UNL A   1     -28.983 -11.373  30.930  0.00  0.00    +0.020 A 
ATOM      4  C   UNL A   1     -28.090 -11.555  32.023  0.00  0.00    +0.006 A 
ATOM      5  C   UNL A   1     -28.417 -10.918  33.172  0.00  0.00    +0.059 A 
ATOM      6  C   UNL A   1     -29.452 -10.103  33.239  0.00  0.00    +0.036 A 
ATOM      7  F   UNL A   1     -31.240  -8.976  32.198  0.00  0.00    -0.203 F 
ATOM      8  C   UNL A   1     -28.718 -12.036  29.576  0.00  0.00    +0.003 A 
ATOM      9  C   UNL A   1     -29.450 -11.604  28.512  0.00  0.00    +0.018 A 
ATOM     10  C   UNL A   1     -29.223 -12.294  27.222  0.00  0.00    +0.002 A 
ATOM     11  C   UNL A   1     -29.970 -11.975  26.068  0.00  0.00    +0.000 A 
ATOM     12  C   UNL A   1     -30.828 -10.857  26.125  0.00  0.00    +0.002 A 
ATOM     13  C   UNL A   1     -30.989 -10.067  27.281  0.00  0.00    +0.019 A 
ATOM     14  C   UNL A   1     -30.266 -10.449  28.441  0.00  0.00    +0.081 A 
ATOM     15  N   UNL A   1     -30.731 -10.055  29.840  0.00  0.00    -0.243 NA
ENDROOT
BRANCH   5  16
ATOM     16  C   UNL A   1     -27.343 -11.230  34.215  0.00  0.00    +0.284 C 
ATOM     17  O   UNL A   1     -27.162 -12.313  34.443  0.00  0.00    -0.267 OA
ATOM     18  N   UNL A   1     -26.695 -10.245  34.886  0.00  0.00    -0.084 NA
ENDBRANCH   5  16
TORSDOF 1
ENDMDL
ENDMDL
