REMARK  Name = No_2196-gen_results/8p0m/2024-11-26-14-13-15/
REMARK  1 active torsions:
REMARK  status: ('A' for Active; 'I' for Inactive)
REMARK    1  A    between atoms: C_5  and  C_8
REMARK                            x       y       z     vdW  Elec       q    Type
REMARK                         _______ _______ _______ _____ _____    ______ ____
ROOT
ATOM      1  C   UNL A   1     -28.016  -0.814  28.878  0.00  0.00    +0.158 A 
ATOM      2  C   UNL A   1     -27.064  -0.119  28.608  0.00  0.00    +0.109 A 
ATOM      3  C   UNL A   1     -27.001   0.691  27.491  0.00  0.00    +0.020 A 
ATOM      4  C   UNL A   1     -28.137   0.736  26.635  0.00  0.00    +0.006 A 
ATOM      5  C   UNL A   1     -29.236   0.076  27.069  0.00  0.00    +0.059 A 
ATOM      6  C   UNL A   1     -29.218  -0.643  28.175  0.00  0.00    +0.036 A 
ATOM      7  F   UNL A   1     -28.047  -1.548  30.009  0.00  0.00    -0.203 F 
ATOM      8  C   UNL A   1     -25.696   1.393  27.107  0.00  0.00    +0.003 A 
ATOM      9  C   UNL A   1     -24.582   1.083  27.826  0.00  0.00    +0.018 A 
ATOM     10  C   UNL A   1     -23.340   1.813  27.481  0.00  0.00    +0.002 A 
ATOM     11  C   UNL A   1     -22.142   1.621  28.201  0.00  0.00    +0.000 A 
ATOM     12  C   UNL A   1     -22.105   0.585  29.157  0.00  0.00    +0.002 A 
ATOM     13  C   UNL A   1     -23.210  -0.243  29.440  0.00  0.00    +0.019 A 
ATOM     14  C   UNL A   1     -24.416   0.013  28.739  0.00  0.00    +0.081 A 
ATOM     15  N   UNL A   1     -25.773  -0.405  29.300  0.00  0.00    -0.243 NA
ENDROOT
BRANCH   5  16
ATOM     16  C   UNL A   1     -30.337   0.236  26.020  0.00  0.00    +0.284 C 
ATOM     17  O   UNL A   1     -31.215  -0.458  26.101  0.00  0.00    -0.267 OA
ATOM     18  N   UNL A   1     -30.224   1.122  24.999  0.00  0.00    -0.084 NA
ENDBRANCH   5  16
TORSDOF 1
