MODEL 2197
MODEL 1
REMARK VINA RESULT:    -6.703      0.000      0.000
REMARK INTER + INTRA:          -7.832
REMARK INTER:                  -7.486
REMARK INTRA:                  -0.346
REMARK UNBOUND:                -0.346
REMARK  Name = No_2197-gen_results/8p0m/2024-11-26-14-13-15/
REMARK  2 active torsions:
REMARK  status: ('A' for Active; 'I' for Inactive)
REMARK    1  A    between atoms: C_3  and  C_7
REMARK    2  A    between atoms: C_8  and  C_13
REMARK                            x       y       z     vdW  Elec       q    Type
REMARK                         _______ _______ _______ _____ _____    ______ ____
ROOT
ATOM      1  C   UNL A   1     -24.619  -2.653  28.876  0.00  0.00    +0.006 A 
ATOM      2  C   UNL A   1     -25.824  -2.739  29.503  0.00  0.00    +0.080 A 
ATOM      3  C   UNL A   1     -26.381  -3.977  29.807  0.00  0.00    +0.007 A 
ATOM      4  C   UNL A   1     -25.719  -5.181  29.438  0.00  0.00    +0.000 A 
ATOM      5  C   UNL A   1     -24.512  -5.092  28.850  0.00  0.00    +0.000 A 
ATOM      6  C   UNL A   1     -23.947  -3.876  28.566  0.00  0.00    +0.000 A 
ENDROOT
BRANCH   1   9
ATOM      7  C   UNL A   1     -23.852   0.657  27.464  0.00  0.00    +0.000 A 
ATOM      8  C   UNL A   1     -24.413  -0.396  27.656  0.00  0.00    +0.000 A 
ATOM      9  C   UNL A   1     -23.976  -1.346  28.579  0.00  0.00    +0.000 A 
ATOM     10  C   UNL A   1     -22.752  -1.102  29.317  0.00  0.00    +0.000 A 
ATOM     11  C   UNL A   1     -22.147   0.144  29.034  0.00  0.00    +0.000 A 
ATOM     12  C   UNL A   1     -22.630   0.971  28.142  0.00  0.00    +0.000 A 
ENDBRANCH   1   9
BRANCH   2  13
ATOM     13  C   UNL A   1     -26.614  -1.503  29.840  0.00  0.00    +0.388 C 
ATOM     14  O   UNL A   1     -27.534  -1.109  29.284  0.00  0.00    -0.241 OA
ATOM     15  O   UNL A   1     -26.352  -1.071  31.125  0.00  0.00    -0.241 OA
ENDBRANCH   2  13
TORSDOF 2
ENDMDL
ENDMDL
