MODEL 2199
MODEL 1
REMARK VINA RESULT:    -5.182      0.000      0.000
REMARK INTER + INTRA:          -5.990
REMARK INTER:                  -5.788
REMARK INTRA:                  -0.202
REMARK UNBOUND:                -0.202
REMARK  Name = No_2199-gen_results/8p0m/2024-11-26-14-13-15/
REMARK  2 active torsions:
REMARK  status: ('A' for Active; 'I' for Inactive)
REMARK    1  A    between atoms: C_3  and  C_7
REMARK    2  A    between atoms: C_7  and  C_8
REMARK                            x       y       z     vdW  Elec       q    Type
REMARK                         _______ _______ _______ _____ _____    ______ ____
ROOT
ATOM      1  C   UNL A   1     -24.731  -5.037  28.975  0.00  0.00    -0.000 A 
ATOM      2  C   UNL A   1     -24.070  -4.064  28.696  0.00  0.00    -0.004 A 
ATOM      3  C   UNL A   1     -24.454  -2.758  28.997  0.00  0.00    -0.014 A 
ATOM      4  C   UNL A   1     -25.739  -2.527  29.627  0.00  0.00    -0.004 A 
ATOM      5  C   UNL A   1     -26.478  -3.675  29.913  0.00  0.00    -0.000 A 
ATOM      6  C   UNL A   1     -26.042  -4.875  29.582  0.00  0.00    -0.000 A 
ENDROOT
BRANCH   3   7
ATOM      7  C   UNL A   1     -23.690  -1.513  28.693  0.00  0.00    +0.105 C 
BRANCH   7   8
ATOM      8  C   UNL A   1     -22.562  -1.178  29.364  0.00  0.00    +0.223 C 
ATOM      9  N   UNL A   1     -21.620  -0.976  29.037  0.00  0.00    -0.120 NA
ATOM     10  F   UNL A   1     -22.814  -1.025  30.760  0.00  0.00    -0.186 F 
ENDBRANCH   7   8
ENDBRANCH   3   7
TORSDOF 2
ENDMDL
ENDMDL
