MODEL 219
MODEL 1
REMARK VINA RESULT:    -6.173      0.000      0.000
REMARK INTER + INTRA:          -6.872
REMARK INTER:                  -6.534
REMARK INTRA:                  -0.338
REMARK UNBOUND:                -0.338
REMARK  Name = No_219-gen_results/8p0m/2024-11-26-14-13-15/
REMARK  1 active torsions:
REMARK  status: ('A' for Active; 'I' for Inactive)
REMARK    1  A    between atoms: C_3  and  C_8
REMARK                            x       y       z     vdW  Elec       q    Type
REMARK                         _______ _______ _______ _____ _____    ______ ____
ROOT
ATOM      1  C   UNL A   1     -28.830 -10.761  33.210  0.00  0.00    +0.042 A 
ATOM      2  C   UNL A   1     -29.298 -10.512  32.123  0.00  0.00    +0.003 A 
ATOM      3  C   UNL A   1     -28.966 -11.208  30.962  0.00  0.00    +0.000 A 
ATOM      4  C   UNL A   1     -27.963 -12.254  31.028  0.00  0.00    +0.003 A 
ATOM      5  C   UNL A   1     -27.455 -12.483  32.326  0.00  0.00    +0.042 A 
ATOM      6  C   UNL A   1     -27.824 -11.770  33.360  0.00  0.00    +0.196 A 
ATOM      7  O   UNL A   1     -27.227 -12.046  34.557  0.00  0.00    -0.287 OA
ENDROOT
BRANCH   3   8
ATOM      8  C   UNL A   1     -29.503 -10.958  29.584  0.00  0.00    +0.000 A 
ATOM      9  C   UNL A   1     -30.518 -10.066  29.353  0.00  0.00    +0.000 A 
ATOM     10  C   UNL A   1     -31.058  -9.924  28.034  0.00  0.00    +0.000 A 
ATOM     11  C   UNL A   1     -30.517 -10.675  26.940  0.00  0.00    +0.000 A 
ATOM     12  C   UNL A   1     -29.551 -11.584  27.227  0.00  0.00    +0.000 A 
ATOM     13  C   UNL A   1     -29.045 -11.736  28.491  0.00  0.00    +0.000 A 
ENDBRANCH   3   8
TORSDOF 1
ENDMDL
ENDMDL
