MODEL 21
MODEL 1
REMARK VINA RESULT:    -7.126      0.000      0.000
REMARK INTER + INTRA:          -9.197
REMARK INTER:                  -8.376
REMARK INTRA:                  -0.822
REMARK UNBOUND:                -0.822
REMARK  Name = No_21-gen_results/8p0m/2024-11-26-14-13-15/
REMARK  3 active torsions:
REMARK  status: ('A' for Active; 'I' for Inactive)
REMARK    1  A    between atoms: C_4  and  C_7
REMARK    2  A    between atoms: C_7  and  C_8
REMARK    3  A    between atoms: C_8  and  C_9
REMARK                            x       y       z     vdW  Elec       q    Type
REMARK                         _______ _______ _______ _____ _____    ______ ____
ROOT
ATOM      1  C   UNL A   1     -25.117  -0.934  29.668  0.00  0.00    +0.031 C 
ENDROOT
BRANCH   1   5
ATOM      2  C   UNL A   1     -23.961  -4.431  28.575  0.00  0.00    +0.029 A 
ATOM      3  C   UNL A   1     -24.821  -4.956  28.882  0.00  0.00    +0.140 A 
ATOM      4  C   UNL A   1     -23.980  -2.971  28.760  0.00  0.00    -0.002 A 
ATOM      5  C   UNL A   1     -25.056  -2.342  29.452  0.00  0.00    -0.022 A 
ATOM      6  C   UNL A   1     -26.025  -4.560  29.663  0.00  0.00    +0.029 A 
ATOM      7  C   UNL A   1     -26.082  -3.210  29.847  0.00  0.00    -0.002 A 
ATOM      8  F   UNL A   1     -24.796  -6.416  28.700  0.00  0.00    -0.204 F 
ENDBRANCH   1   5
BRANCH   1   9
ATOM      9  C   UNL A   1     -23.922  -0.332  30.084  0.00  0.00    +0.027 C 
ATOM     10  C   UNL A   1     -23.460  -0.730  31.434  0.00  0.00    +0.005 C 
BRANCH   9  11
ATOM     11  C   UNL A   1     -23.163   0.450  29.333  0.00  0.00    -0.022 A 
ATOM     12  C   UNL A   1     -23.590   1.181  28.244  0.00  0.00    -0.004 A 
ATOM     13  C   UNL A   1     -22.632   2.007  27.635  0.00  0.00    -0.000 A 
ATOM     14  C   UNL A   1     -21.320   1.484  27.363  0.00  0.00    -0.000 A 
ATOM     15  C   UNL A   1     -20.905   0.449  28.279  0.00  0.00    -0.000 A 
ATOM     16  C   UNL A   1     -21.781  -0.088  29.224  0.00  0.00    -0.004 A 
ENDBRANCH   9  11
ENDBRANCH   1   9
TORSDOF 3
ENDMDL
ENDMDL
