REMARK  Name = No_22-gen_results/8p0m/2024-11-26-14-13-15/
REMARK  0 active torsions:
REMARK  status: ('A' for Active; 'I' for Inactive)
REMARK                            x       y       z     vdW  Elec       q    Type
REMARK                         _______ _______ _______ _____ _____    ______ ____
ROOT
ATOM      1  C   UNL A   1     -28.016  -0.814  28.878  0.00  0.00    +0.003 A 
ATOM      2  C   UNL A   1     -27.064  -0.119  28.608  0.00  0.00    +0.035 A 
ATOM      3  C   UNL A   1     -25.765  -0.390  29.036  0.00  0.00    +0.195 C 
ATOM      4  C   UNL A   1     -24.552   0.406  28.765  0.00  0.00    +0.035 A 
ATOM      5  C   UNL A   1     -24.696   1.448  27.799  0.00  0.00    -0.015 A 
ATOM      6  C   UNL A   1     -23.582   2.217  27.463  0.00  0.00    -0.004 A 
ATOM      7  C   UNL A   1     -22.329   1.843  27.966  0.00  0.00    -0.000 A 
ATOM      8  C   UNL A   1     -22.181   0.828  28.881  0.00  0.00    +0.000 A 
ATOM      9  C   UNL A   1     -23.319   0.077  29.247  0.00  0.00    +0.003 A 
ATOM     10  C   UNL A   1     -29.344  -0.317  28.717  0.00  0.00    +0.000 A 
ATOM     11  C   UNL A   1     -29.512   0.774  27.878  0.00  0.00    -0.000 A 
ATOM     12  C   UNL A   1     -28.433   1.458  27.405  0.00  0.00    -0.004 A 
ATOM     13  C   UNL A   1     -27.146   1.121  27.782  0.00  0.00    -0.015 A 
ATOM     14  C   UNL A   1     -25.998   1.826  27.380  0.00  0.00    +0.045 C 
ATOM     15  O   UNL A   1     -25.536  -1.490  29.728  0.00  0.00    -0.287 OA
ATOM     16  C   UNL A   1     -26.125   3.039  26.545  0.00  0.00    +0.009 C 
ENDROOT
TORSDOF 0
