REMARK  Name = No_220-gen_results/8p0m/2024-11-26-14-13-15/
REMARK  1 active torsions:
REMARK  status: ('A' for Active; 'I' for Inactive)
REMARK    1  A    between atoms: C_3  and  C_7
REMARK                            x       y       z     vdW  Elec       q    Type
REMARK                         _______ _______ _______ _____ _____    ______ ____
ROOT
ATOM      1  C   UNL A   1     -28.016  -0.814  28.878  0.00  0.00    +0.015 A 
ATOM      2  C   UNL A   1     -28.469  -0.785  29.829  0.00  0.00    +0.060 A 
ATOM      3  C   UNL A   1     -27.136   0.236  28.535  0.00  0.00    +0.074 A 
ATOM      4  C   UNL A   1     -26.875   1.282  29.398  0.00  0.00    +0.034 A 
ATOM      5  C   UNL A   1     -28.361   0.199  30.924  0.00  0.00    +0.041 A 
ATOM      6  C   UNL A   1     -27.528   1.223  30.636  0.00  0.00    +0.141 A 
ATOM      7 CL   UNL A   1     -29.518  -2.178  30.372  0.00  0.00    -0.082 Cl
ATOM      8  F   UNL A   1     -27.345   2.219  31.488  0.00  0.00    -0.204 F 
ENDROOT
BRANCH   3   9
ATOM      9  C   UNL A   1     -26.399   0.295  27.228  0.00  0.00    +0.419 C 
ATOM     10  F   UNL A   1     -25.436  -0.307  27.269  0.00  0.00    -0.166 F 
ATOM     11  F   UNL A   1     -26.088   1.593  26.841  0.00  0.00    -0.166 F 
ATOM     12  F   UNL A   1     -27.253  -0.099  26.188  0.00  0.00    -0.166 F 
ENDBRANCH   3   9
TORSDOF 1
