REMARK  Name = No_2200-gen_results/8p0m/2024-11-26-14-13-15/
REMARK  1 active torsions:
REMARK  status: ('A' for Active; 'I' for Inactive)
REMARK    1  A    between atoms: C_2  and  C_7
REMARK                            x       y       z     vdW  Elec       q    Type
REMARK                         _______ _______ _______ _____ _____    ______ ____
ROOT
ATOM      1  C   UNL A   1     -28.016  -0.814  28.878  0.00  0.00    +0.000 A 
ATOM      2  C   UNL A   1     -27.064  -0.119  28.608  0.00  0.00    +0.000 A 
ATOM      3  C   UNL A   1     -25.792  -0.430  29.076  0.00  0.00    +0.000 A 
ATOM      4  C   UNL A   1     -25.576  -1.565  29.936  0.00  0.00    +0.000 A 
ATOM      5  C   UNL A   1     -26.535  -2.226  30.144  0.00  0.00    +0.000 A 
ATOM      6  C   UNL A   1     -27.823  -1.982  29.741  0.00  0.00    +0.000 A 
ENDROOT
BRANCH   2   7
ATOM      7  C   UNL A   1     -27.141   1.119  27.778  0.00  0.00    +0.000 A 
ATOM      8  C   UNL A   1     -26.826   2.249  28.026  0.00  0.00    +0.000 A 
ATOM      9  C   UNL A   1     -26.849   3.381  27.082  0.00  0.00    +0.000 A 
ATOM     10  C   UNL A   1     -27.297   3.102  25.785  0.00  0.00    +0.000 A 
ATOM     11  C   UNL A   1     -27.576   0.894  26.368  0.00  0.00    +0.000 A 
ATOM     12  C   UNL A   1     -27.640   1.856  25.474  0.00  0.00    +0.000 A 
ENDBRANCH   2   7
TORSDOF 1
