MODEL 2201
MODEL 1
REMARK VINA RESULT:    -5.724      0.000      0.000
REMARK INTER + INTRA:          -5.724
REMARK INTER:                  -5.724
REMARK INTRA:                   0.000
REMARK UNBOUND:                 0.000
REMARK  Name = No_2201-gen_results/8p0m/2024-11-26-14-13-15/
REMARK  0 active torsions:
REMARK  status: ('A' for Active; 'I' for Inactive)
REMARK                            x       y       z     vdW  Elec       q    Type
REMARK                         _______ _______ _______ _____ _____    ______ ____
ROOT
ATOM      1  C   UNL A   1     -24.172  -1.007  28.477  0.00  0.00    -0.004 A 
ATOM      2  C   UNL A   1     -24.008  -0.033  27.779  0.00  0.00    -0.018 A 
ATOM      3  C   UNL A   1     -22.877   0.716  27.775  0.00  0.00    -0.004 A 
ATOM      4  C   UNL A   1     -21.825   0.343  28.634  0.00  0.00    -0.000 A 
ATOM      5  C   UNL A   1     -23.104  -1.501  29.309  0.00  0.00    -0.000 A 
ATOM      6  C   UNL A   1     -21.957  -0.768  29.363  0.00  0.00    -0.000 A 
ATOM      7  C   UNL A   1     -25.061   0.458  26.795  0.00  0.00    +0.052 C 
ATOM      8  C   UNL A   1     -24.593   0.903  25.484  0.00  0.00    -0.021 C 
ATOM      9  C   UNL A   1     -23.650   1.917  25.499  0.00  0.00    -0.004 C 
ATOM     10  C   UNL A   1     -22.883   2.247  26.293  0.00  0.00    -0.000 C 
ATOM     11  C   UNL A   1     -22.328   1.825  27.020  0.00  0.00    -0.000 C 
ENDROOT
TORSDOF 0
ENDMDL
ENDMDL
