MODEL 2202
MODEL 1
REMARK VINA RESULT:    -7.342      0.000      0.000
REMARK INTER + INTRA:         -12.495
REMARK INTER:                 -10.346
REMARK INTRA:                  -2.149
REMARK UNBOUND:                -2.149
REMARK  Name = No_2202-gen_results/8p0m/2024-11-26-14-13-15/
REMARK  7 active torsions:
REMARK  status: ('A' for Active; 'I' for Inactive)
REMARK    1  A    between atoms: C_1  and  C_2
REMARK    2  A    between atoms: C_1  and  N_8
REMARK    3  A    between atoms: C_3  and  C_25
REMARK    4  A    between atoms: C_5  and  C_11
REMARK    5  A    between atoms: N_8  and  C_9
REMARK    6  A    between atoms: N_8  and  C_10
REMARK    7  A    between atoms: C_23  and  C_28
REMARK                            x       y       z     vdW  Elec       q    Type
REMARK                         _______ _______ _______ _____ _____    ______ ____
ROOT
ATOM      1  N   UNL A   1     -24.344  -1.725  29.534  0.00  0.00    -0.282 N 
ENDROOT
BRANCH   1   2
ATOM      2  C   UNL A   1     -24.548  -1.186  30.766  0.00  0.00    +0.052 A 
ATOM      3  C   UNL A   1     -25.637  -0.547  31.066  0.00  0.00    +0.021 A 
ATOM      4  C   UNL A   1     -23.563  -1.486  31.758  0.00  0.00    +0.015 A 
ATOM      5  C   UNL A   1     -23.729  -0.969  33.037  0.00  0.00    +0.002 A 
ATOM      6  C   UNL A   1     -25.848  -0.015  32.383  0.00  0.00    +0.081 A 
ATOM      7  C   UNL A   1     -24.911  -0.246  33.362  0.00  0.00    +0.007 A 
BRANCH   6   8
ATOM      8  C   UNL A   1     -27.125   0.707  32.689  0.00  0.00    +0.388 C 
ATOM      9  O   UNL A   1     -27.176   1.198  33.803  0.00  0.00    -0.241 OA
ATOM     10  O   UNL A   1     -28.161   0.390  31.984  0.00  0.00    -0.241 OA
ENDBRANCH   6   8
ENDBRANCH   1   2
BRANCH   1  11
ATOM     11  C   UNL A   1     -24.524  -3.100  29.324  0.00  0.00    +0.052 A 
ATOM     12  C   UNL A   1     -23.906  -3.814  28.768  0.00  0.00    +0.015 A 
ATOM     13  C   UNL A   1     -23.914  -4.839  28.411  0.00  0.00    +0.001 A 
ATOM     14  C   UNL A   1     -25.039  -5.628  28.874  0.00  0.00    +0.000 A 
ATOM     15  C   UNL A   1     -25.839  -3.613  29.693  0.00  0.00    +0.015 A 
ATOM     16  C   UNL A   1     -26.022  -4.930  29.517  0.00  0.00    +0.001 A 
ENDBRANCH   1  11
BRANCH   1  17
ATOM     17  C   UNL A   1     -23.729  -1.001  28.536  0.00  0.00    +0.122 C 
BRANCH  17  18
ATOM     18  C   UNL A   1     -24.475  -0.307  27.884  0.00  0.00    +0.004 A 
ATOM     19  C   UNL A   1     -24.362   1.079  27.898  0.00  0.00    +0.077 A 
ATOM     20  C   UNL A   1     -25.223   2.040  27.151  0.00  0.00    +0.010 A 
ATOM     21  C   UNL A   1     -26.141   1.464  26.224  0.00  0.00    +0.072 A 
ATOM     22  C   UNL A   1     -26.198   0.057  26.182  0.00  0.00    +0.004 A 
ATOM     23  C   UNL A   1     -25.430  -0.757  26.921  0.00  0.00    -0.003 A 
BRANCH  21  24
ATOM     24  C   UNL A   1     -26.972   2.380  25.489  0.00  0.00    +0.419 C 
ATOM     25  F   UNL A   1     -27.935   2.822  25.942  0.00  0.00    -0.166 F 
ATOM     26  F   UNL A   1     -27.223   1.904  24.253  0.00  0.00    -0.166 F 
ATOM     27  F   UNL A   1     -26.146   3.538  25.229  0.00  0.00    -0.166 F 
ENDBRANCH  21  24
BRANCH  19  28
ATOM     28  C   UNL A   1     -23.388   1.848  28.753  0.00  0.00    +0.388 C 
ATOM     29  O   UNL A   1     -22.422   2.340  28.183  0.00  0.00    -0.241 OA
ATOM     30  O   UNL A   1     -23.625   2.168  29.921  0.00  0.00    -0.241 OA
ENDBRANCH  19  28
ENDBRANCH  17  18
ENDBRANCH   1  17
TORSDOF 7
ENDMDL
ENDMDL
