REMARK  Name = No_2202-gen_results/8p0m/2024-11-26-14-13-15/
REMARK  7 active torsions:
REMARK  status: ('A' for Active; 'I' for Inactive)
REMARK    1  A    between atoms: C_1  and  C_2
REMARK    2  A    between atoms: C_1  and  N_8
REMARK    3  A    between atoms: C_3  and  C_25
REMARK    4  A    between atoms: C_5  and  C_11
REMARK    5  A    between atoms: N_8  and  C_9
REMARK    6  A    between atoms: N_8  and  C_10
REMARK    7  A    between atoms: C_23  and  C_28
REMARK                            x       y       z     vdW  Elec       q    Type
REMARK                         _______ _______ _______ _____ _____    ______ ____
ROOT
ATOM      1  N   UNL A   1     -29.180  -0.120  29.129  0.00  0.00    -0.282 N 
ENDROOT
BRANCH   1   2
ATOM      2  C   UNL A   1     -29.584   0.132  30.404  0.00  0.00    +0.052 A 
ATOM      3  C   UNL A   1     -29.202  -0.601  31.404  0.00  0.00    +0.021 A 
ATOM      4  C   UNL A   1     -30.334   1.333  30.603  0.00  0.00    +0.015 A 
ATOM      5  C   UNL A   1     -30.762   1.643  31.888  0.00  0.00    +0.002 A 
ATOM      6  C   UNL A   1     -29.612  -0.298  32.747  0.00  0.00    +0.081 A 
ATOM      7  C   UNL A   1     -30.365   0.827  32.985  0.00  0.00    +0.007 A 
BRANCH   6   8
ATOM      8  C   UNL A   1     -29.138  -1.165  33.874  0.00  0.00    +0.388 C 
ATOM      9  O   UNL A   1     -29.814  -1.096  34.886  0.00  0.00    -0.241 OA
ATOM     10  O   UNL A   1     -27.901  -1.537  33.847  0.00  0.00    -0.241 OA
ENDBRANCH   6   8
ENDBRANCH   1   2
BRANCH   1  11
ATOM     11  C   UNL A   1     -30.054   0.097  28.054  0.00  0.00    +0.052 A 
ATOM     12  C   UNL A   1     -30.062   0.896  27.304  0.00  0.00    +0.015 A 
ATOM     13  C   UNL A   1     -30.672   1.292  26.498  0.00  0.00    +0.001 A 
ATOM     14  C   UNL A   1     -31.831   0.485  26.170  0.00  0.00    +0.000 A 
ATOM     15  C   UNL A   1     -31.265  -0.715  28.070  0.00  0.00    +0.015 A 
ATOM     16  C   UNL A   1     -32.103  -0.534  27.039  0.00  0.00    +0.001 A 
ENDBRANCH   1  11
BRANCH   1  17
ATOM     17  C   UNL A   1     -28.016  -0.814  28.878  0.00  0.00    +0.122 C 
BRANCH  17  18
ATOM     18  C   UNL A   1     -27.064  -0.119  28.608  0.00  0.00    +0.004 A 
ATOM     19  C   UNL A   1     -25.792  -0.430  29.076  0.00  0.00    +0.077 A 
ATOM     20  C   UNL A   1     -24.546   0.349  28.823  0.00  0.00    +0.010 A 
ATOM     21  C   UNL A   1     -24.659   1.420  27.888  0.00  0.00    +0.072 A 
ATOM     22  C   UNL A   1     -25.947   1.681  27.379  0.00  0.00    +0.004 A 
ATOM     23  C   UNL A   1     -27.044   0.974  27.687  0.00  0.00    -0.003 A 
BRANCH  21  24
ATOM     24  C   UNL A   1     -23.462   2.174  27.627  0.00  0.00    +0.419 C 
ATOM     25  F   UNL A   1     -22.496   2.005  28.232  0.00  0.00    -0.166 F 
ATOM     26  F   UNL A   1     -23.738   3.492  27.562  0.00  0.00    -0.166 F 
ATOM     27  F   UNL A   1     -23.084   1.854  26.269  0.00  0.00    -0.166 F 
ENDBRANCH  21  24
BRANCH  19  28
ATOM     28  C   UNL A   1     -25.480  -1.577  30.002  0.00  0.00    +0.388 C 
ATOM     29  O   UNL A   1     -25.876  -2.685  29.660  0.00  0.00    -0.241 OA
ATOM     30  O   UNL A   1     -24.692  -1.485  30.947  0.00  0.00    -0.241 OA
ENDBRANCH  19  28
ENDBRANCH  17  18
ENDBRANCH   1  17
TORSDOF 7
