REMARK  Name = No_2203-gen_results/8p0m/2024-11-26-14-13-15/
REMARK  2 active torsions:
REMARK  status: ('A' for Active; 'I' for Inactive)
REMARK    1  A    between atoms: C_3  and  C_4
REMARK    2  A    between atoms: C_6  and  C_13
REMARK                            x       y       z     vdW  Elec       q    Type
REMARK                         _______ _______ _______ _____ _____    ______ ____
ROOT
ATOM      1  C   UNL A   1     -28.016  -0.814  28.878  0.00  0.00    +0.004 A 
ATOM      2  C   UNL A   1     -27.064  -0.119  28.608  0.00  0.00    +0.000 A 
ATOM      3  C   UNL A   1     -25.792  -0.430  29.076  0.00  0.00    +0.000 A 
ATOM      4  C   UNL A   1     -27.882  -1.899  29.863  0.00  0.00    +0.054 A 
ATOM      5  C   UNL A   1     -26.653  -2.314  30.314  0.00  0.00    +0.004 A 
ATOM      6  C   UNL A   1     -25.515  -1.561  29.979  0.00  0.00    +0.000 A 
ENDROOT
BRANCH   4   7
ATOM      7  C   UNL A   1     -29.044  -2.731  30.297  0.00  0.00    +0.250 C 
ATOM      8  N   UNL A   1     -29.364  -2.596  31.441  0.00  0.00    -0.264 N 
ATOM      9  C   UNL A   1     -29.473  -1.520  32.040  0.00  0.00    +0.095 C 
ATOM     10  C   UNL A   1     -29.824  -1.535  33.501  0.00  0.00    +0.022 C 
ATOM     11  C   UNL A   1     -29.756  -3.851  32.282  0.00  0.00    +0.156 C 
ATOM     12  C   UNL A   1     -30.215  -2.743  33.959  0.00  0.00    +0.005 C 
ATOM     13  C   UNL A   1     -30.089  -3.872  33.514  0.00  0.00    +0.037 C 
ATOM     14 CL   UNL A   1     -29.557  -5.306  31.366  0.00  0.00    -0.093 Cl
ATOM     15  O   UNL A   1     -29.668  -3.352  29.464  0.00  0.00    -0.270 OA
ENDBRANCH   4   7
BRANCH   3  16
ATOM     16  C   UNL A   1     -24.546   0.349  28.823  0.00  0.00    +0.000 A 
ATOM     17  C   UNL A   1     -23.241   0.022  29.332  0.00  0.00    +0.000 A 
ATOM     18  C   UNL A   1     -22.165   0.794  28.952  0.00  0.00    +0.000 A 
ATOM     19  C   UNL A   1     -22.124   1.748  27.989  0.00  0.00    +0.000 A 
ATOM     20  C   UNL A   1     -24.523   1.378  27.795  0.00  0.00    +0.000 A 
ATOM     21  C   UNL A   1     -23.339   2.042  27.430  0.00  0.00    +0.000 A 
ENDBRANCH   3  16
TORSDOF 2
