MODEL 2203
MODEL 1
REMARK VINA RESULT:    -6.711      0.000      0.000
REMARK INTER + INTRA:          -8.029
REMARK INTER:                  -7.496
REMARK INTRA:                  -0.533
REMARK UNBOUND:                -0.533
REMARK  Name = No_2203-gen_results/8p0m/2024-11-26-14-13-15/
REMARK  2 active torsions:
REMARK  status: ('A' for Active; 'I' for Inactive)
REMARK    1  A    between atoms: C_3  and  C_4
REMARK    2  A    between atoms: C_6  and  C_13
REMARK                            x       y       z     vdW  Elec       q    Type
REMARK                         _______ _______ _______ _____ _____    ______ ____
ROOT
ATOM      1  C   UNL A   1     -25.076  -0.015  25.213  0.00  0.00    +0.004 A 
ATOM      2  C   UNL A   1     -26.038   0.084  24.487  0.00  0.00    +0.000 A 
ATOM      3  C   UNL A   1     -27.219   0.665  24.936  0.00  0.00    +0.000 A 
ATOM      4  C   UNL A   1     -25.195   0.307  26.644  0.00  0.00    +0.054 A 
ATOM      5  C   UNL A   1     -26.299   0.950  27.148  0.00  0.00    +0.004 A 
ATOM      6  C   UNL A   1     -27.419   1.130  26.320  0.00  0.00    +0.000 A 
ENDROOT
BRANCH   4   7
ATOM      7  C   UNL A   1     -24.064   0.120  27.601  0.00  0.00    +0.250 C 
ATOM      8  N   UNL A   1     -24.206  -0.771  28.386  0.00  0.00    -0.264 N 
ATOM      9  C   UNL A   1     -24.621  -1.906  28.124  0.00  0.00    +0.095 C 
ATOM     10  C   UNL A   1     -24.800  -2.889  29.246  0.00  0.00    +0.022 C 
ATOM     11  C   UNL A   1     -23.780  -0.561  29.873  0.00  0.00    +0.156 C 
ATOM     12  C   UNL A   1     -24.259  -2.491  30.417  0.00  0.00    +0.005 C 
ATOM     13  C   UNL A   1     -23.896  -1.400  30.827  0.00  0.00    +0.037 C 
ATOM     14 CL   UNL A   1     -23.228   1.057  30.143  0.00  0.00    -0.093 Cl
ATOM     15  O   UNL A   1     -23.043   0.753  27.437  0.00  0.00    -0.270 OA
ENDBRANCH   4   7
BRANCH   3  16
ATOM     16  C   UNL A   1     -28.472   0.835  24.145  0.00  0.00    +0.000 A 
ATOM     17  C   UNL A   1     -29.496  -0.162  23.981  0.00  0.00    +0.000 A 
ATOM     18  C   UNL A   1     -30.637   0.164  23.283  0.00  0.00    +0.000 A 
ATOM     19  C   UNL A   1     -31.033   1.390  22.861  0.00  0.00    +0.000 A 
ATOM     20  C   UNL A   1     -28.875   2.156  23.689  0.00  0.00    +0.000 A 
ATOM     21  C   UNL A   1     -30.112   2.383  23.060  0.00  0.00    +0.000 A 
ENDBRANCH   3  16
TORSDOF 2
ENDMDL
ENDMDL
