MODEL 2204
MODEL 1
REMARK VINA RESULT:    -6.457      0.000      0.000
REMARK INTER + INTRA:         -10.660
REMARK INTER:                  -9.099
REMARK INTRA:                  -1.561
REMARK UNBOUND:                -1.561
REMARK  Name = No_2204-gen_results/8p0m/2024-11-26-14-13-15/
REMARK  7 active torsions:
REMARK  status: ('A' for Active; 'I' for Inactive)
REMARK    1  A    between atoms: C_2  and  O_7
REMARK    2  A    between atoms: O_7  and  C_8
REMARK    3  A    between atoms: C_9  and  O_15
REMARK    4  A    between atoms: O_15  and  C_16
REMARK    5  A    between atoms: N_19  and  C_25
REMARK    6  A    between atoms: C_20  and  C_21
REMARK    7  A    between atoms: N_22  and  C_24
REMARK                            x       y       z     vdW  Elec       q    Type
REMARK                         _______ _______ _______ _____ _____    ______ ____
ROOT
ATOM      1  C   UNL A   1     -28.757 -14.342   8.578  0.00  0.00    +0.221 C 
ATOM      2  C   UNL A   1     -28.985 -15.651   8.539  0.00  0.00    +0.212 C 
ATOM      3 CL   UNL A   1     -30.396 -16.143   8.619  0.00  0.00    -0.087 Cl
ATOM      4  N   UNL A   1     -28.200 -16.323   7.477  0.00  0.00    -0.218 N 
ATOM      5  C   UNL A   1     -28.215 -13.775   7.217  0.00  0.00    +0.135 C 
ATOM      6  N   UNL A   1     -27.424 -14.889   6.936  0.00  0.00    -0.231 N 
ENDROOT
BRANCH   6   7
ATOM      7  C   UNL A   1     -26.027 -14.932   7.331  0.00  0.00    +0.105 C 
ATOM      8  C   UNL A   1     -25.025 -15.037   6.382  0.00  0.00    +0.134 C 
ATOM      9  C   UNL A   1     -23.730 -14.540   6.701  0.00  0.00    +0.065 C 
ATOM     10  F   UNL A   1     -25.376 -13.945   5.851  0.00  0.00    -0.207 F 
ENDBRANCH   6   7
BRANCH   4  11
ATOM     11  C   UNL A   1     -27.260 -17.305   7.739  0.00  0.00    +0.095 C 
ATOM     12  C   UNL A   1     -27.246 -18.297   8.651  0.00  0.00    +0.083 C 
ATOM     13  N   UNL A   1     -26.010 -18.466   9.307  0.00  0.00    -0.131 NA
ATOM     14  C   UNL A   1     -27.536 -19.666   7.702  0.00  0.00    +0.052 C 
ENDBRANCH   4  11
BRANCH   5  15
ATOM     15  C   UNL A   1     -27.993 -12.481   7.122  0.00  0.00    +0.025 C 
ATOM     16  C   UNL A   1     -29.016 -11.856   6.131  0.00  0.00    +0.002 C 
ENDBRANCH   5  15
BRANCH   1  17
ATOM     17  O   UNL A   1     -29.796 -13.613   9.002  0.00  0.00    -0.471 OA
BRANCH  17  19
ATOM     18  C   UNL A   1     -29.966 -11.797  10.383  0.00  0.00    +0.179 A 
ATOM     19  C   UNL A   1     -29.862 -13.098  10.268  0.00  0.00    +0.173 A 
ATOM     20  C   UNL A   1     -30.012 -14.039  11.283  0.00  0.00    +0.040 A 
ATOM     21  C   UNL A   1     -30.089 -13.511  12.596  0.00  0.00    +0.003 A 
ATOM     22  C   UNL A   1     -30.210 -12.178  12.819  0.00  0.00    +0.003 A 
ATOM     23  C   UNL A   1     -30.240 -11.285  11.723  0.00  0.00    +0.041 A 
BRANCH  18  24
ATOM     24  O   UNL A   1     -30.152 -10.970   9.417  0.00  0.00    -0.450 OA
BRANCH  24  26
ATOM     25  C   UNL A   1     -29.946  -8.833   9.346  0.00  0.00    +0.049 A 
ATOM     26  C   UNL A   1     -29.385  -9.716   9.465  0.00  0.00    +0.146 A 
ATOM     27  C   UNL A   1     -29.152  -7.546   9.398  0.00  0.00    +0.061 A 
ATOM     28  C   UNL A   1     -27.744  -7.605   9.453  0.00  0.00    +0.012 A 
ATOM     29  C   UNL A   1     -27.943 -10.050   9.504  0.00  0.00    +0.037 A 
ATOM     30  C   UNL A   1     -27.180  -8.891   9.547  0.00  0.00    +0.004 A 
ATOM     31 CL   UNL A   1     -29.828  -5.958   9.352  0.00  0.00    -0.082 Cl
ENDBRANCH  24  26
ENDBRANCH  18  24
ENDBRANCH  17  19
ENDBRANCH   1  17
TORSDOF 7
ENDMDL
ENDMDL
