MODEL 2205
MODEL 1
REMARK VINA RESULT:    -6.894      0.000      0.000
REMARK INTER + INTRA:          -8.906
REMARK INTER:                  -8.506
REMARK INTRA:                  -0.401
REMARK UNBOUND:                -0.401
REMARK  Name = No_2205-gen_results/8p0m/2024-11-26-14-13-15/
REMARK  4 active torsions:
REMARK  status: ('A' for Active; 'I' for Inactive)
REMARK    1  A    between atoms: C_1  and  C_2
REMARK    2  A    between atoms: C_5  and  C_10
REMARK    3  A    between atoms: C_9  and  C_14
REMARK    4  A    between atoms: N_16  and  C_17
REMARK                            x       y       z     vdW  Elec       q    Type
REMARK                         _______ _______ _______ _____ _____    ______ ____
ROOT
ATOM      1  C   UNL A   1     -19.366 -20.665   5.549  0.00  0.00    +0.272 C 
ATOM      2  N   UNL A   1     -19.676 -19.323   5.611  0.00  0.00    -0.133 NA
ATOM      3  C   UNL A   1     -20.816 -18.886   5.010  0.00  0.00    +0.327 C 
ATOM      4  O   UNL A   1     -20.257 -21.417   5.081  0.00  0.00    -0.268 OA
ATOM      5  O   UNL A   1     -21.143 -19.328   3.926  0.00  0.00    -0.263 OA
ENDROOT
BRANCH   1   6
ATOM      6  C   UNL A   1     -18.519 -21.022   6.335  0.00  0.00    +0.056 A 
ATOM      7  C   UNL A   1     -18.854 -21.390   7.634  0.00  0.00    +0.005 A 
ATOM      8  C   UNL A   1     -17.906 -21.836   8.695  0.00  0.00    +0.005 A 
ATOM      9  C   UNL A   1     -16.558 -22.046   8.278  0.00  0.00    +0.057 A 
ATOM     10  C   UNL A   1     -16.252 -21.723   6.941  0.00  0.00    +0.005 A 
ATOM     11  C   UNL A   1     -17.143 -21.274   6.044  0.00  0.00    +0.005 A 
BRANCH   9  12
ATOM     12  C   UNL A   1     -15.641 -22.515   9.293  0.00  0.00    +0.284 C 
ATOM     13  N   UNL A   1     -16.041 -22.666  10.482  0.00  0.00    -0.084 NA
ATOM     14  O   UNL A   1     -14.325 -22.377   9.188  0.00  0.00    -0.267 OA
ENDBRANCH   9  12
ENDBRANCH   1   6
BRANCH   3  15
ATOM     15  C   UNL A   1     -21.505 -17.766   5.600  0.00  0.00    +0.325 C 
ATOM     16  O   UNL A   1     -21.395 -17.622   6.747  0.00  0.00    -0.263 OA
ATOM     17  N   UNL A   1     -22.178 -16.940   4.758  0.00  0.00    -0.172 NA
BRANCH  17  18
ATOM     18  C   UNL A   1     -22.844 -15.731   5.329  0.00  0.00    +0.074 A 
ATOM     19  C   UNL A   1     -22.325 -14.716   5.144  0.00  0.00    +0.017 A 
ATOM     20  C   UNL A   1     -23.002 -13.478   5.572  0.00  0.00    +0.001 A 
ATOM     21  C   UNL A   1     -24.233 -13.591   6.283  0.00  0.00    +0.000 A 
ATOM     22  C   UNL A   1     -24.727 -14.891   6.453  0.00  0.00    +0.001 A 
ATOM     23  C   UNL A   1     -24.123 -15.956   5.977  0.00  0.00    +0.017 A 
ENDBRANCH  17  18
ENDBRANCH   3  15
TORSDOF 4
ENDMDL
ENDMDL
