REMARK  Name = No_2205-gen_results/8p0m/2024-11-26-14-13-15/
REMARK  4 active torsions:
REMARK  status: ('A' for Active; 'I' for Inactive)
REMARK    1  A    between atoms: C_1  and  C_2
REMARK    2  A    between atoms: C_5  and  C_10
REMARK    3  A    between atoms: C_9  and  C_14
REMARK    4  A    between atoms: N_16  and  C_17
REMARK                            x       y       z     vdW  Elec       q    Type
REMARK                         _______ _______ _______ _____ _____    ______ ____
ROOT
ATOM      1  C   UNL A   1     -28.016  -0.814  28.878  0.00  0.00    +0.272 C 
ATOM      2  N   UNL A   1     -29.180  -0.120  29.129  0.00  0.00    -0.133 NA
ATOM      3  C   UNL A   1     -30.209  -0.765  29.743  0.00  0.00    +0.327 C 
ATOM      4  O   UNL A   1     -27.932  -1.957  29.393  0.00  0.00    -0.268 OA
ATOM      5  O   UNL A   1     -30.478  -1.911  29.440  0.00  0.00    -0.263 OA
ENDROOT
BRANCH   1   6
ATOM      6  C   UNL A   1     -27.064  -0.119  28.608  0.00  0.00    +0.056 A 
ATOM      7  C   UNL A   1     -25.792  -0.430  29.076  0.00  0.00    +0.005 A 
ATOM      8  C   UNL A   1     -24.546   0.349  28.823  0.00  0.00    +0.005 A 
ATOM      9  C   UNL A   1     -24.659   1.420  27.888  0.00  0.00    +0.057 A 
ATOM     10  C   UNL A   1     -25.947   1.681  27.379  0.00  0.00    +0.005 A 
ATOM     11  C   UNL A   1     -27.044   0.974  27.687  0.00  0.00    +0.005 A 
BRANCH   9  12
ATOM     12  C   UNL A   1     -23.446   2.155  27.609  0.00  0.00    +0.284 C 
ATOM     13  N   UNL A   1     -23.471   3.132  26.809  0.00  0.00    -0.084 NA
ATOM     14  O   UNL A   1     -22.237   1.629  27.768  0.00  0.00    -0.267 OA
ENDBRANCH   9  12
ENDBRANCH   1   6
BRANCH   3  15
ATOM     15  C   UNL A   1     -31.070   0.002  30.606  0.00  0.00    +0.325 C 
ATOM     16  O   UNL A   1     -30.649   1.002  31.021  0.00  0.00    -0.263 OA
ATOM     17  N   UNL A   1     -32.323  -0.477  30.816  0.00  0.00    -0.172 NA
BRANCH  17  18
ATOM     18  C   UNL A   1     -33.264   0.330  31.649  0.00  0.00    +0.074 A 
ATOM     19  C   UNL A   1     -34.350  -0.055  31.727  0.00  0.00    +0.017 A 
ATOM     20  C   UNL A   1     -35.288   0.628  32.637  0.00  0.00    +0.001 A 
ATOM     21  C   UNL A   1     -34.839   1.798  33.317  0.00  0.00    +0.000 A 
ATOM     22  C   UNL A   1     -33.502   2.158  33.104  0.00  0.00    +0.001 A 
ATOM     23  C   UNL A   1     -32.684   1.464  32.346  0.00  0.00    +0.017 A 
ENDBRANCH  17  18
ENDBRANCH   3  15
TORSDOF 4
