MODEL 2206
MODEL 1
REMARK VINA RESULT:    -6.400      0.000      0.000
REMARK INTER + INTRA:          -6.980
REMARK INTER:                  -6.774
REMARK INTRA:                  -0.206
REMARK UNBOUND:                -0.206
REMARK  Name = No_2206-gen_results/8p0m/2024-11-26-14-13-15/
REMARK  1 active torsions:
REMARK  status: ('A' for Active; 'I' for Inactive)
REMARK    1  A    between atoms: C_3  and  C_7
REMARK                            x       y       z     vdW  Elec       q    Type
REMARK                         _______ _______ _______ _____ _____    ______ ____
ROOT
ATOM      1  C   UNL A   1     -23.897  -1.365  28.659  0.00  0.00    +0.058 A 
ATOM      2  C   UNL A   1     -24.350  -0.449  27.769  0.00  0.00    +0.279 A 
ATOM      3  N   UNL A   1     -23.567   0.611  27.536  0.00  0.00    -0.206 NA
ATOM      4  O   UNL A   1     -25.433  -0.596  27.089  0.00  0.00    -0.265 OA
ATOM      5  C   UNL A   1     -22.356   0.953  28.185  0.00  0.00    +0.102 A 
ATOM      6  C   UNL A   1     -22.613  -1.106  29.299  0.00  0.00    +0.006 A 
ATOM      7  C   UNL A   1     -21.949   0.011  29.000  0.00  0.00    +0.021 A 
ENDROOT
BRANCH   1  10
ATOM      8  C   UNL A   1     -26.465  -3.721  29.855  0.00  0.00    +0.000 A 
ATOM      9  C   UNL A   1     -25.891  -2.681  29.630  0.00  0.00    +0.000 A 
ATOM     10  C   UNL A   1     -24.660  -2.606  28.978  0.00  0.00    +0.005 A 
ATOM     11  C   UNL A   1     -23.988  -3.832  28.594  0.00  0.00    +0.000 A 
ATOM     12  C   UNL A   1     -24.677  -5.007  28.891  0.00  0.00    +0.000 A 
ATOM     13  C   UNL A   1     -25.835  -4.987  29.521  0.00  0.00    +0.000 A 
ENDBRANCH   1  10
TORSDOF 1
ENDMDL
ENDMDL
