REMARK  Name = No_2206-gen_results/8p0m/2024-11-26-14-13-15/
REMARK  1 active torsions:
REMARK  status: ('A' for Active; 'I' for Inactive)
REMARK    1  A    between atoms: C_3  and  C_7
REMARK                            x       y       z     vdW  Elec       q    Type
REMARK                         _______ _______ _______ _____ _____    ______ ____
ROOT
ATOM      1  C   UNL A   1     -24.544   0.413  28.738  0.00  0.00    +0.058 A 
ATOM      2  C   UNL A   1     -24.095   1.379  29.575  0.00  0.00    +0.279 A 
ATOM      3  N   UNL A   1     -23.008   2.059  29.191  0.00  0.00    -0.206 NA
ATOM      4  O   UNL A   1     -24.706   1.723  30.654  0.00  0.00    -0.265 OA
ATOM      5  C   UNL A   1     -22.197   1.825  28.054  0.00  0.00    +0.102 A 
ATOM      6  C   UNL A   1     -23.795   0.183  27.509  0.00  0.00    +0.006 A 
ATOM      7  C   UNL A   1     -22.705   0.911  27.264  0.00  0.00    +0.021 A 
ENDROOT
BRANCH   1  10
ATOM      8  C   UNL A   1     -28.016  -0.814  28.878  0.00  0.00    +0.000 A 
ATOM      9  C   UNL A   1     -27.064  -0.119  28.608  0.00  0.00    +0.000 A 
ATOM     10  C   UNL A   1     -25.765  -0.390  29.036  0.00  0.00    +0.005 A 
ATOM     11  C   UNL A   1     -25.530  -1.530  29.901  0.00  0.00    +0.000 A 
ATOM     12  C   UNL A   1     -26.658  -2.292  30.203  0.00  0.00    +0.000 A 
ATOM     13  C   UNL A   1     -27.855  -1.956  29.763  0.00  0.00    +0.000 A 
ENDBRANCH   1  10
TORSDOF 1
