MODEL 2207
MODEL 1
REMARK VINA RESULT:    -5.429      0.000      0.000
REMARK INTER + INTRA:          -6.648
REMARK INTER:                  -6.381
REMARK INTRA:                  -0.267
REMARK UNBOUND:                -0.267
REMARK  Name = No_2207-gen_results/8p0m/2024-11-26-14-13-15/
REMARK  3 active torsions:
REMARK  status: ('A' for Active; 'I' for Inactive)
REMARK    1  A    between atoms: C_2  and  C_3
REMARK    2  A    between atoms: C_3  and  C_5
REMARK    3  A    between atoms: C_5  and  C_6
REMARK                            x       y       z     vdW  Elec       q    Type
REMARK                         _______ _______ _______ _____ _____    ______ ____
ROOT
ATOM      1  C   UNL A   1     -24.498  -1.117  29.542  0.00  0.00    +0.036 C 
ENDROOT
BRANCH   1   2
ATOM      2  C   UNL A   1     -24.479  -2.501  29.392  0.00  0.00    -0.022 A 
ATOM      3  C   UNL A   1     -23.807  -3.224  28.859  0.00  0.00    -0.004 A 
ATOM      4  C   UNL A   1     -24.036  -4.701  28.541  0.00  0.00    -0.000 A 
ATOM      5  C   UNL A   1     -25.244  -5.190  29.056  0.00  0.00    -0.000 A 
ATOM      6  C   UNL A   1     -26.140  -4.395  29.703  0.00  0.00    -0.000 A 
ATOM      7  C   UNL A   1     -25.848  -3.089  29.818  0.00  0.00    -0.004 A 
ENDBRANCH   1   2
BRANCH   1   8
ATOM      8  C   UNL A   1     -23.232  -0.545  29.960  0.00  0.00    +0.091 C 
BRANCH   8  10
ATOM      9  O   UNL A   1     -23.157   1.485  30.087  0.00  0.00    -0.273 OA
ATOM     10  C   UNL A   1     -23.000   0.426  29.674  0.00  0.00    +0.242 C 
ATOM     11  N   UNL A   1     -22.524   0.518  28.203  0.00  0.00    -0.203 NA
ATOM     12  C   UNL A   1     -22.209   1.784  27.571  0.00  0.00    +0.139 C 
ENDBRANCH   8  10
ENDBRANCH   1   8
TORSDOF 3
ENDMDL
ENDMDL
