REMARK  Name = No_2207-gen_results/8p0m/2024-11-26-14-13-15/
REMARK  3 active torsions:
REMARK  status: ('A' for Active; 'I' for Inactive)
REMARK    1  A    between atoms: C_2  and  C_3
REMARK    2  A    between atoms: C_3  and  C_5
REMARK    3  A    between atoms: C_5  and  C_6
REMARK                            x       y       z     vdW  Elec       q    Type
REMARK                         _______ _______ _______ _____ _____    ______ ____
ROOT
ATOM      1  C   UNL A   1     -27.582   1.265  28.148  0.00  0.00    +0.036 C 
ENDROOT
BRANCH   1   2
ATOM      2  C   UNL A   1     -26.274   1.047  28.573  0.00  0.00    -0.022 A 
ATOM      3  C   UNL A   1     -25.400   1.714  28.799  0.00  0.00    -0.004 A 
ATOM      4  C   UNL A   1     -23.931   1.345  29.002  0.00  0.00    -0.000 A 
ATOM      5  C   UNL A   1     -23.701  -0.036  28.944  0.00  0.00    -0.000 A 
ATOM      6  C   UNL A   1     -24.686  -0.931  28.659  0.00  0.00    -0.000 A 
ATOM      7  C   UNL A   1     -25.913  -0.450  28.401  0.00  0.00    -0.004 A 
ENDBRANCH   1   2
BRANCH   1   8
ATOM      8  C   UNL A   1     -28.589   0.592  28.946  0.00  0.00    +0.091 C 
BRANCH   8  10
ATOM      9  O   UNL A   1     -28.123  -1.335  28.487  0.00  0.00    -0.273 OA
ATOM     10  C   UNL A   1     -28.521  -0.436  29.078  0.00  0.00    +0.242 C 
ATOM     11  N   UNL A   1     -29.375  -0.943  30.266  0.00  0.00    -0.203 NA
ATOM     12  C   UNL A   1     -29.481  -2.352  30.595  0.00  0.00    +0.139 C 
ENDBRANCH   8  10
ENDBRANCH   1   8
TORSDOF 3
