MODEL 2208
MODEL 1
REMARK VINA RESULT:    -6.789      0.000      0.000
REMARK INTER + INTRA:          -9.155
REMARK INTER:                  -8.376
REMARK INTRA:                  -0.779
REMARK UNBOUND:                -0.779
REMARK  Name = No_2208-gen_results/8p0m/2024-11-26-14-13-15/
REMARK  4 active torsions:
REMARK  status: ('A' for Active; 'I' for Inactive)
REMARK    1  A    between atoms: C_4  and  C_8
REMARK    2  A    between atoms: C_8  and  C_9
REMARK    3  A    between atoms: C_9  and  C_10
REMARK    4  A    between atoms: C_9  and  C_16
REMARK                            x       y       z     vdW  Elec       q    Type
REMARK                         _______ _______ _______ _____ _____    ______ ____
ROOT
ATOM      1  C   UNL A   1     -23.636  -1.561  29.908  0.00  0.00    +0.060 C 
ENDROOT
BRANCH   1   2
ATOM      2  C   UNL A   1     -24.449  -2.690  29.712  0.00  0.00    -0.019 A 
ATOM      3  C   UNL A   1     -23.896  -3.745  29.131  0.00  0.00    -0.004 A 
ATOM      4  C   UNL A   1     -25.767  -2.641  30.135  0.00  0.00    +0.007 A 
ATOM      5  C   UNL A   1     -26.540  -3.859  30.004  0.00  0.00    +0.057 A 
ATOM      6  C   UNL A   1     -24.668  -4.937  28.842  0.00  0.00    +0.001 A 
ATOM      7  C   UNL A   1     -26.032  -4.905  29.248  0.00  0.00    +0.011 A 
ATOM      8 CL   UNL A   1     -28.130  -3.950  30.507  0.00  0.00    -0.082 Cl
ENDBRANCH   1   2
BRANCH   1   9
ATOM      9  C   UNL A   1     -23.584  -0.973  31.251  0.00  0.00    +0.187 C 
ATOM     10  O   UNL A   1     -23.912   0.222  31.435  0.00  0.00    -0.220 OA
ENDBRANCH   1   9
BRANCH   1  11
ATOM     11  C   UNL A   1     -22.697  -1.125  28.899  0.00  0.00    +0.037 C 
BRANCH  11  15
ATOM     12  C   UNL A   1     -22.636   2.166  26.906  0.00  0.00    +0.053 A 
ATOM     13  C   UNL A   1     -23.677   2.275  26.786  0.00  0.00    +0.061 A 
ATOM     14  C   UNL A   1     -22.181   1.011  27.696  0.00  0.00    +0.193 A 
ATOM     15  C   UNL A   1     -23.110   0.028  28.144  0.00  0.00    +0.017 A 
ATOM     16  C   UNL A   1     -24.830   1.385  27.093  0.00  0.00    +0.011 A 
ATOM     17  C   UNL A   1     -24.449   0.307  27.835  0.00  0.00    -0.000 A 
ATOM     18 CL   UNL A   1     -24.256   3.685  25.803  0.00  0.00    -0.082 Cl
ATOM     19  O   UNL A   1     -20.846   0.977  27.982  0.00  0.00    -0.287 OA
ENDBRANCH  11  15
ENDBRANCH   1  11
TORSDOF 4
ENDMDL
ENDMDL
