REMARK  Name = No_2208-gen_results/8p0m/2024-11-26-14-13-15/
REMARK  4 active torsions:
REMARK  status: ('A' for Active; 'I' for Inactive)
REMARK    1  A    between atoms: C_4  and  C_8
REMARK    2  A    between atoms: C_8  and  C_9
REMARK    3  A    between atoms: C_9  and  C_10
REMARK    4  A    between atoms: C_9  and  C_16
REMARK                            x       y       z     vdW  Elec       q    Type
REMARK                         _______ _______ _______ _____ _____    ______ ____
ROOT
ATOM      1  C   UNL A   1     -23.681   0.152  30.084  0.00  0.00    +0.060 C 
ENDROOT
BRANCH   1   2
ATOM      2  C   UNL A   1     -23.261   0.776  28.897  0.00  0.00    -0.019 A 
ATOM      3  C   UNL A   1     -21.984   0.653  28.564  0.00  0.00    -0.004 A 
ATOM      4  C   UNL A   1     -24.193   1.472  28.146  0.00  0.00    +0.007 A 
ATOM      5  C   UNL A   1     -23.740   2.014  26.882  0.00  0.00    +0.057 A 
ATOM      6  C   UNL A   1     -21.447   1.302  27.385  0.00  0.00    +0.001 A 
ATOM      7  C   UNL A   1     -22.381   2.042  26.606  0.00  0.00    +0.011 A 
ATOM      8 CL   UNL A   1     -24.768   2.845  25.861  0.00  0.00    -0.082 Cl
ENDBRANCH   1   2
BRANCH   1   9
ATOM      9  C   UNL A   1     -23.621   0.926  31.329  0.00  0.00    +0.187 C 
ATOM     10  O   UNL A   1     -24.102   0.463  32.389  0.00  0.00    -0.220 OA
ENDBRANCH   1   9
BRANCH   1  11
ATOM     11  C   UNL A   1     -24.369  -1.119  30.064  0.00  0.00    +0.037 C 
BRANCH  11  15
ATOM     12  C   UNL A   1     -28.016  -0.814  28.878  0.00  0.00    +0.053 A 
ATOM     13  C   UNL A   1     -28.469  -0.785  29.829  0.00  0.00    +0.061 A 
ATOM     14  C   UNL A   1     -26.546  -0.876  28.850  0.00  0.00    +0.193 A 
ATOM     15  C   UNL A   1     -25.804  -1.032  30.057  0.00  0.00    +0.017 A 
ATOM     16  C   UNL A   1     -27.944  -0.987  31.207  0.00  0.00    +0.011 A 
ATOM     17  C   UNL A   1     -26.582  -1.039  31.223  0.00  0.00    -0.000 A 
ATOM     18 CL   UNL A   1     -30.281  -0.723  29.883  0.00  0.00    -0.082 Cl
ATOM     19  O   UNL A   1     -25.971  -0.744  27.619  0.00  0.00    -0.287 OA
ENDBRANCH  11  15
ENDBRANCH   1  11
TORSDOF 4
