MODEL 2209
MODEL 1
REMARK VINA RESULT:    -5.350      0.000      0.000
REMARK INTER + INTRA:          -5.806
REMARK INTER:                  -5.663
REMARK INTRA:                  -0.143
REMARK UNBOUND:                -0.143
REMARK  Name = No_2209-gen_results/8p0m/2024-11-26-14-13-15/
REMARK  1 active torsions:
REMARK  status: ('A' for Active; 'I' for Inactive)
REMARK    1  A    between atoms: C_4  and  C_7
REMARK                            x       y       z     vdW  Elec       q    Type
REMARK                         _______ _______ _______ _____ _____    ______ ____
ROOT
ATOM      1  C   UNL A   1     -26.631  -3.984  29.841  0.00  0.00    -0.000 A 
ATOM      2  C   UNL A   1     -26.164  -4.894  29.590  0.00  0.00    -0.000 A 
ATOM      3  C   UNL A   1     -25.807  -2.769  29.739  0.00  0.00    +0.004 A 
ATOM      4  C   UNL A   1     -24.494  -2.828  29.188  0.00  0.00    +0.071 A 
ATOM      5  C   UNL A   1     -24.859  -5.219  28.950  0.00  0.00    -0.000 A 
ATOM      6  C   UNL A   1     -24.062  -4.118  28.847  0.00  0.00    +0.004 A 
ENDROOT
BRANCH   4   7
ATOM      7  C   UNL A   1     -23.659  -1.681  29.056  0.00  0.00    +0.419 C 
ATOM      8  F   UNL A   1     -22.579  -1.947  28.885  0.00  0.00    -0.166 F 
ATOM      9  F   UNL A   1     -23.724  -0.942  30.232  0.00  0.00    -0.166 F 
ATOM     10  F   UNL A   1     -23.885  -0.798  28.073  0.00  0.00    -0.166 F 
ENDBRANCH   4   7
TORSDOF 1
ENDMDL
ENDMDL
