MODEL 220
MODEL 1
REMARK VINA RESULT:    -5.668      0.000      0.000
REMARK INTER + INTRA:          -6.084
REMARK INTER:                  -5.999
REMARK INTRA:                  -0.084
REMARK UNBOUND:                -0.084
REMARK  Name = No_220-gen_results/8p0m/2024-11-26-14-13-15/
REMARK  1 active torsions:
REMARK  status: ('A' for Active; 'I' for Inactive)
REMARK    1  A    between atoms: C_3  and  C_7
REMARK                            x       y       z     vdW  Elec       q    Type
REMARK                         _______ _______ _______ _____ _____    ______ ____
ROOT
ATOM      1  C   UNL A   1     -25.823  -2.408  29.915  0.00  0.00    +0.015 A 
ATOM      2  C   UNL A   1     -26.447  -3.246  30.047  0.00  0.00    +0.060 A 
ATOM      3  C   UNL A   1     -24.573  -2.608  29.288  0.00  0.00    +0.074 A 
ATOM      4  C   UNL A   1     -24.159  -3.856  28.866  0.00  0.00    +0.034 A 
ATOM      5  C   UNL A   1     -26.250  -4.665  29.691  0.00  0.00    +0.041 A 
ATOM      6  C   UNL A   1     -25.065  -4.901  29.088  0.00  0.00    +0.141 A 
ATOM      7 CL   UNL A   1     -28.122  -3.025  30.740  0.00  0.00    -0.082 Cl
ATOM      8  F   UNL A   1     -24.704  -6.126  28.739  0.00  0.00    -0.204 F 
ENDROOT
BRANCH   3   9
ATOM      9  C   UNL A   1     -23.608  -1.492  29.007  0.00  0.00    +0.419 C 
ATOM     10  F   UNL A   1     -22.547  -1.883  28.892  0.00  0.00    -0.166 F 
ATOM     11  F   UNL A   1     -23.609  -0.515  29.996  0.00  0.00    -0.166 F 
ATOM     12  F   UNL A   1     -24.049  -0.755  27.899  0.00  0.00    -0.166 F 
ENDBRANCH   3   9
TORSDOF 1
ENDMDL
ENDMDL
