REMARK  Name = No_221-gen_results/8p0m/2024-11-26-14-13-15/
REMARK  1 active torsions:
REMARK  status: ('A' for Active; 'I' for Inactive)
REMARK    1  A    between atoms: C_5  and  C_9
REMARK                            x       y       z     vdW  Elec       q    Type
REMARK                         _______ _______ _______ _____ _____    ______ ____
ROOT
ATOM      1  C   UNL A   1     -28.016  -0.814  28.878  0.00  0.00    +0.125 C 
ATOM      2  C   UNL A   1     -27.064  -0.119  28.608  0.00  0.00    +0.030 C 
ATOM      3  C   UNL A   1     -26.972   0.714  27.506  0.00  0.00    +0.033 C 
ATOM      4  C   UNL A   1     -25.820   1.491  27.116  0.00  0.00    +0.014 C 
ATOM      5  C   UNL A   1     -24.656   1.424  27.918  0.00  0.00    +0.081 C 
ATOM      6  C   UNL A   1     -24.685   0.590  29.066  0.00  0.00    +0.014 C 
ATOM      7  C   UNL A   1     -25.810  -0.127  29.334  0.00  0.00    +0.033 C 
ATOM      8  O   UNL A   1     -28.604  -0.575  29.995  0.00  0.00    -0.232 OA
ENDROOT
BRANCH   5   9
ATOM      9  C   UNL A   1     -23.465   2.191  27.604  0.00  0.00    +0.260 C 
ATOM     10  N   UNL A   1     -22.444   2.096  28.437  0.00  0.00    -0.088 NA
ATOM     11  O   UNL A   1     -23.402   2.840  26.512  0.00  0.00    -0.272 OA
ENDBRANCH   5   9
TORSDOF 1
