REMARK  Name = No_2210-gen_results/8p0m/2024-11-26-14-13-15/
REMARK  5 active torsions:
REMARK  status: ('A' for Active; 'I' for Inactive)
REMARK    1  A    between atoms: C_1  and  C_2
REMARK    2  A    between atoms: C_5  and  P_11
REMARK    3  A    between atoms: C_7  and  O_19
REMARK    4  A    between atoms: C_10  and  C_15
REMARK    5  A    between atoms: O_19  and  C_20
REMARK                            x       y       z     vdW  Elec       q    Type
REMARK                         _______ _______ _______ _____ _____    ______ ____
ROOT
ATOM      1  C   UNL A   1     -27.064  -0.119  28.608  0.00  0.00    +0.090 A 
ATOM      2  C   UNL A   1     -25.792  -0.430  29.076  0.00  0.00    +0.008 A 
ATOM      3  C   UNL A   1     -24.546   0.349  28.823  0.00  0.00    +0.003 A 
ATOM      4  C   UNL A   1     -24.659   1.420  27.888  0.00  0.00    +0.032 A 
ATOM      5  C   UNL A   1     -25.947   1.681  27.379  0.00  0.00    +0.040 A 
ATOM      6  C   UNL A   1     -27.044   0.974  27.687  0.00  0.00    +0.150 A 
ENDROOT
BRANCH   1   7
ATOM      7  C   UNL A   1     -28.016  -0.814  28.878  0.00  0.00    +0.274 C 
ATOM      8  N   UNL A   1     -27.974  -1.726  29.961  0.00  0.00    -0.136 NA
ATOM      9  O   UNL A   1     -29.191  -0.538  28.509  0.00  0.00    -0.268 OA
ATOM     10  C   UNL A   1     -29.074  -2.547  30.457  0.00  0.00    +0.313 C 
ATOM     11  O   UNL A   1     -29.306  -3.505  29.820  0.00  0.00    -0.267 OA
BRANCH  10  12
ATOM     12  C   UNL A   1     -29.404  -2.114  31.705  0.00  0.00    +0.386 C 
ATOM     13  O   UNL A   1     -28.798  -1.304  32.265  0.00  0.00    -0.174 OA
ATOM     14  F   UNL A   1     -30.507  -2.729  32.195  0.00  0.00    -0.191 F 
ENDBRANCH  10  12
ENDBRANCH   1   7
BRANCH   4  15
ATOM     15  P   UNL A   1     -23.200   2.317  27.544  0.00  0.00    +0.140 P 
ATOM     16  O   UNL A   1     -23.478   3.508  27.113  0.00  0.00    -0.354 OA
ATOM     17  O   UNL A   1     -22.533   2.420  28.891  0.00  0.00    -0.354 OA
ATOM     18  O   UNL A   1     -22.375   1.504  26.547  0.00  0.00    -0.456 OA
ENDBRANCH   4  15
BRANCH   6  19
ATOM     19  O   UNL A   1     -28.072   1.277  26.985  0.00  0.00    -0.450 OA
BRANCH  19  20
ATOM     20  C   UNL A   1     -28.087   1.494  25.714  0.00  0.00    +0.180 C 
ATOM     21  C   UNL A   1     -28.157   2.508  25.280  0.00  0.00    +0.044 C 
ENDBRANCH  19  20
ENDBRANCH   6  19
TORSDOF 5
