MODEL 2210
MODEL 1
REMARK VINA RESULT:    -5.867      0.000      0.000
REMARK INTER + INTRA:          -8.369
REMARK INTER:                  -7.582
REMARK INTRA:                  -0.787
REMARK UNBOUND:                -0.787
REMARK  Name = No_2210-gen_results/8p0m/2024-11-26-14-13-15/
REMARK  5 active torsions:
REMARK  status: ('A' for Active; 'I' for Inactive)
REMARK    1  A    between atoms: C_1  and  C_2
REMARK    2  A    between atoms: C_5  and  P_11
REMARK    3  A    between atoms: C_7  and  O_19
REMARK    4  A    between atoms: C_10  and  C_15
REMARK    5  A    between atoms: O_19  and  C_20
REMARK                            x       y       z     vdW  Elec       q    Type
REMARK                         _______ _______ _______ _____ _____    ______ ____
ROOT
ATOM      1  C   UNL A   1      -9.700   2.493   9.294  0.00  0.00    +0.090 A 
ATOM      2  C   UNL A   1      -8.669   2.135   8.433  0.00  0.00    +0.008 A 
ATOM      3  C   UNL A   1      -7.656   1.067   8.669  0.00  0.00    +0.003 A 
ATOM      4  C   UNL A   1      -7.664   0.475   9.966  0.00  0.00    +0.032 A 
ATOM      5  C   UNL A   1      -8.682   0.895  10.846  0.00  0.00    +0.040 A 
ATOM      6  C   UNL A   1      -9.601   1.827  10.555  0.00  0.00    +0.150 A 
ENDROOT
BRANCH   1   7
ATOM      7  C   UNL A   1     -10.479   3.372   9.005  0.00  0.00    +0.274 C 
ATOM      8  N   UNL A   1     -10.115   4.737   9.104  0.00  0.00    -0.136 NA
ATOM      9  O   UNL A   1     -11.481   3.180   8.262  0.00  0.00    -0.268 OA
ATOM     10  C   UNL A   1     -10.914   5.888   8.696  0.00  0.00    +0.313 C 
ATOM     11  O   UNL A   1     -11.768   6.190   9.442  0.00  0.00    -0.267 OA
BRANCH  10  12
ATOM     12  C   UNL A   1     -10.294   6.489   7.643  0.00  0.00    +0.386 C 
ATOM     13  O   UNL A   1     -10.367   6.085   6.562  0.00  0.00    -0.174 OA
ATOM     14  F   UNL A   1      -9.604   7.596   8.008  0.00  0.00    -0.191 F 
ENDBRANCH  10  12
ENDBRANCH   1   7
BRANCH   4  15
ATOM     15  P   UNL A   1      -6.455  -0.747  10.277  0.00  0.00    +0.140 P 
ATOM     16  O   UNL A   1      -6.935  -1.696  11.020  0.00  0.00    -0.354 OA
ATOM     17  O   UNL A   1      -6.157  -1.294   8.906  0.00  0.00    -0.354 OA
ATOM     18  O   UNL A   1      -5.245  -0.058  10.906  0.00  0.00    -0.456 OA
ENDBRANCH   4  15
BRANCH   6  19
ATOM     19  O   UNL A   1     -10.324   2.174  11.555  0.00  0.00    -0.450 OA
BRANCH  19  20
ATOM     20  C   UNL A   1      -9.939   2.882  12.561  0.00  0.00    +0.180 C 
ATOM     21  C   UNL A   1     -10.326   3.897  12.763  0.00  0.00    +0.044 C 
ENDBRANCH  19  20
ENDBRANCH   6  19
TORSDOF 5
ENDMDL
ENDMDL
