MODEL 2211
MODEL 1
REMARK VINA RESULT:    -5.707      0.000      0.000
REMARK INTER + INTRA:          -6.742
REMARK INTER:                  -6.374
REMARK INTRA:                  -0.368
REMARK UNBOUND:                -0.368
REMARK  Name = No_2211-gen_results/8p0m/2024-11-26-14-13-15/
REMARK  2 active torsions:
REMARK  status: ('A' for Active; 'I' for Inactive)
REMARK    1  A    between atoms: C_10  and  C_12
REMARK    2  A    between atoms: C_12  and  C_13
REMARK                            x       y       z     vdW  Elec       q    Type
REMARK                         _______ _______ _______ _____ _____    ______ ____
ROOT
ATOM      1  C   UNL A   1     -23.873   1.196  25.616  0.00  0.00    -0.000 A 
ATOM      2  C   UNL A   1     -23.841   0.938  26.797  0.00  0.00    -0.000 A 
ATOM      3  C   UNL A   1     -24.685  -0.021  27.346  0.00  0.00    -0.003 A 
ATOM      4  C   UNL A   1     -25.657  -0.705  26.533  0.00  0.00    -0.000 A 
ATOM      5  C   UNL A   1     -25.641  -0.330  25.183  0.00  0.00    -0.000 A 
ATOM      6  C   UNL A   1     -24.834   0.596  24.717  0.00  0.00    -0.000 A 
ATOM      7  C   UNL A   1     -22.924   1.564  27.787  0.00  0.00    +0.001 A 
ATOM      8  C   UNL A   1     -22.482   0.947  28.826  0.00  0.00    +0.006 A 
ATOM      9  C   UNL A   1     -23.367  -0.133  29.436  0.00  0.00    +0.031 A 
ATOM     10  C   UNL A   1     -24.365  -0.683  28.640  0.00  0.00    -0.012 A 
ATOM     11 BR   UNL A   1     -23.040  -0.793  31.150  0.00  0.00    -0.049 Br
ENDROOT
BRANCH  10  12
ATOM     12  C   UNL A   1     -25.203  -1.759  29.231  0.00  0.00    +0.053 C 
BRANCH  12  13
ATOM     13  C   UNL A   1     -25.010  -3.101  28.963  0.00  0.00    -0.021 C 
ATOM     14  C   UNL A   1     -24.060  -3.684  28.727  0.00  0.00    -0.005 C 
ENDBRANCH  12  13
ENDBRANCH  10  12
TORSDOF 2
ENDMDL
ENDMDL
