MODEL 2212
MODEL 1
REMARK VINA RESULT:    -5.000      0.000      0.000
REMARK INTER + INTRA:          -5.704
REMARK INTER:                  -5.584
REMARK INTRA:                  -0.120
REMARK UNBOUND:                -0.120
REMARK  Name = No_2212-gen_results/8p0m/2024-11-26-14-13-15/
REMARK  2 active torsions:
REMARK  status: ('A' for Active; 'I' for Inactive)
REMARK    1  A    between atoms: C_2  and  C_7
REMARK    2  A    between atoms: C_7  and  N_8
REMARK                            x       y       z     vdW  Elec       q    Type
REMARK                         _______ _______ _______ _____ _____    ______ ____
ROOT
ATOM      1  C   UNL A   1     -24.090   0.010  27.765  0.00  0.00    -0.002 A 
ATOM      2  C   UNL A   1     -23.255  -0.163  28.384  0.00  0.00    +0.002 A 
ATOM      3  C   UNL A   1     -23.979   1.203  26.842  0.00  0.00    -0.000 A 
ATOM      4  C   UNL A   1     -22.756   1.901  26.759  0.00  0.00    -0.000 A 
ATOM      5  C   UNL A   1     -21.880   0.377  28.471  0.00  0.00    -0.002 A 
ATOM      6  C   UNL A   1     -21.737   1.472  27.631  0.00  0.00    -0.000 A 
ENDROOT
BRANCH   2   7
ATOM      7  C   UNL A   1     -23.341  -1.432  29.366  0.00  0.00    +0.151 C 
BRANCH   7   8
ATOM      8  N   UNL A   1     -23.412  -2.614  28.855  0.00  0.00    -0.269 NA
ATOM      9  C   UNL A   1     -24.176  -3.522  29.227  0.00  0.00    +0.068 C 
ATOM     10  C   UNL A   1     -24.171  -4.862  28.618  0.00  0.00    +0.053 C 
ENDBRANCH   7   8
ENDBRANCH   2   7
TORSDOF 2
ENDMDL
ENDMDL
