MODEL 2213
MODEL 1
REMARK VINA RESULT:    -5.341      0.000      0.000
REMARK INTER + INTRA:          -6.227
REMARK INTER:                  -5.965
REMARK INTRA:                  -0.262
REMARK UNBOUND:                -0.262
REMARK  Name = No_2213-gen_results/8p0m/2024-11-26-14-13-15/
REMARK  2 active torsions:
REMARK  status: ('A' for Active; 'I' for Inactive)
REMARK    1  A    between atoms: C_3  and  C_4
REMARK    2  A    between atoms: C_4  and  C_9
REMARK                            x       y       z     vdW  Elec       q    Type
REMARK                         _______ _______ _______ _____ _____    ______ ____
ROOT
ATOM      1  C   UNL A   1     -24.242  -4.953  28.622  0.00  0.00    -0.000 A 
ATOM      2  C   UNL A   1     -23.865  -3.810  28.498  0.00  0.00    -0.004 A 
ATOM      3  C   UNL A   1     -24.478  -2.723  28.869  0.00  0.00    -0.022 A 
ATOM      4  C   UNL A   1     -25.517  -5.200  29.321  0.00  0.00    -0.000 A 
ATOM      5  C   UNL A   1     -26.262  -4.140  29.707  0.00  0.00    -0.000 A 
ATOM      6  C   UNL A   1     -25.754  -2.786  29.533  0.00  0.00    -0.004 A 
ENDROOT
BRANCH   3   7
ATOM      7  C   UNL A   1     -23.979  -1.335  28.704  0.00  0.00    +0.022 C 
ATOM      8  C   UNL A   1     -24.483  -0.389  27.802  0.00  0.00    +0.005 C 
BRANCH   7   9
ATOM      9  C   UNL A   1     -22.805  -0.947  29.464  0.00  0.00    +0.004 C 
ATOM     10  C   UNL A   1     -21.740  -0.551  29.083  0.00  0.00    +0.000 C 
ENDBRANCH   7   9
ENDBRANCH   3   7
TORSDOF 2
ENDMDL
ENDMDL
