MODEL 2214
MODEL 1
REMARK VINA RESULT:    -7.411      0.000      0.000
REMARK INTER + INTRA:          -8.976
REMARK INTER:                  -8.278
REMARK INTRA:                  -0.699
REMARK UNBOUND:                -0.699
REMARK  Name = No_2214-gen_results/8p0m/2024-11-26-14-13-15/
REMARK  2 active torsions:
REMARK  status: ('A' for Active; 'I' for Inactive)
REMARK    1  A    between atoms: C_3  and  C_4
REMARK    2  A    between atoms: C_9  and  C_10
REMARK                            x       y       z     vdW  Elec       q    Type
REMARK                         _______ _______ _______ _____ _____    ______ ____
ROOT
ATOM      1  C   UNL A   1     -24.823  -1.070  29.646  0.00  0.00    +0.029 C 
ATOM      2  C   UNL A   1     -25.907  -0.233  29.941  0.00  0.00    +0.005 C 
ATOM      3  C   UNL A   1     -23.717  -0.668  30.589  0.00  0.00    +0.107 C 
ATOM      4  C   UNL A   1     -22.620   0.105  30.077  0.00  0.00    +0.012 C 
ATOM      5  C   UNL A   1     -22.735   0.918  28.965  0.00  0.00    +0.001 C 
ATOM      6  C   UNL A   1     -24.423  -0.463  28.133  0.00  0.00    +0.004 C 
ATOM      7  C   UNL A   1     -25.406  -0.661  27.224  0.00  0.00    +0.000 C 
ATOM      8  C   UNL A   1     -23.344   0.346  27.922  0.00  0.00    +0.000 C 
ENDROOT
BRANCH   1  11
ATOM      9  C   UNL A   1     -24.010  -4.462  28.647  0.00  0.00    -0.000 A 
ATOM     10  C   UNL A   1     -23.979  -3.271  28.855  0.00  0.00    -0.004 A 
ATOM     11  C   UNL A   1     -24.901  -2.531  29.402  0.00  0.00    -0.022 A 
ATOM     12  C   UNL A   1     -25.191  -5.223  29.098  0.00  0.00    -0.000 A 
ATOM     13  C   UNL A   1     -26.231  -4.548  29.635  0.00  0.00    -0.000 A 
ATOM     14  C   UNL A   1     -26.134  -3.113  29.864  0.00  0.00    -0.004 A 
ENDBRANCH   1  11
BRANCH   3  15
ATOM     15  C   UNL A   1     -23.706  -1.013  31.897  0.00  0.00    +0.365 C 
ATOM     16  O   UNL A   1     -24.460  -1.180  32.586  0.00  0.00    -0.246 OA
ATOM     17  O   UNL A   1     -22.317  -1.114  32.362  0.00  0.00    -0.246 OA
ENDBRANCH   3  15
TORSDOF 2
ENDMDL
ENDMDL
