REMARK  Name = No_2214-gen_results/8p0m/2024-11-26-14-13-15/
REMARK  2 active torsions:
REMARK  status: ('A' for Active; 'I' for Inactive)
REMARK    1  A    between atoms: C_3  and  C_4
REMARK    2  A    between atoms: C_9  and  C_10
REMARK                            x       y       z     vdW  Elec       q    Type
REMARK                         _______ _______ _______ _____ _____    ______ ____
ROOT
ATOM      1  C   UNL A   1     -25.688   1.952  28.567  0.00  0.00    +0.029 C 
ATOM      2  C   UNL A   1     -25.509   3.304  28.886  0.00  0.00    +0.005 C 
ATOM      3  C   UNL A   1     -24.374   1.275  28.864  0.00  0.00    +0.107 C 
ATOM      4  C   UNL A   1     -23.523   0.908  27.767  0.00  0.00    +0.012 C 
ATOM      5  C   UNL A   1     -23.561   1.554  26.545  0.00  0.00    +0.001 C 
ATOM      6  C   UNL A   1     -25.806   2.086  26.898  0.00  0.00    +0.004 C 
ATOM      7  C   UNL A   1     -26.897   2.789  26.515  0.00  0.00    +0.000 C 
ATOM      8  C   UNL A   1     -24.789   1.740  26.055  0.00  0.00    +0.000 C 
ENDROOT
BRANCH   1  11
ATOM      9  C   UNL A   1     -28.016  -0.814  28.878  0.00  0.00    -0.000 A 
ATOM     10  C   UNL A   1     -27.064  -0.119  28.608  0.00  0.00    -0.004 A 
ATOM     11  C   UNL A   1     -26.876   1.133  28.913  0.00  0.00    -0.022 A 
ATOM     12  C   UNL A   1     -29.097  -0.235  29.699  0.00  0.00    -0.000 A 
ATOM     13  C   UNL A   1     -29.030   1.073  30.032  0.00  0.00    -0.000 A 
ATOM     14  C   UNL A   1     -27.855   1.859  29.680  0.00  0.00    -0.004 A 
ENDBRANCH   1  11
BRANCH   3  15
ATOM     15  C   UNL A   1     -23.964   0.987  30.121  0.00  0.00    +0.365 C 
ATOM     16  O   UNL A   1     -24.288   0.302  30.826  0.00  0.00    -0.246 OA
ATOM     17  O   UNL A   1     -22.869   1.891  30.494  0.00  0.00    -0.246 OA
ENDBRANCH   3  15
TORSDOF 2
