MODEL 2215
MODEL 1
REMARK VINA RESULT:    -4.578      0.000      0.000
REMARK INTER + INTRA:          -5.930
REMARK INTER:                  -5.648
REMARK INTRA:                  -0.282
REMARK UNBOUND:                -0.282
REMARK  Name = No_2215-gen_results/8p0m/2024-11-26-14-13-15/
REMARK  4 active torsions:
REMARK  status: ('A' for Active; 'I' for Inactive)
REMARK    1  A    between atoms: C_2  and  C_3
REMARK    2  A    between atoms: C_4  and  C_6
REMARK    3  A    between atoms: C_7  and  C_8
REMARK    4  A    between atoms: C_8  and  C_10
REMARK                            x       y       z     vdW  Elec       q    Type
REMARK                         _______ _______ _______ _____ _____    ______ ____
ROOT
ATOM      1  C   UNL A   1     -23.048  -1.037  29.497  0.00  0.00    -0.001 C 
ATOM      2  C   UNL A   1     -23.571  -2.355  28.950  0.00  0.00    -0.003 C 
ENDROOT
BRANCH   1   4
ATOM      3  C   UNL A   1     -21.941   0.724  28.199  0.00  0.00    +0.018 C 
ATOM      4  C   UNL A   1     -21.898  -0.435  28.954  0.00  0.00    -0.001 C 
BRANCH   3   6
ATOM      5  O   UNL A   1     -23.508   2.214  28.839  0.00  0.00    -0.206 OA
ATOM      6  C   UNL A   1     -23.088   1.382  28.027  0.00  0.00    +0.230 C 
ATOM      7 BR   UNL A   1     -24.337   0.786  26.667  0.00  0.00    -0.041 Br
ENDBRANCH   3   6
ENDBRANCH   1   4
BRANCH   2   8
ATOM      8  C   UNL A   1     -24.695  -2.893  29.573  0.00  0.00    -0.003 C 
ATOM      9  C   UNL A   1     -25.391  -2.310  30.405  0.00  0.00    -0.003 C 
BRANCH   8  10
ATOM     10  C   UNL A   1     -24.877  -4.278  29.107  0.00  0.00    +0.136 C 
ATOM     11  N   UNL A   1     -23.749  -4.770  28.508  0.00  0.00    -0.126 NA
ENDBRANCH   8  10
ENDBRANCH   2   8
TORSDOF 4
ENDMDL
ENDMDL
