REMARK  Name = No_2215-gen_results/8p0m/2024-11-26-14-13-15/
REMARK  4 active torsions:
REMARK  status: ('A' for Active; 'I' for Inactive)
REMARK    1  A    between atoms: C_2  and  C_3
REMARK    2  A    between atoms: C_4  and  C_6
REMARK    3  A    between atoms: C_7  and  C_8
REMARK    4  A    between atoms: C_8  and  C_10
REMARK                            x       y       z     vdW  Elec       q    Type
REMARK                         _______ _______ _______ _____ _____    ______ ____
ROOT
ATOM      1  C   UNL A   1     -24.642   0.575  29.310  0.00  0.00    -0.001 C 
ATOM      2  C   UNL A   1     -23.414   1.449  29.500  0.00  0.00    -0.003 C 
ENDROOT
BRANCH   1   4
ATOM      3  C   UNL A   1     -27.025   0.188  29.736  0.00  0.00    +0.018 C 
ATOM      4  C   UNL A   1     -25.839   0.851  29.996  0.00  0.00    -0.001 C 
BRANCH   3   6
ATOM      5  O   UNL A   1     -28.123  -1.335  28.487  0.00  0.00    -0.206 OA
ATOM      6  C   UNL A   1     -27.064  -0.824  28.869  0.00  0.00    +0.230 C 
ATOM      7 BR   UNL A   1     -25.433  -1.790  28.453  0.00  0.00    -0.041 Br
ENDBRANCH   3   6
ENDBRANCH   1   4
BRANCH   2   8
ATOM      8  C   UNL A   1     -22.264   1.079  28.806  0.00  0.00    -0.003 C 
ATOM      9  C   UNL A   1     -21.619   1.817  28.060  0.00  0.00    -0.003 C 
BRANCH   8  10
ATOM     10  C   UNL A   1     -21.984  -0.341  29.077  0.00  0.00    +0.136 C 
ATOM     11  N   UNL A   1     -20.852  -0.771  28.440  0.00  0.00    -0.126 NA
ENDBRANCH   8  10
ENDBRANCH   2   8
TORSDOF 4
