REMARK  Name = No_2216-gen_results/8p0m/2024-11-26-14-13-15/
REMARK  2 active torsions:
REMARK  status: ('A' for Active; 'I' for Inactive)
REMARK    1  A    between atoms: C_2  and  C_13
REMARK    2  A    between atoms: C_4  and  C_7
REMARK                            x       y       z     vdW  Elec       q    Type
REMARK                         _______ _______ _______ _____ _____    ______ ____
ROOT
ATOM      1  C   UNL A   1     -28.016  -0.814  28.878  0.00  0.00    +0.004 A 
ATOM      2  C   UNL A   1     -28.469  -0.785  29.829  0.00  0.00    +0.054 A 
ATOM      3  C   UNL A   1     -26.504  -0.778  28.877  0.00  0.00    +0.000 A 
ATOM      4  C   UNL A   1     -25.810  -0.853  30.103  0.00  0.00    +0.000 A 
ATOM      5  C   UNL A   1     -27.991  -0.892  31.226  0.00  0.00    +0.004 A 
ATOM      6  C   UNL A   1     -26.604  -0.868  31.265  0.00  0.00    +0.000 A 
ENDROOT
BRANCH   2   7
ATOM      7  C   UNL A   1     -30.090  -0.784  29.846  0.00  0.00    +0.249 C 
ATOM      8  O   UNL A   1     -30.495  -0.319  28.882  0.00  0.00    -0.270 OA
ATOM      9  N   UNL A   1     -30.808  -1.272  30.870  0.00  0.00    -0.276 N 
ATOM     10  C   UNL A   1     -32.249  -1.247  30.796  0.00  0.00    +0.094 C 
ATOM     11  C   UNL A   1     -32.819  -2.033  31.530  0.00  0.00    +0.022 C 
ATOM     12  C   UNL A   1     -32.171  -2.704  32.475  0.00  0.00    +0.004 C 
ATOM     13  C   UNL A   1     -30.789  -2.826  32.612  0.00  0.00    +0.022 C 
ATOM     14  C   UNL A   1     -30.113  -2.176  31.733  0.00  0.00    +0.094 C 
ENDBRANCH   2   7
BRANCH   4  15
ATOM     15  C   UNL A   1     -24.389  -0.805  30.164  0.00  0.00    +0.000 A 
ATOM     16  C   UNL A   1     -23.766  -0.950  31.068  0.00  0.00    +0.000 A 
ATOM     17  C   UNL A   1     -22.267  -0.838  31.225  0.00  0.00    +0.000 A 
ATOM     18  C   UNL A   1     -21.670  -0.526  30.065  0.00  0.00    +0.000 A 
ATOM     19  C   UNL A   1     -23.732  -0.499  28.862  0.00  0.00    +0.000 A 
ATOM     20  C   UNL A   1     -22.367  -0.342  28.875  0.00  0.00    +0.000 A 
ENDBRANCH   4  15
TORSDOF 2
