MODEL 2216
MODEL 1
REMARK VINA RESULT:    -6.862      0.000      0.000
REMARK INTER + INTRA:          -8.056
REMARK INTER:                  -7.664
REMARK INTRA:                  -0.392
REMARK UNBOUND:                -0.392
REMARK  Name = No_2216-gen_results/8p0m/2024-11-26-14-13-15/
REMARK  2 active torsions:
REMARK  status: ('A' for Active; 'I' for Inactive)
REMARK    1  A    between atoms: C_2  and  C_13
REMARK    2  A    between atoms: C_4  and  C_7
REMARK                            x       y       z     vdW  Elec       q    Type
REMARK                         _______ _______ _______ _____ _____    ______ ____
ROOT
ATOM      1  C   UNL A   1     -24.965   0.380  25.260  0.00  0.00    +0.004 A 
ATOM      2  C   UNL A   1     -24.887   1.132  25.994  0.00  0.00    +0.054 A 
ATOM      3  C   UNL A   1     -26.270   0.351  24.496  0.00  0.00    +0.000 A 
ATOM      4  C   UNL A   1     -27.211   1.382  24.697  0.00  0.00    +0.000 A 
ATOM      5  C   UNL A   1     -25.684   2.321  26.371  0.00  0.00    +0.004 A 
ATOM      6  C   UNL A   1     -26.889   2.333  25.684  0.00  0.00    +0.000 A 
ENDROOT
BRANCH   2   7
ATOM      7  C   UNL A   1     -23.510   1.152  26.849  0.00  0.00    +0.249 C 
ATOM      8  O   UNL A   1     -22.852   2.029  26.519  0.00  0.00    -0.270 OA
ATOM      9  N   UNL A   1     -23.229   0.246  27.799  0.00  0.00    -0.276 N 
ATOM     10  C   UNL A   1     -21.986   0.348  28.525  0.00  0.00    +0.094 C 
ATOM     11  C   UNL A   1     -21.965  -0.224  29.599  0.00  0.00    +0.022 C 
ATOM     12  C   UNL A   1     -22.935  -1.051  29.971  0.00  0.00    +0.004 C 
ATOM     13  C   UNL A   1     -24.184  -1.196  29.367  0.00  0.00    +0.022 C 
ATOM     14  C   UNL A   1     -24.355  -0.460  28.327  0.00  0.00    +0.094 C 
ENDBRANCH   2   7
BRANCH   4  15
ATOM     15  C   UNL A   1     -28.463   1.397  24.019  0.00  0.00    +0.000 A 
ATOM     16  C   UNL A   1     -28.966   2.286  23.591  0.00  0.00    +0.000 A 
ATOM     17  C   UNL A   1     -30.322   2.392  22.930  0.00  0.00    +0.000 A 
ATOM     18  C   UNL A   1     -30.942   1.204  22.880  0.00  0.00    +0.000 A 
ATOM     19  C   UNL A   1     -29.125   0.065  23.931  0.00  0.00    +0.000 A 
ATOM     20  C   UNL A   1     -30.381   0.030  23.375  0.00  0.00    +0.000 A 
ENDBRANCH   4  15
TORSDOF 2
ENDMDL
ENDMDL
