REMARK  Name = No_2217-gen_results/8p0m/2024-11-26-14-13-15/
REMARK  2 active torsions:
REMARK  status: ('A' for Active; 'I' for Inactive)
REMARK    1  A    between atoms: C_4  and  C_5
REMARK    2  A    between atoms: C_11  and  C_14
REMARK                            x       y       z     vdW  Elec       q    Type
REMARK                         _______ _______ _______ _____ _____    ______ ____
ROOT
ATOM      1  C   UNL A   1     -28.016  -0.814  28.878  0.00  0.00    +0.064 C 
ATOM      2  N   UNL A   1     -27.188  -0.359  28.452  0.00  0.00    -0.253 N 
ATOM      3  C   UNL A   1     -29.199   0.040  28.963  0.00  0.00    +0.003 C 
ATOM      4  C   UNL A   1     -25.773  -0.854  28.472  0.00  0.00    +0.253 C 
ATOM      5  C   UNL A   1     -28.969   1.070  28.133  0.00  0.00    +0.147 C 
ATOM      6  C   UNL A   1     -27.566   0.900  27.756  0.00  0.00    +0.114 C 
ATOM      7  O   UNL A   1     -25.546  -1.982  28.892  0.00  0.00    -0.270 OA
ENDROOT
BRANCH   4   8
ATOM      8  C   UNL A   1     -24.642  -0.118  27.943  0.00  0.00    +0.055 A 
ATOM      9  C   UNL A   1     -23.358  -0.184  28.542  0.00  0.00    +0.016 A 
ATOM     10  C   UNL A   1     -22.296   0.671  28.086  0.00  0.00    +0.058 A 
ATOM     11  C   UNL A   1     -22.608   1.605  27.056  0.00  0.00    +0.011 A 
ATOM     12  C   UNL A   1     -23.889   1.725  26.542  0.00  0.00    +0.001 A 
ATOM     13  C   UNL A   1     -24.963   0.882  26.963  0.00  0.00    +0.005 A 
ATOM     14 CL   UNL A   1     -20.762   0.518  28.756  0.00  0.00    -0.082 Cl
ENDBRANCH   4   8
BRANCH   5  15
ATOM     15  C   UNL A   1     -29.750   2.135  27.721  0.00  0.00    +0.370 C 
ATOM     16  O   UNL A   1     -30.753   2.398  28.177  0.00  0.00    -0.245 OA
ATOM     17  O   UNL A   1     -29.205   2.884  26.736  0.00  0.00    -0.245 OA
ENDBRANCH   5  15
TORSDOF 2
