MODEL 2217
MODEL 1
REMARK VINA RESULT:    -6.511      0.000      0.000
REMARK INTER + INTRA:          -7.584
REMARK INTER:                  -7.272
REMARK INTRA:                  -0.312
REMARK UNBOUND:                -0.312
REMARK  Name = No_2217-gen_results/8p0m/2024-11-26-14-13-15/
REMARK  2 active torsions:
REMARK  status: ('A' for Active; 'I' for Inactive)
REMARK    1  A    between atoms: C_4  and  C_5
REMARK    2  A    between atoms: C_11  and  C_14
REMARK                            x       y       z     vdW  Elec       q    Type
REMARK                         _______ _______ _______ _____ _____    ______ ____
ROOT
ATOM      1  C   UNL A   1     -22.541   0.424  29.119  0.00  0.00    +0.064 C 
ATOM      2  N   UNL A   1     -23.270  -0.307  29.024  0.00  0.00    -0.253 N 
ATOM      3  C   UNL A   1     -22.311   1.212  27.910  0.00  0.00    +0.003 C 
ATOM      4  C   UNL A   1     -23.543  -1.440  29.965  0.00  0.00    +0.253 C 
ATOM      5  C   UNL A   1     -23.372   0.988  27.118  0.00  0.00    +0.147 C 
ATOM      6  C   UNL A   1     -24.083  -0.096  27.796  0.00  0.00    +0.114 C 
ATOM      7  O   UNL A   1     -22.973  -1.461  31.049  0.00  0.00    -0.270 OA
ENDROOT
BRANCH   4   8
ATOM      8  C   UNL A   1     -24.514  -2.489  29.722  0.00  0.00    +0.055 A 
ATOM      9  C   UNL A   1     -25.817  -2.449  30.279  0.00  0.00    +0.016 A 
ATOM     10  C   UNL A   1     -26.704  -3.572  30.143  0.00  0.00    +0.058 A 
ATOM     11  C   UNL A   1     -26.196  -4.725  29.477  0.00  0.00    +0.011 A 
ATOM     12  C   UNL A   1     -24.891  -4.789  29.017  0.00  0.00    +0.001 A 
ATOM     13  C   UNL A   1     -23.989  -3.686  29.124  0.00  0.00    +0.005 A 
ATOM     14 CL   UNL A   1     -28.271  -3.470  30.742  0.00  0.00    -0.082 Cl
ENDBRANCH   4   8
BRANCH   5  15
ATOM     15  C   UNL A   1     -23.765   1.520  25.904  0.00  0.00    +0.370 C 
ATOM     16  O   UNL A   1     -23.291   2.433  25.430  0.00  0.00    -0.245 OA
ATOM     17  O   UNL A   1     -24.755   0.839  25.285  0.00  0.00    -0.245 OA
ENDBRANCH   5  15
TORSDOF 2
ENDMDL
ENDMDL
