MODEL 2218
MODEL 1
REMARK VINA RESULT:    -6.598      0.000      0.000
REMARK INTER + INTRA:          -7.371
REMARK INTER:                  -6.984
REMARK INTRA:                  -0.387
REMARK UNBOUND:                -0.387
REMARK  Name = No_2218-gen_results/8p0m/2024-11-26-14-13-15/
REMARK  1 active torsions:
REMARK  status: ('A' for Active; 'I' for Inactive)
REMARK    1  A    between atoms: C_1  and  C_3
REMARK                            x       y       z     vdW  Elec       q    Type
REMARK                         _______ _______ _______ _____ _____    ______ ____
ROOT
ATOM      1  C   UNL A   1     -23.822  -1.278  28.579  0.00  0.00    +0.028 A 
ATOM      2  C   UNL A   1     -24.314  -0.589  27.952  0.00  0.00    +0.140 A 
ATOM      3  C   UNL A   1     -23.608   0.694  27.512  0.00  0.00    +0.030 A 
ATOM      4  C   UNL A   1     -22.449   0.814  28.142  0.00  0.00    +0.002 A 
ATOM      5  C   UNL A   1     -22.036   0.039  29.159  0.00  0.00    +0.000 A 
ATOM      6  C   UNL A   1     -22.776  -1.028  29.490  0.00  0.00    +0.002 A 
ATOM      7  F   UNL A   1     -25.445  -0.753  27.113  0.00  0.00    -0.204 F 
ENDROOT
BRANCH   1   8
ATOM      8  C   UNL A   1     -24.622  -2.507  28.949  0.00  0.00    +0.002 A 
ATOM      9  C   UNL A   1     -25.901  -2.524  29.614  0.00  0.00    +0.000 A 
ATOM     10  C   UNL A   1     -26.484  -3.824  29.839  0.00  0.00    +0.000 A 
ATOM     11  C   UNL A   1     -25.812  -5.001  29.514  0.00  0.00    +0.000 A 
ATOM     12  C   UNL A   1     -24.607  -5.003  28.909  0.00  0.00    +0.000 A 
ATOM     13  C   UNL A   1     -23.999  -3.808  28.648  0.00  0.00    +0.000 A 
ENDBRANCH   1   8
TORSDOF 1
ENDMDL
ENDMDL
