REMARK  Name = No_2219-gen_results/8p0m/2024-11-26-14-13-15/
REMARK  3 active torsions:
REMARK  status: ('A' for Active; 'I' for Inactive)
REMARK    1  A    between atoms: C_2  and  C_4
REMARK    2  A    between atoms: C_5  and  C_6
REMARK    3  A    between atoms: C_7  and  C_8
REMARK                            x       y       z     vdW  Elec       q    Type
REMARK                         _______ _______ _______ _____ _____    ______ ____
ROOT
ATOM      1  C   UNL A   1     -27.403   0.323  29.912  0.00  0.00    +0.086 C 
ATOM      2  C   UNL A   1     -26.340  -0.048  29.985  0.00  0.00    +0.007 C 
ENDROOT
BRANCH   1   4
ATOM      3  O   UNL A   1     -28.123  -1.335  28.487  0.00  0.00    -0.240 OA
ATOM      4  C   UNL A   1     -28.521  -0.436  29.078  0.00  0.00    +0.388 C 
ATOM      5  O   UNL A   1     -29.622  -0.059  29.108  0.00  0.00    -0.240 OA
ENDBRANCH   1   4
BRANCH   2   6
ATOM      6  C   UNL A   1     -25.319   0.024  29.654  0.00  0.00    +0.000 C 
ATOM      7  C   UNL A   1     -24.019  -0.683  29.985  0.00  0.00    +0.000 C 
BRANCH   7   8
ATOM      8  C   UNL A   1     -24.262  -1.812  30.770  0.00  0.00    +0.000 C 
ATOM      9  C   UNL A   1     -25.494  -2.169  31.153  0.00  0.00    +0.000 C 
ENDBRANCH   7   8
ENDBRANCH   2   6
TORSDOF 3
