MODEL 2219
MODEL 1
REMARK VINA RESULT:    -5.358      0.000      0.000
REMARK INTER + INTRA:          -6.482
REMARK INTER:                  -6.298
REMARK INTRA:                  -0.184
REMARK UNBOUND:                -0.184
REMARK  Name = No_2219-gen_results/8p0m/2024-11-26-14-13-15/
REMARK  3 active torsions:
REMARK  status: ('A' for Active; 'I' for Inactive)
REMARK    1  A    between atoms: C_2  and  C_4
REMARK    2  A    between atoms: C_5  and  C_6
REMARK    3  A    between atoms: C_7  and  C_8
REMARK                            x       y       z     vdW  Elec       q    Type
REMARK                         _______ _______ _______ _____ _____    ______ ____
ROOT
ATOM      1  C   UNL A   1     -10.022  -9.491  18.788  0.00  0.00    +0.086 C 
ATOM      2  C   UNL A   1      -9.029  -9.435  19.322  0.00  0.00    +0.007 C 
ENDROOT
BRANCH   1   4
ATOM      3  O   UNL A   1      -9.611 -11.450  17.652  0.00  0.00    -0.240 OA
ATOM      4  C   UNL A   1     -10.321 -10.549  17.642  0.00  0.00    +0.388 C 
ATOM      5  O   UNL A   1     -11.193 -10.362  16.894  0.00  0.00    -0.240 OA
ENDBRANCH   1   4
BRANCH   2   6
ATOM      6  C   UNL A   1      -8.073  -8.955  19.432  0.00  0.00    +0.000 C 
ATOM      7  C   UNL A   1      -6.905  -9.071  20.392  0.00  0.00    +0.000 C 
BRANCH   7   8
ATOM      8  C   UNL A   1      -7.049 -10.199  21.203  0.00  0.00    +0.000 C 
ATOM      9  C   UNL A   1      -6.304 -10.395  22.299  0.00  0.00    +0.000 C 
ENDBRANCH   7   8
ENDBRANCH   2   6
TORSDOF 3
ENDMDL
ENDMDL
