MODEL 221
MODEL 1
REMARK VINA RESULT:    -5.339      0.000      0.000
REMARK INTER + INTRA:          -5.702
REMARK INTER:                  -5.651
REMARK INTRA:                  -0.051
REMARK UNBOUND:                -0.051
REMARK  Name = No_221-gen_results/8p0m/2024-11-26-14-13-15/
REMARK  1 active torsions:
REMARK  status: ('A' for Active; 'I' for Inactive)
REMARK    1  A    between atoms: C_5  and  C_9
REMARK                            x       y       z     vdW  Elec       q    Type
REMARK                         _______ _______ _______ _____ _____    ______ ____
ROOT
ATOM      1  C   UNL A   1     -30.404 -10.418  29.305  0.00  0.00    +0.125 C 
ATOM      2  C   UNL A   1     -29.763 -10.697  30.291  0.00  0.00    +0.030 C 
ATOM      3  C   UNL A   1     -29.843 -10.039  31.507  0.00  0.00    +0.033 C 
ATOM      4  C   UNL A   1     -29.034 -10.298  32.674  0.00  0.00    +0.014 C 
ATOM      5  C   UNL A   1     -28.058 -11.320  32.607  0.00  0.00    +0.081 C 
ATOM      6  C   UNL A   1     -27.926 -12.036  31.388  0.00  0.00    +0.014 C 
ATOM      7  C   UNL A   1     -28.716 -11.698  30.334  0.00  0.00    +0.033 C 
ATOM      8  O   UNL A   1     -31.189 -11.329  28.852  0.00  0.00    -0.232 OA
ENDROOT
BRANCH   5   9
ATOM      9  C   UNL A   1     -27.220 -11.654  33.743  0.00  0.00    +0.260 C 
ATOM     10  N   UNL A   1     -27.052 -10.725  34.668  0.00  0.00    -0.088 NA
ATOM     11  O   UNL A   1     -26.762 -12.834  33.864  0.00  0.00    -0.272 OA
ENDBRANCH   5   9
TORSDOF 1
ENDMDL
ENDMDL
