REMARK  Name = No_2220-gen_results/8p0m/2024-11-26-14-13-15/
REMARK  4 active torsions:
REMARK  status: ('A' for Active; 'I' for Inactive)
REMARK    1  A    between atoms: C_2  and  N_7
REMARK    2  A    between atoms: N_7  and  C_8
REMARK    3  A    between atoms: C_9  and  C_10
REMARK    4  A    between atoms: C_11  and  C_12
REMARK                            x       y       z     vdW  Elec       q    Type
REMARK                         _______ _______ _______ _____ _____    ______ ____
ROOT
ATOM      1  N   UNL A   1     -26.865   1.055  27.793  0.00  0.00    -0.211 NA
ENDROOT
BRANCH   1   3
ATOM      2  C   UNL A   1     -28.016  -0.814  28.878  0.00  0.00    +0.017 A 
ATOM      3  C   UNL A   1     -27.064  -0.119  28.608  0.00  0.00    +0.070 A 
ATOM      4  C   UNL A   1     -25.792  -0.430  29.076  0.00  0.00    +0.017 A 
ATOM      5  C   UNL A   1     -25.576  -1.565  29.936  0.00  0.00    +0.001 A 
ATOM      6  C   UNL A   1     -26.735  -2.300  30.217  0.00  0.00    +0.000 A 
ATOM      7  C   UNL A   1     -27.918  -1.954  29.763  0.00  0.00    +0.001 A 
ENDBRANCH   1   3
BRANCH   1   8
ATOM      8  C   UNL A   1     -27.692   1.564  27.152  0.00  0.00    +0.086 C 
ATOM      9  C   UNL A   1     -28.867   1.251  27.150  0.00  0.00    +0.018 C 
BRANCH   9  10
ATOM     10  C   UNL A   1     -29.853   1.932  26.241  0.00  0.00    +0.001 C 
ATOM     11  C   UNL A   1     -31.187   1.589  26.173  0.00  0.00    +0.000 C 
BRANCH  11  12
ATOM     12  C   UNL A   1     -31.604   0.546  26.976  0.00  0.00    +0.000 C 
ATOM     13  C   UNL A   1     -30.757  -0.118  27.814  0.00  0.00    +0.000 C 
ENDBRANCH  11  12
ENDBRANCH   9  10
ENDBRANCH   1   8
TORSDOF 4
