MODEL 2220
MODEL 1
REMARK VINA RESULT:    -6.030      0.000      0.000
REMARK INTER + INTRA:          -7.791
REMARK INTER:                  -7.441
REMARK INTRA:                  -0.351
REMARK UNBOUND:                -0.351
REMARK  Name = No_2220-gen_results/8p0m/2024-11-26-14-13-15/
REMARK  4 active torsions:
REMARK  status: ('A' for Active; 'I' for Inactive)
REMARK    1  A    between atoms: C_2  and  N_7
REMARK    2  A    between atoms: N_7  and  C_8
REMARK    3  A    between atoms: C_9  and  C_10
REMARK    4  A    between atoms: C_11  and  C_12
REMARK                            x       y       z     vdW  Elec       q    Type
REMARK                         _______ _______ _______ _____ _____    ______ ____
ROOT
ATOM      1  N   UNL A   1     -24.585  -1.224  29.345  0.00  0.00    -0.211 NA
ENDROOT
BRANCH   1   3
ATOM      2  C   UNL A   1     -25.985  -3.198  29.720  0.00  0.00    +0.017 A 
ATOM      3  C   UNL A   1     -24.993  -2.609  29.359  0.00  0.00    +0.070 A 
ATOM      4  C   UNL A   1     -23.940  -3.281  28.748  0.00  0.00    +0.017 A 
ATOM      5  C   UNL A   1     -23.979  -4.709  28.567  0.00  0.00    +0.001 A 
ATOM      6  C   UNL A   1     -25.152  -5.315  29.035  0.00  0.00    +0.000 A 
ATOM      7  C   UNL A   1     -26.112  -4.636  29.621  0.00  0.00    +0.001 A 
ENDBRANCH   1   3
BRANCH   1   8
ATOM      8  C   UNL A   1     -23.567  -0.838  28.935  0.00  0.00    +0.086 C 
ATOM      9  C   UNL A   1     -23.175   0.311  29.008  0.00  0.00    +0.018 C 
BRANCH   9  10
ATOM     10  C   UNL A   1     -21.866   0.727  28.395  0.00  0.00    +0.001 C 
ATOM     11  C   UNL A   1     -21.771   1.540  27.285  0.00  0.00    +0.000 C 
BRANCH  11  12
ATOM     12  C   UNL A   1     -22.957   1.958  26.715  0.00  0.00    +0.000 C 
ATOM     13  C   UNL A   1     -23.035   2.407  25.429  0.00  0.00    +0.000 C 
ENDBRANCH  11  12
ENDBRANCH   9  10
ENDBRANCH   1   8
TORSDOF 4
ENDMDL
ENDMDL
