REMARK  Name = No_2221-gen_results/8p0m/2024-11-26-14-13-15/
REMARK  1 active torsions:
REMARK  status: ('A' for Active; 'I' for Inactive)
REMARK    1  A    between atoms: C_6  and  C_11
REMARK                            x       y       z     vdW  Elec       q    Type
REMARK                         _______ _______ _______ _____ _____    ______ ____
ROOT
ATOM      1  C   UNL A   1     -28.016  -0.814  28.878  0.00  0.00    -0.004 A 
ATOM      2  C   UNL A   1     -28.469  -0.785  29.829  0.00  0.00    -0.000 A 
ATOM      3  C   UNL A   1     -28.196   0.348  28.055  0.00  0.00    -0.019 A 
ATOM      4  C   UNL A   1     -29.019   1.350  28.378  0.00  0.00    +0.031 A 
ATOM      5  C   UNL A   1     -29.411   0.180  30.378  0.00  0.00    +0.000 A 
ATOM      6  C   UNL A   1     -29.606   1.250  29.619  0.00  0.00    +0.002 A 
ATOM      7  C   UNL A   1     -27.448   0.380  26.712  0.00  0.00    +0.027 C 
ATOM      8  C   UNL A   1     -27.857   0.815  25.703  0.00  0.00    +0.013 C 
ATOM      9  C   UNL A   1     -29.192   1.309  25.672  0.00  0.00    +0.070 C 
ATOM     10  C   UNL A   1     -29.619   1.822  27.002  0.00  0.00    +0.173 C 
ATOM     11  O   UNL A   1     -30.720   2.652  27.106  0.00  0.00    -0.291 OA
ENDROOT
BRANCH   6  12
ATOM     12  C   UNL A   1     -30.614   2.320  29.971  0.00  0.00    +0.000 A 
ATOM     13  C   UNL A   1     -31.660   2.200  30.132  0.00  0.00    +0.000 A 
ATOM     14  C   UNL A   1     -32.574   3.285  30.548  0.00  0.00    +0.000 A 
ATOM     15  C   UNL A   1     -29.871   3.626  30.118  0.00  0.00    +0.000 A 
ATOM     16  C   UNL A   1     -30.670   4.729  30.486  0.00  0.00    +0.000 A 
ATOM     17  C   UNL A   1     -31.993   4.542  30.715  0.00  0.00    +0.000 A 
ENDBRANCH   6  12
TORSDOF 1
