MODEL 2221
MODEL 1
REMARK VINA RESULT:    -7.807      0.000      0.000
REMARK INTER + INTRA:          -8.585
REMARK INTER:                  -8.263
REMARK INTRA:                  -0.322
REMARK UNBOUND:                -0.322
REMARK  Name = No_2221-gen_results/8p0m/2024-11-26-14-13-15/
REMARK  1 active torsions:
REMARK  status: ('A' for Active; 'I' for Inactive)
REMARK    1  A    between atoms: C_6  and  C_11
REMARK                            x       y       z     vdW  Elec       q    Type
REMARK                         _______ _______ _______ _____ _____    ______ ____
ROOT
ATOM      1  C   UNL A   1     -21.203   0.774  28.087  0.00  0.00    -0.004 A 
ATOM      2  C   UNL A   1     -21.011  -0.015  28.759  0.00  0.00    -0.000 A 
ATOM      3  C   UNL A   1     -22.580   1.006  27.759  0.00  0.00    -0.019 A 
ATOM      4  C   UNL A   1     -23.567   0.186  28.133  0.00  0.00    +0.031 A 
ATOM      5  C   UNL A   1     -21.914  -1.036  29.272  0.00  0.00    +0.000 A 
ATOM      6  C   UNL A   1     -23.189  -0.848  28.958  0.00  0.00    +0.002 A 
ATOM      7  C   UNL A   1     -22.896   2.224  26.875  0.00  0.00    +0.027 C 
ATOM      8  C   UNL A   1     -23.710   2.275  26.033  0.00  0.00    +0.013 C 
ATOM      9  C   UNL A   1     -24.447   1.094  25.734  0.00  0.00    +0.070 C 
ATOM     10  C   UNL A   1     -24.574   0.209  26.923  0.00  0.00    +0.173 C 
ATOM     11  O   UNL A   1     -25.529  -0.790  26.948  0.00  0.00    -0.291 OA
ENDROOT
BRANCH   6  12
ATOM     12  C   UNL A   1     -24.267  -1.845  29.319  0.00  0.00    +0.000 A 
ATOM     13  C   UNL A   1     -25.167  -1.662  29.858  0.00  0.00    +0.000 A 
ATOM     14  C   UNL A   1     -26.214  -2.676  30.109  0.00  0.00    +0.000 A 
ATOM     15  C   UNL A   1     -23.881  -3.179  28.728  0.00  0.00    +0.000 A 
ATOM     16  C   UNL A   1     -24.810  -4.219  28.943  0.00  0.00    +0.000 A 
ATOM     17  C   UNL A   1     -25.962  -3.952  29.605  0.00  0.00    +0.000 A 
ENDBRANCH   6  12
TORSDOF 1
ENDMDL
ENDMDL
