REMARK  Name = No_2222-gen_results/8p0m/2024-11-26-14-13-15/
REMARK  1 active torsions:
REMARK  status: ('A' for Active; 'I' for Inactive)
REMARK    1  A    between atoms: C_3  and  C_4
REMARK                            x       y       z     vdW  Elec       q    Type
REMARK                         _______ _______ _______ _____ _____    ______ ____
ROOT
ATOM      1  C   UNL A   1     -25.894  -0.708  29.966  0.00  0.00    -0.001 C 
ATOM      2  C   UNL A   1     -25.880  -1.876  29.186  0.00  0.00    +0.017 C 
ATOM      3  C   UNL A   1     -26.982  -2.179  28.423  0.00  0.00    +0.298 C 
ATOM      4  F   UNL A   1     -26.862  -3.243  27.790  0.00  0.00    -0.199 F 
ATOM      5  O   UNL A   1     -26.473  -2.674  29.160  0.00  0.00    -0.324 OA
ATOM      6  C   UNL A   1     -26.492  -3.891  29.763  0.00  0.00    +0.145 C 
ATOM      7  C   UNL A   1     -26.140  -5.004  29.053  0.00  0.00    +0.032 C 
ATOM      8  C   UNL A   1     -25.144  -4.722  28.201  0.00  0.00    +0.003 C 
ATOM      9  C   UNL A   1     -24.517  -1.738  28.519  0.00  0.00    +0.027 C 
ATOM     10  C   UNL A   1     -24.394  -3.375  27.952  0.00  0.00    +0.005 C 
ENDROOT
BRANCH   1  13
ATOM     11  F   UNL A   1     -28.073  -1.254  28.532  0.00  0.00    -0.202 F 
ATOM     12  C   UNL A   1     -28.266  -0.421  29.193  0.00  0.00    +0.167 C 
ATOM     13  C   UNL A   1     -27.236  -0.057  30.015  0.00  0.00    +0.032 C 
ENDBRANCH   1  13
TORSDOF 1
