MODEL 2222
MODEL 1
REMARK VINA RESULT:    -5.369      0.000      0.000
REMARK INTER + INTRA:          -5.827
REMARK INTER:                  -5.683
REMARK INTRA:                  -0.144
REMARK UNBOUND:                -0.144
REMARK  Name = No_2222-gen_results/8p0m/2024-11-26-14-13-15/
REMARK  1 active torsions:
REMARK  status: ('A' for Active; 'I' for Inactive)
REMARK    1  A    between atoms: C_3  and  C_4
REMARK                            x       y       z     vdW  Elec       q    Type
REMARK                         _______ _______ _______ _____ _____    ______ ____
ROOT
ATOM      1  C   UNL A   1     -22.713  -1.081  29.459  0.00  0.00    -0.001 C 
ATOM      2  C   UNL A   1     -22.816   0.104  28.712  0.00  0.00    +0.017 C 
ATOM      3  C   UNL A   1     -23.657   1.097  29.153  0.00  0.00    +0.298 C 
ATOM      4  F   UNL A   1     -23.679   2.089  28.403  0.00  0.00    -0.199 F 
ATOM      5  O   UNL A   1     -23.587   0.563  28.282  0.00  0.00    -0.324 OA
ATOM      6  C   UNL A   1     -24.171   0.542  27.056  0.00  0.00    +0.145 C 
ATOM      7  C   UNL A   1     -23.975   1.585  26.195  0.00  0.00    +0.032 C 
ATOM      8  C   UNL A   1     -22.726   2.058  26.306  0.00  0.00    +0.003 C 
ATOM      9  C   UNL A   1     -21.340   0.411  28.490  0.00  0.00    +0.027 C 
ATOM     10  C   UNL A   1     -21.558   1.586  27.229  0.00  0.00    +0.005 C 
ENDROOT
BRANCH   1  13
ATOM     11  F   UNL A   1     -22.350  -1.040  32.099  0.00  0.00    -0.202 F 
ATOM     12  C   UNL A   1     -23.399  -1.170  31.873  0.00  0.00    +0.167 C 
ATOM     13  C   UNL A   1     -23.731  -1.173  30.546  0.00  0.00    +0.032 C 
ENDBRANCH   1  13
TORSDOF 1
ENDMDL
ENDMDL
