MODEL 2223
MODEL 1
REMARK VINA RESULT:    -6.505      0.000      0.000
REMARK INTER + INTRA:          -7.820
REMARK INTER:                  -7.266
REMARK INTRA:                  -0.554
REMARK UNBOUND:                -0.554
REMARK  Name = No_2223-gen_results/8p0m/2024-11-26-14-13-15/
REMARK  2 active torsions:
REMARK  status: ('A' for Active; 'I' for Inactive)
REMARK    1  A    between atoms: C_3  and  C_7
REMARK    2  A    between atoms: C_7  and  C_8
REMARK                            x       y       z     vdW  Elec       q    Type
REMARK                         _______ _______ _______ _____ _____    ______ ____
ROOT
ATOM      1  C   UNL A   1     -24.183  -1.454  29.572  0.00  0.00    +0.053 C 
ENDROOT
BRANCH   1   4
ATOM      2  C   UNL A   1     -24.658  -0.083  27.457  0.00  0.00    -0.004 A 
ATOM      3  C   UNL A   1     -24.339   0.685  26.810  0.00  0.00    -0.000 A 
ATOM      4  C   UNL A   1     -23.825  -0.414  28.549  0.00  0.00    -0.018 A 
ATOM      5  C   UNL A   1     -22.622   0.228  28.770  0.00  0.00    -0.004 A 
ATOM      6  C   UNL A   1     -23.121   1.519  26.822  0.00  0.00    -0.000 A 
ATOM      7  C   UNL A   1     -22.294   1.234  27.852  0.00  0.00    -0.000 A 
ENDBRANCH   1   4
BRANCH   1   8
ATOM      8  C   UNL A   1     -24.787  -2.469  29.205  0.00  0.00    -0.018 A 
ATOM      9  C   UNL A   1     -25.960  -3.007  29.819  0.00  0.00    -0.004 A 
ATOM     10  C   UNL A   1     -26.247  -4.417  29.674  0.00  0.00    -0.000 A 
ATOM     11  C   UNL A   1     -25.288  -5.253  29.061  0.00  0.00    -0.000 A 
ATOM     12  C   UNL A   1     -24.094  -4.768  28.618  0.00  0.00    -0.000 A 
ATOM     13  C   UNL A   1     -23.797  -3.452  28.687  0.00  0.00    -0.004 A 
ENDBRANCH   1   8
TORSDOF 2
ENDMDL
ENDMDL
