MODEL 2224
MODEL 1
REMARK VINA RESULT:    -7.451      0.000      0.000
REMARK INTER + INTRA:         -10.653
REMARK INTER:                  -9.629
REMARK INTRA:                  -1.024
REMARK UNBOUND:                -1.024
REMARK  Name = No_2224-gen_results/8p0m/2024-11-26-14-13-15/
REMARK  5 active torsions:
REMARK  status: ('A' for Active; 'I' for Inactive)
REMARK    1  A    between atoms: C_1  and  C_2
REMARK    2  A    between atoms: C_1  and  C_8
REMARK    3  A    between atoms: C_3  and  C_14
REMARK    4  A    between atoms: C_5  and  C_10
REMARK    5  A    between atoms: C_14  and  C_15
REMARK                            x       y       z     vdW  Elec       q    Type
REMARK                         _______ _______ _______ _____ _____    ______ ____
ROOT
ATOM      1  C   UNL A   1     -23.544   0.528  28.227  0.00  0.00    -0.008 A 
ATOM      2  C   UNL A   1     -24.693  -0.239  28.330  0.00  0.00    +0.036 A 
ATOM      3  C   UNL A   1     -25.722  -0.374  27.328  0.00  0.00    +0.009 A 
ATOM      4  C   UNL A   1     -25.580   0.336  26.112  0.00  0.00    +0.080 A 
ATOM      5  C   UNL A   1     -24.425   1.144  25.944  0.00  0.00    +0.006 A 
ATOM      6  C   UNL A   1     -23.496   1.184  26.936  0.00  0.00    -0.003 A 
ENDROOT
BRANCH   4   7
ATOM      7  C   UNL A   1     -26.724   0.332  25.300  0.00  0.00    +0.388 C 
ATOM      8  O   UNL A   1     -27.822   0.290  25.896  0.00  0.00    -0.241 OA
ATOM      9  O   UNL A   1     -26.705   0.677  24.050  0.00  0.00    -0.241 OA
ENDBRANCH   4   7
BRANCH   2  10
ATOM     10  C   UNL A   1     -24.884  -1.095  29.510  0.00  0.00    +0.195 C 
ATOM     11  O   UNL A   1     -25.335  -0.507  30.509  0.00  0.00    -0.287 OA
BRANCH  10  12
ATOM     12  C   UNL A   1     -24.927  -2.446  29.323  0.00  0.00    +0.039 A 
ATOM     13  C   UNL A   1     -23.983  -3.063  28.805  0.00  0.00    +0.003 A 
ATOM     14  C   UNL A   1     -23.983  -4.532  28.576  0.00  0.00    +0.000 A 
ATOM     15  C   UNL A   1     -26.087  -3.183  29.743  0.00  0.00    +0.003 A 
ATOM     16  C   UNL A   1     -26.200  -4.557  29.587  0.00  0.00    +0.000 A 
ATOM     17  C   UNL A   1     -25.080  -5.228  29.032  0.00  0.00    +0.000 A 
ENDBRANCH  10  12
ENDBRANCH   2  10
BRANCH   1  18
ATOM     18  C   UNL A   1     -22.661   0.572  29.052  0.00  0.00    +0.141 C 
BRANCH  18  19
ATOM     19  C   UNL A   1     -21.424  -0.168  28.682  0.00  0.00    +0.369 C 
ATOM     20  O   UNL A   1     -20.413   0.528  28.103  0.00  0.00    -0.245 OA
ATOM     21  O   UNL A   1     -21.179  -1.333  28.938  0.00  0.00    -0.245 OA
ENDBRANCH  18  19
ENDBRANCH   1  18
TORSDOF 5
ENDMDL
ENDMDL
