REMARK  Name = No_2224-gen_results/8p0m/2024-11-26-14-13-15/
REMARK  5 active torsions:
REMARK  status: ('A' for Active; 'I' for Inactive)
REMARK    1  A    between atoms: C_1  and  C_2
REMARK    2  A    between atoms: C_1  and  C_8
REMARK    3  A    between atoms: C_3  and  C_14
REMARK    4  A    between atoms: C_5  and  C_10
REMARK    5  A    between atoms: C_14  and  C_15
REMARK                            x       y       z     vdW  Elec       q    Type
REMARK                         _______ _______ _______ _____ _____    ______ ____
ROOT
ATOM      1  C   UNL A   1     -27.064  -0.119  28.608  0.00  0.00    -0.008 A 
ATOM      2  C   UNL A   1     -26.972   0.714  27.506  0.00  0.00    +0.036 A 
ATOM      3  C   UNL A   1     -25.820   1.491  27.116  0.00  0.00    +0.009 A 
ATOM      4  C   UNL A   1     -24.656   1.424  27.918  0.00  0.00    +0.080 A 
ATOM      5  C   UNL A   1     -24.685   0.590  29.066  0.00  0.00    +0.006 A 
ATOM      6  C   UNL A   1     -25.810  -0.127  29.334  0.00  0.00    -0.003 A 
ENDROOT
BRANCH   4   7
ATOM      7  C   UNL A   1     -23.677   2.378  27.601  0.00  0.00    +0.388 C 
ATOM      8  O   UNL A   1     -22.701   2.445  28.379  0.00  0.00    -0.241 OA
ATOM      9  O   UNL A   1     -23.584   2.934  26.433  0.00  0.00    -0.241 OA
ENDBRANCH   4   7
BRANCH   2  10
ATOM     10  C   UNL A   1     -28.090   0.773  26.553  0.00  0.00    +0.195 C 
ATOM     11  O   UNL A   1     -28.277  -0.274  25.909  0.00  0.00    -0.287 OA
BRANCH  10  12
ATOM     12  C   UNL A   1     -29.021   1.758  26.715  0.00  0.00    +0.039 A 
ATOM     13  C   UNL A   1     -28.756   2.813  27.312  0.00  0.00    +0.003 A 
ATOM     14  C   UNL A   1     -29.734   3.913  27.519  0.00  0.00    +0.000 A 
ATOM     15  C   UNL A   1     -30.340   1.582  26.174  0.00  0.00    +0.003 A 
ATOM     16  C   UNL A   1     -31.335   2.541  26.297  0.00  0.00    +0.000 A 
ATOM     17  C   UNL A   1     -30.977   3.749  26.948  0.00  0.00    +0.000 A 
ENDBRANCH  10  12
ENDBRANCH   2  10
BRANCH   1  18
ATOM     18  C   UNL A   1     -28.016  -0.814  28.878  0.00  0.00    +0.141 C 
BRANCH  18  19
ATOM     19  C   UNL A   1     -28.694  -0.473  30.159  0.00  0.00    +0.369 C 
ATOM     20  O   UNL A   1     -29.649  -1.318  30.620  0.00  0.00    -0.245 OA
ATOM     21  O   UNL A   1     -28.407   0.449  30.901  0.00  0.00    -0.245 OA
ENDBRANCH  18  19
ENDBRANCH   1  18
TORSDOF 5
