MODEL 2225
MODEL 1
REMARK VINA RESULT:    -7.358      0.000      0.000
REMARK INTER + INTRA:          -8.790
REMARK INTER:                  -8.218
REMARK INTRA:                  -0.572
REMARK UNBOUND:                -0.572
REMARK  Name = No_2225-gen_results/8p0m/2024-11-26-14-13-15/
REMARK  2 active torsions:
REMARK  status: ('A' for Active; 'I' for Inactive)
REMARK    1  A    between atoms: C_3  and  C_11
REMARK    2  A    between atoms: C_5  and  C_7
REMARK                            x       y       z     vdW  Elec       q    Type
REMARK                         _______ _______ _______ _____ _____    ______ ____
ROOT
ATOM      1  C   UNL A   1     -21.829  -0.139  29.153  0.00  0.00    -0.000 A 
ATOM      2  C   UNL A   1     -22.475  -1.154  29.273  0.00  0.00    -0.000 A 
ATOM      3  C   UNL A   1     -23.699  -1.395  28.672  0.00  0.00    -0.000 A 
ATOM      4  C   UNL A   1     -24.218  -0.373  27.824  0.00  0.00    +0.004 A 
ATOM      5  C   UNL A   1     -23.404   0.678  27.595  0.00  0.00    +0.071 A 
ATOM      6  C   UNL A   1     -22.198   0.771  28.160  0.00  0.00    +0.004 A 
ENDROOT
BRANCH   3   7
ATOM      7  C   UNL A   1     -24.533  -2.621  29.024  0.00  0.00    -0.000 A 
ATOM      8  C   UNL A   1     -25.760  -2.432  29.511  0.00  0.00    -0.000 A 
ATOM      9  C   UNL A   1     -26.525  -3.662  29.909  0.00  0.00    -0.000 A 
ATOM     10  C   UNL A   1     -25.983  -4.902  29.500  0.00  0.00    +0.000 A 
ATOM     11  C   UNL A   1     -24.142  -3.951  28.774  0.00  0.00    -0.000 A 
ATOM     12  C   UNL A   1     -24.758  -5.050  29.075  0.00  0.00    -0.000 A 
ENDBRANCH   3   7
BRANCH   5  13
ATOM     13  C   UNL A   1     -24.124   1.654  26.691  0.00  0.00    +0.419 C 
ATOM     14  F   UNL A   1     -25.213   1.759  26.827  0.00  0.00    -0.166 F 
ATOM     15  F   UNL A   1     -23.938   1.126  25.415  0.00  0.00    -0.166 F 
ATOM     16  F   UNL A   1     -23.470   2.835  26.562  0.00  0.00    -0.166 F 
ENDBRANCH   5  13
TORSDOF 2
ENDMDL
ENDMDL
