REMARK  Name = No_2225-gen_results/8p0m/2024-11-26-14-13-15/
REMARK  2 active torsions:
REMARK  status: ('A' for Active; 'I' for Inactive)
REMARK    1  A    between atoms: C_3  and  C_11
REMARK    2  A    between atoms: C_5  and  C_7
REMARK                            x       y       z     vdW  Elec       q    Type
REMARK                         _______ _______ _______ _____ _____    ______ ____
ROOT
ATOM      1  C   UNL A   1     -28.016  -0.814  28.878  0.00  0.00    -0.000 A 
ATOM      2  C   UNL A   1     -27.064  -0.119  28.608  0.00  0.00    -0.000 A 
ATOM      3  C   UNL A   1     -26.972   0.714  27.506  0.00  0.00    -0.000 A 
ATOM      4  C   UNL A   1     -28.105   0.774  26.642  0.00  0.00    +0.004 A 
ATOM      5  C   UNL A   1     -29.201   0.104  27.053  0.00  0.00    +0.071 A 
ATOM      6  C   UNL A   1     -29.210  -0.603  28.185  0.00  0.00    +0.004 A 
ENDROOT
BRANCH   3   7
ATOM      7  C   UNL A   1     -25.668   1.411  27.139  0.00  0.00    -0.000 A 
ATOM      8  C   UNL A   1     -24.549   1.022  27.752  0.00  0.00    -0.000 A 
ATOM      9  C   UNL A   1     -23.296   1.779  27.413  0.00  0.00    -0.000 A 
ATOM     10  C   UNL A   1     -23.367   2.652  26.304  0.00  0.00    +0.000 A 
ATOM     11  C   UNL A   1     -25.536   2.372  26.117  0.00  0.00    -0.000 A 
ATOM     12  C   UNL A   1     -24.488   3.046  25.765  0.00  0.00    -0.000 A 
ENDBRANCH   3   7
BRANCH   5  13
ATOM     13  C   UNL A   1     -30.285   0.274  26.012  0.00  0.00    +0.419 C 
ATOM     14  F   UNL A   1     -30.900   1.187  26.068  0.00  0.00    -0.166 F 
ATOM     15  F   UNL A   1     -31.147  -0.794  26.251  0.00  0.00    -0.166 F 
ATOM     16  F   UNL A   1     -29.865  -0.029  24.759  0.00  0.00    -0.166 F 
ENDBRANCH   5  13
TORSDOF 2
