REMARK  Name = No_2226-gen_results/8p0m/2024-11-26-14-13-15/
REMARK  2 active torsions:
REMARK  status: ('A' for Active; 'I' for Inactive)
REMARK    1  A    between atoms: C_3  and  C_4
REMARK    2  A    between atoms: C_6  and  C_13
REMARK                            x       y       z     vdW  Elec       q    Type
REMARK                         _______ _______ _______ _____ _____    ______ ____
ROOT
ATOM      1  C   UNL A   1     -29.050  -2.728  30.296  0.00  0.00    +0.117 C 
ATOM      2  N   UNL A   1     -28.943  -4.008  30.511  0.00  0.00    -0.209 NA
ATOM      3  C   UNL A   1     -29.970  -4.886  30.250  0.00  0.00    +0.113 C 
ATOM      4  C   UNL A   1     -31.144  -4.546  30.798  0.00  0.00    +0.123 C 
ATOM      5  C   UNL A   1     -31.481  -3.121  30.700  0.00  0.00    -0.003 C 
ATOM      6  C   UNL A   1     -30.389  -2.184  30.460  0.00  0.00    -0.007 C 
ATOM      7 CL   UNL A   1     -32.509  -5.530  30.155  0.00  0.00    -0.106 Cl
ATOM      8  C   UNL A   1     -31.078  -5.103  32.245  0.00  0.00    +0.031 A 
ATOM      9  C   UNL A   1     -31.017  -6.240  32.472  0.00  0.00    +0.000 A 
ATOM     10  C   UNL A   1     -31.139  -6.809  33.322  0.00  0.00    -0.000 A 
ATOM     11  C   UNL A   1     -31.145  -6.093  34.698  0.00  0.00    +0.003 A 
ATOM     12  C   UNL A   1     -31.153  -4.725  34.597  0.00  0.00    +0.037 A 
ATOM     13  C   UNL A   1     -31.137  -4.177  33.393  0.00  0.00    +0.143 A 
ATOM     14  C   UNL A   1     -32.745  -2.598  31.023  0.00  0.00    +0.032 A 
ATOM     15  C   UNL A   1     -33.444  -1.957  30.572  0.00  0.00    +0.003 A 
ATOM     16  C   UNL A   1     -34.757  -1.501  31.019  0.00  0.00    +0.000 A 
ATOM     17  C   UNL A   1     -35.210  -2.132  32.199  0.00  0.00    +0.003 A 
ATOM     18  C   UNL A   1     -34.412  -3.032  32.852  0.00  0.00    +0.037 A 
ATOM     19  C   UNL A   1     -33.144  -3.318  32.374  0.00  0.00    +0.145 A 
ATOM     20  O   UNL A   1     -32.415  -3.365  33.297  0.00  0.00    -0.454 OA
ENDROOT
BRANCH   1  24
ATOM     21  C   UNL A   1     -28.016  -0.814  28.878  0.00  0.00    -0.003 A 
ATOM     22  C   UNL A   1     -27.064  -0.119  28.608  0.00  0.00    -0.000 A 
ATOM     23  C   UNL A   1     -25.792  -0.430  29.076  0.00  0.00    +0.000 A 
ATOM     24  C   UNL A   1     -27.882  -1.899  29.863  0.00  0.00    -0.002 A 
ATOM     25  C   UNL A   1     -26.653  -2.314  30.314  0.00  0.00    -0.003 A 
ATOM     26  C   UNL A   1     -25.515  -1.561  29.979  0.00  0.00    -0.000 A 
BRANCH  23  27
ATOM     27  C   UNL A   1     -24.546   0.349  28.823  0.00  0.00    +0.003 A 
ATOM     28  C   UNL A   1     -23.241   0.022  29.332  0.00  0.00    +0.000 A 
ATOM     29  C   UNL A   1     -22.165   0.794  28.952  0.00  0.00    +0.003 A 
ATOM     30  C   UNL A   1     -22.124   1.748  27.989  0.00  0.00    +0.042 A 
ATOM     31  C   UNL A   1     -24.523   1.378  27.795  0.00  0.00    +0.042 A 
ATOM     32  C   UNL A   1     -23.339   2.042  27.430  0.00  0.00    +0.196 A 
ATOM     33  O   UNL A   1     -23.452   2.992  26.467  0.00  0.00    -0.287 OA
ENDBRANCH  23  27
ENDBRANCH   1  24
TORSDOF 2
