REMARK  Name = No_2227-gen_results/8p0m/2024-11-26-14-13-15/
REMARK  1 active torsions:
REMARK  status: ('A' for Active; 'I' for Inactive)
REMARK    1  A    between atoms: C_3  and  C_4
REMARK                            x       y       z     vdW  Elec       q    Type
REMARK                         _______ _______ _______ _____ _____    ______ ____
ROOT
ATOM      1  C   UNL A   1     -28.016  -0.814  28.878  0.00  0.00    +0.004 C 
ATOM      2  C   UNL A   1     -28.469  -0.785  29.829  0.00  0.00    +0.000 C 
ATOM      3  C   UNL A   1     -26.504  -0.778  28.877  0.00  0.00    +0.022 C 
ATOM      4  C   UNL A   1     -27.983  -1.490  31.082  0.00  0.00    +0.000 C 
ATOM      5  C   UNL A   1     -26.606  -1.598  31.130  0.00  0.00    +0.000 C 
ATOM      6  C   UNL A   1     -25.808  -1.251  30.055  0.00  0.00    +0.004 C 
ENDROOT
BRANCH   3   7
ATOM      7  C   UNL A   1     -25.762  -0.002  27.971  0.00  0.00    -0.022 A 
ATOM      8  C   UNL A   1     -26.174   0.380  26.820  0.00  0.00    -0.004 A 
ATOM      9  C   UNL A   1     -25.770   1.075  26.085  0.00  0.00    -0.000 A 
ATOM     10  C   UNL A   1     -24.335   1.566  26.087  0.00  0.00    -0.000 A 
ATOM     11  C   UNL A   1     -23.713   1.167  27.334  0.00  0.00    -0.000 A 
ATOM     12  C   UNL A   1     -24.381   0.485  28.220  0.00  0.00    -0.004 A 
ENDBRANCH   3   7
TORSDOF 1
