MODEL 2227
MODEL 1
REMARK VINA RESULT:    -6.494      0.000      0.000
REMARK INTER + INTRA:          -7.285
REMARK INTER:                  -6.874
REMARK INTRA:                  -0.411
REMARK UNBOUND:                -0.411
REMARK  Name = No_2227-gen_results/8p0m/2024-11-26-14-13-15/
REMARK  1 active torsions:
REMARK  status: ('A' for Active; 'I' for Inactive)
REMARK    1  A    between atoms: C_3  and  C_4
REMARK                            x       y       z     vdW  Elec       q    Type
REMARK                         _______ _______ _______ _____ _____    ______ ____
ROOT
ATOM      1  C   UNL A   1     -24.547  -0.137  28.062  0.00  0.00    +0.004 C 
ATOM      2  C   UNL A   1     -23.878   0.437  27.485  0.00  0.00    +0.000 C 
ATOM      3  C   UNL A   1     -23.912  -1.217  28.910  0.00  0.00    +0.022 C 
ATOM      4  C   UNL A   1     -22.505   0.923  27.912  0.00  0.00    +0.000 C 
ATOM      5  C   UNL A   1     -21.876   0.046  28.775  0.00  0.00    +0.000 C 
ATOM      6  C   UNL A   1     -22.530  -1.051  29.306  0.00  0.00    +0.004 C 
ENDROOT
BRANCH   3   7
ATOM      7  C   UNL A   1     -24.457  -2.507  29.033  0.00  0.00    -0.022 A 
ATOM      8  C   UNL A   1     -23.912  -3.580  28.595  0.00  0.00    -0.004 A 
ATOM      9  C   UNL A   1     -24.148  -4.635  28.729  0.00  0.00    -0.000 A 
ATOM     10  C   UNL A   1     -25.482  -5.143  29.242  0.00  0.00    -0.000 A 
ATOM     11  C   UNL A   1     -26.242  -4.015  29.744  0.00  0.00    -0.000 A 
ATOM     12  C   UNL A   1     -25.754  -2.809  29.689  0.00  0.00    -0.004 A 
ENDBRANCH   3   7
TORSDOF 1
ENDMDL
ENDMDL
