MODEL 2229
MODEL 1
REMARK VINA RESULT:    -7.554      0.000      0.000
REMARK INTER + INTRA:          -9.997
REMARK INTER:                  -9.320
REMARK INTRA:                  -0.676
REMARK UNBOUND:                -0.676
REMARK  Name = No_2229-gen_results/8p0m/2024-11-26-14-13-15/
REMARK  4 active torsions:
REMARK  status: ('A' for Active; 'I' for Inactive)
REMARK    1  A    between atoms: C_1  and  C_8
REMARK    2  A    between atoms: C_4  and  C_17
REMARK    3  A    between atoms: C_5  and  C_10
REMARK    4  A    between atoms: C_17  and  C_18
REMARK                            x       y       z     vdW  Elec       q    Type
REMARK                         _______ _______ _______ _____ _____    ______ ____
ROOT
ATOM      1  C   UNL A   1     -23.783  -1.256  29.545  0.00  0.00    -0.009 C 
ATOM      2  C   UNL A   1     -23.733  -0.496  28.606  0.00  0.00    -0.044 C 
ATOM      3  C   UNL A   1     -24.523  -0.450  27.571  0.00  0.00    +0.023 C 
ATOM      4  C   UNL A   1     -24.431   0.504  26.439  0.00  0.00    +0.024 C 
ATOM      5  C   UNL A   1     -23.406   1.489  26.523  0.00  0.00    +0.104 C 
ATOM      6  C   UNL A   1     -22.610   1.482  27.639  0.00  0.00    +0.016 C 
ATOM      7  C   UNL A   1     -22.736   0.602  28.660  0.00  0.00    +0.023 C 
ENDROOT
BRANCH   1   8
ATOM      8  C   UNL A   1     -24.488  -2.467  29.316  0.00  0.00    -0.001 A 
ATOM      9  C   UNL A   1     -25.774  -2.589  29.788  0.00  0.00    -0.000 A 
ATOM     10  C   UNL A   1     -26.406  -3.817  29.872  0.00  0.00    -0.000 A 
ATOM     11  C   UNL A   1     -25.771  -4.907  29.315  0.00  0.00    -0.000 A 
ATOM     12  C   UNL A   1     -24.501  -4.809  28.847  0.00  0.00    -0.000 A 
ATOM     13  C   UNL A   1     -23.817  -3.620  28.914  0.00  0.00    -0.000 A 
ENDBRANCH   1   8
BRANCH   5  14
ATOM     14  C   UNL A   1     -23.235   2.489  25.487  0.00  0.00    +0.364 C 
ATOM     15  O   UNL A   1     -22.361   2.579  24.773  0.00  0.00    -0.246 OA
ATOM     16  O   UNL A   1     -24.076   3.688  25.671  0.00  0.00    -0.246 OA
ENDBRANCH   5  14
BRANCH   4  17
ATOM     17  C   UNL A   1     -25.321   0.480  25.260  0.00  0.00    +0.089 C 
BRANCH  17  18
ATOM     18  C   UNL A   1     -26.583   0.755  25.321  0.00  0.00    +0.261 C 
ATOM     19  O   UNL A   1     -27.312   0.046  25.028  0.00  0.00    -0.272 OA
ATOM     20  N   UNL A   1     -26.914   1.782  26.265  0.00  0.00    -0.088 NA
ENDBRANCH  17  18
ENDBRANCH   4  17
TORSDOF 4
ENDMDL
ENDMDL
