REMARK  Name = No_223-gen_results/8p0m/2024-11-26-14-13-15/
REMARK  3 active torsions:
REMARK  status: ('A' for Active; 'I' for Inactive)
REMARK    1  A    between atoms: C_3  and  N_21
REMARK    2  A    between atoms: C_4  and  C_6
REMARK    3  A    between atoms: N_21  and  C_22
REMARK                            x       y       z     vdW  Elec       q    Type
REMARK                         _______ _______ _______ _____ _____    ______ ____
ROOT
ATOM      1  C   UNL A   1     -29.224   2.492  27.543  0.00  0.00    +0.067 C 
ATOM      2  C   UNL A   1     -28.630   3.526  27.987  0.00  0.00    -0.018 A 
ATOM      3  C   UNL A   1     -27.813   3.690  28.936  0.00  0.00    -0.004 A 
ATOM      4  C   UNL A   1     -27.116   4.963  29.241  0.00  0.00    -0.000 A 
ATOM      5  C   UNL A   1     -27.288   5.989  28.343  0.00  0.00    -0.000 A 
ATOM      6  C   UNL A   1     -28.089   5.902  27.259  0.00  0.00    -0.004 A 
ATOM      7  C   UNL A   1     -28.761   4.718  27.016  0.00  0.00    -0.021 A 
ATOM      8  C   UNL A   1     -30.090   2.244  26.441  0.00  0.00    -0.018 A 
ATOM      9  C   UNL A   1     -30.465   1.065  25.965  0.00  0.00    -0.004 A 
ATOM     10  C   UNL A   1     -31.250   1.007  24.866  0.00  0.00    -0.000 A 
ATOM     11  C   UNL A   1     -30.646   3.375  25.762  0.00  0.00    -0.021 A 
ATOM     12  C   UNL A   1     -31.446   3.292  24.665  0.00  0.00    -0.004 A 
ATOM     13  C   UNL A   1     -31.718   2.035  24.239  0.00  0.00    -0.000 A 
ATOM     14  C   UNL A   1     -29.786   4.501  25.984  0.00  0.00    +0.052 C 
ENDROOT
BRANCH   1  18
ATOM     15  C   UNL A   1     -28.016  -0.814  28.878  0.00  0.00    +0.016 A 
ATOM     16  C   UNL A   1     -28.469  -0.785  29.829  0.00  0.00    +0.001 A 
ATOM     17  C   UNL A   1     -28.196   0.348  28.055  0.00  0.00    +0.067 A 
ATOM     18  C   UNL A   1     -29.019   1.350  28.378  0.00  0.00    +0.001 A 
ATOM     19  C   UNL A   1     -29.411   0.180  30.378  0.00  0.00    -0.000 A 
ATOM     20  C   UNL A   1     -29.587   1.224  29.619  0.00  0.00    -0.002 A 
BRANCH  17  21
ATOM     21  N   UNL A   1     -27.557   0.493  26.849  0.00  0.00    -0.211 NA
BRANCH  21  22
ATOM     22  C   UNL A   1     -26.186   0.496  26.670  0.00  0.00    +0.086 C 
ATOM     23  C   UNL A   1     -25.651   0.695  25.411  0.00  0.00    +0.019 C 
ENDBRANCH  21  22
ENDBRANCH  17  21
ENDBRANCH   1  18
TORSDOF 3
