REMARK  Name = No_2230-gen_results/8p0m/2024-11-26-14-13-15/
REMARK  3 active torsions:
REMARK  status: ('A' for Active; 'I' for Inactive)
REMARK    1  A    between atoms: C_7  and  C_8
REMARK    2  A    between atoms: C_13  and  N_14
REMARK    3  A    between atoms: N_14  and  C_15
REMARK                            x       y       z     vdW  Elec       q    Type
REMARK                         _______ _______ _______ _____ _____    ______ ____
ROOT
ATOM      1  C   UNL A   1     -27.575   0.856  26.591  0.00  0.00    +0.016 A 
ATOM      2  C   UNL A   1     -28.568   1.020  25.770  0.00  0.00    +0.001 A 
ATOM      3  C   UNL A   1     -28.634   0.445  24.476  0.00  0.00    +0.000 A 
ATOM      4  C   UNL A   1     -27.537  -0.349  24.037  0.00  0.00    +0.001 A 
ATOM      5  C   UNL A   1     -26.437  -0.483  24.864  0.00  0.00    +0.017 A 
ATOM      6  C   UNL A   1     -26.418   0.051  26.160  0.00  0.00    +0.070 A 
ENDROOT
BRANCH   1  13
ATOM      7 CL   UNL A   1     -28.149  -0.820  28.908  0.00  0.00    -0.082 Cl
ATOM      8  C   UNL A   1     -27.834   0.496  29.060  0.00  0.00    +0.058 A 
ATOM      9  C   UNL A   1     -27.602   1.013  30.297  0.00  0.00    +0.011 A 
ATOM     10  C   UNL A   1     -27.170   2.396  30.534  0.00  0.00    +0.002 A 
ATOM     11  C   UNL A   1     -26.913   3.183  29.368  0.00  0.00    +0.019 A 
ATOM     12  C   UNL A   1     -27.055   2.622  28.138  0.00  0.00    +0.004 A 
ATOM     13  C   UNL A   1     -27.462   1.335  27.967  0.00  0.00    +0.012 A 
ATOM     14  C   UNL A   1     -26.752   3.587  27.022  0.00  0.00    +0.021 A 
ATOM     15  C   UNL A   1     -26.431   4.576  29.599  0.00  0.00    +0.099 A 
ATOM     16  N   UNL A   1     -26.146   5.359  28.533  0.00  0.00    -0.242 NA
ATOM     17  C   UNL A   1     -26.266   4.906  27.271  0.00  0.00    +0.099 A 
ENDBRANCH   1  13
BRANCH   6  18
ATOM     18  N   UNL A   1     -25.339  -0.213  26.966  0.00  0.00    -0.212 NA
BRANCH  18  19
ATOM     19  C   UNL A   1     -24.150   0.524  27.075  0.00  0.00    +0.070 A 
ATOM     20  C   UNL A   1     -23.904   1.770  26.511  0.00  0.00    +0.017 A 
ATOM     21  C   UNL A   1     -23.418   0.338  28.339  0.00  0.00    +0.017 A 
ATOM     22  C   UNL A   1     -22.265   1.018  28.531  0.00  0.00    +0.001 A 
ATOM     23  C   UNL A   1     -22.731   2.466  26.650  0.00  0.00    +0.001 A 
ATOM     24  C   UNL A   1     -21.897   2.082  27.718  0.00  0.00    +0.000 A 
ENDBRANCH  18  19
ENDBRANCH   6  18
TORSDOF 3
