MODEL 2230
MODEL 1
REMARK VINA RESULT:    -7.839      0.000      0.000
REMARK INTER + INTRA:         -10.654
REMARK INTER:                  -9.214
REMARK INTRA:                  -1.440
REMARK UNBOUND:                -1.440
REMARK  Name = No_2230-gen_results/8p0m/2024-11-26-14-13-15/
REMARK  3 active torsions:
REMARK  status: ('A' for Active; 'I' for Inactive)
REMARK    1  A    between atoms: C_7  and  C_8
REMARK    2  A    between atoms: C_13  and  N_14
REMARK    3  A    between atoms: N_14  and  C_15
REMARK                            x       y       z     vdW  Elec       q    Type
REMARK                         _______ _______ _______ _____ _____    ______ ____
ROOT
ATOM      1  C   UNL A   1     -24.842   0.657  30.901  0.00  0.00    +0.016 A 
ATOM      2  C   UNL A   1     -24.963   1.416  31.948  0.00  0.00    +0.001 A 
ATOM      3  C   UNL A   1     -26.083   1.400  32.817  0.00  0.00    +0.000 A 
ATOM      4  C   UNL A   1     -27.153   0.510  32.518  0.00  0.00    +0.001 A 
ATOM      5  C   UNL A   1     -27.080  -0.260  31.372  0.00  0.00    +0.017 A 
ATOM      6  C   UNL A   1     -25.940  -0.265  30.557  0.00  0.00    +0.070 A 
ENDROOT
BRANCH   1  13
ATOM      7 CL   UNL A   1     -22.575  -1.098  31.437  0.00  0.00    -0.082 Cl
ATOM      8  C   UNL A   1     -22.575  -0.269  30.357  0.00  0.00    +0.058 A 
ATOM      9  C   UNL A   1     -21.606  -0.370  29.407  0.00  0.00    +0.011 A 
ATOM     10  C   UNL A   1     -21.589   0.423  28.173  0.00  0.00    +0.002 A 
ATOM     11  C   UNL A   1     -22.715   1.278  27.959  0.00  0.00    +0.019 A 
ATOM     12  C   UNL A   1     -23.724   1.296  28.870  0.00  0.00    +0.004 A 
ATOM     13  C   UNL A   1     -23.694   0.544  30.004  0.00  0.00    +0.012 A 
ATOM     14  C   UNL A   1     -24.826   2.252  28.497  0.00  0.00    +0.021 A 
ATOM     15  C   UNL A   1     -22.728   2.056  26.686  0.00  0.00    +0.099 A 
ATOM     16  N   UNL A   1     -23.781   2.862  26.417  0.00  0.00    -0.242 NA
ATOM     17  C   UNL A   1     -24.826   2.963  27.259  0.00  0.00    +0.099 A 
ENDBRANCH   1  13
BRANCH   6  18
ATOM     18  N   UNL A   1     -25.892  -1.134  29.496  0.00  0.00    -0.212 NA
BRANCH  18  19
ATOM     19  C   UNL A   1     -25.569  -2.500  29.520  0.00  0.00    +0.070 A 
ATOM     20  C   UNL A   1     -26.459  -3.549  29.715  0.00  0.00    +0.017 A 
ATOM     21  C   UNL A   1     -24.444  -2.887  28.653  0.00  0.00    +0.017 A 
ATOM     22  C   UNL A   1     -24.071  -4.186  28.609  0.00  0.00    +0.001 A 
ATOM     23  C   UNL A   1     -26.107  -4.874  29.720  0.00  0.00    +0.001 A 
ATOM     24  C   UNL A   1     -24.874  -5.197  29.121  0.00  0.00    +0.000 A 
ENDBRANCH  18  19
ENDBRANCH   6  18
TORSDOF 3
ENDMDL
ENDMDL
