MODEL 2231
MODEL 1
REMARK VINA RESULT:    -7.318      0.000      0.000
REMARK INTER + INTRA:         -10.158
REMARK INTER:                  -9.457
REMARK INTRA:                  -0.701
REMARK UNBOUND:                -0.701
REMARK  Name = No_2231-gen_results/8p0m/2024-11-26-14-13-15/
REMARK  5 active torsions:
REMARK  status: ('A' for Active; 'I' for Inactive)
REMARK    1  A    between atoms: C_1  and  C_2
REMARK    2  A    between atoms: C_1  and  C_3
REMARK    3  A    between atoms: C_2  and  C_5
REMARK    4  A    between atoms: C_2  and  C_17
REMARK    5  A    between atoms: C_7  and  C_8
REMARK                            x       y       z     vdW  Elec       q    Type
REMARK                         _______ _______ _______ _____ _____    ______ ____
ROOT
ATOM      1  C   UNL A   1     -22.932  -1.490  28.940  0.00  0.00    +0.031 C 
ENDROOT
BRANCH   1   2
ATOM      2  C   UNL A   1     -23.226  -0.180  28.361  0.00  0.00    -0.022 A 
ATOM      3  C   UNL A   1     -24.363   0.083  27.679  0.00  0.00    -0.004 A 
ATOM      4  C   UNL A   1     -24.413   1.066  26.599  0.00  0.00    -0.000 A 
ATOM      5  C   UNL A   1     -23.332   1.987  26.458  0.00  0.00    -0.000 A 
ATOM      6  C   UNL A   1     -22.277   1.937  27.426  0.00  0.00    -0.000 A 
ATOM      7  C   UNL A   1     -22.122   0.772  28.189  0.00  0.00    -0.004 A 
BRANCH   5   8
ATOM      8  C   UNL A   1     -23.356   2.986  25.450  0.00  0.00    -0.000 C 
ATOM      9  C   UNL A   1     -24.156   3.813  25.630  0.00  0.00    -0.000 C 
ENDBRANCH   5   8
ENDBRANCH   1   2
BRANCH   1  10
ATOM     10  C   UNL A   1     -23.515  -1.718  29.787  0.00  0.00    +0.027 C 
BRANCH  10  11
ATOM     11  C   UNL A   1     -24.500  -2.779  29.746  0.00  0.00    -0.022 A 
ATOM     12  C   UNL A   1     -24.280  -4.144  29.278  0.00  0.00    -0.004 A 
ATOM     13  C   UNL A   1     -25.210  -5.071  29.206  0.00  0.00    -0.000 A 
ATOM     14  C   UNL A   1     -26.540  -4.686  29.623  0.00  0.00    -0.000 A 
ATOM     15  C   UNL A   1     -26.794  -3.437  30.049  0.00  0.00    -0.000 A 
ATOM     16  C   UNL A   1     -25.795  -2.531  30.091  0.00  0.00    -0.004 A 
ENDBRANCH  10  11
BRANCH  10  17
ATOM     17  C   UNL A   1     -23.384  -1.207  31.246  0.00  0.00    +0.005 C 
ATOM     18  C   UNL A   1     -24.303  -1.089  32.199  0.00  0.00    +0.000 C 
ENDBRANCH  10  17
ENDBRANCH   1  10
TORSDOF 5
ENDMDL
ENDMDL
