REMARK  Name = No_2231-gen_results/8p0m/2024-11-26-14-13-15/
REMARK  5 active torsions:
REMARK  status: ('A' for Active; 'I' for Inactive)
REMARK    1  A    between atoms: C_1  and  C_2
REMARK    2  A    between atoms: C_1  and  C_3
REMARK    3  A    between atoms: C_2  and  C_5
REMARK    4  A    between atoms: C_2  and  C_17
REMARK    5  A    between atoms: C_7  and  C_8
REMARK                            x       y       z     vdW  Elec       q    Type
REMARK                         _______ _______ _______ _____ _____    ______ ____
ROOT
ATOM      1  C   UNL A   1     -28.016  -0.814  28.878  0.00  0.00    +0.031 C 
ENDROOT
BRANCH   1   2
ATOM      2  C   UNL A   1     -27.087   0.290  28.638  0.00  0.00    -0.022 A 
ATOM      3  C   UNL A   1     -26.910   0.849  27.420  0.00  0.00    -0.004 A 
ATOM      4  C   UNL A   1     -25.635   1.434  27.011  0.00  0.00    -0.000 A 
ATOM      5  C   UNL A   1     -24.649   1.699  28.008  0.00  0.00    -0.000 A 
ATOM      6  C   UNL A   1     -24.988   1.433  29.374  0.00  0.00    -0.000 A 
ATOM      7  C   UNL A   1     -26.053   0.564  29.644  0.00  0.00    -0.004 A 
BRANCH   5   8
ATOM      8  C   UNL A   1     -23.412   2.304  27.663  0.00  0.00    -0.000 C 
ATOM      9  C   UNL A   1     -22.677   1.585  27.115  0.00  0.00    -0.000 C 
ENDBRANCH   5   8
ENDBRANCH   1   2
BRANCH   1  10
ATOM     10  C   UNL A   1     -28.469  -0.785  29.829  0.00  0.00    +0.027 C 
BRANCH  10  11
ATOM     11  C   UNL A   1     -29.607  -1.627  30.134  0.00  0.00    -0.022 A 
ATOM     12  C   UNL A   1     -30.133  -1.919  31.464  0.00  0.00    -0.004 A 
ATOM     13  C   UNL A   1     -31.139  -2.730  31.711  0.00  0.00    -0.000 A 
ATOM     14  C   UNL A   1     -31.750  -3.369  30.567  0.00  0.00    -0.000 A 
ATOM     15  C   UNL A   1     -31.292  -3.141  29.324  0.00  0.00    -0.000 A 
ATOM     16  C   UNL A   1     -30.250  -2.303  29.141  0.00  0.00    -0.004 A 
ENDBRANCH  10  11
BRANCH  10  17
ATOM     17  C   UNL A   1     -27.999  -0.081  31.129  0.00  0.00    +0.005 C 
ATOM     18  C   UNL A   1     -28.570  -0.023  32.328  0.00  0.00    +0.000 C 
ENDBRANCH  10  17
ENDBRANCH   1  10
TORSDOF 5
