REMARK  Name = No_2232-gen_results/8p0m/2024-11-26-14-13-15/
REMARK  11 active torsions:
REMARK  status: ('A' for Active; 'I' for Inactive)
REMARK    1  A    between atoms: C_2  and  C_10
REMARK    2  A    between atoms: C_4  and  C_5
REMARK    3  A    between atoms: C_5  and  C_8
REMARK    4  A    between atoms: C_6  and  O_24
REMARK    5  A    between atoms: C_8  and  C_9
REMARK    6  A    between atoms: N_11  and  C_12
REMARK    7  A    between atoms: C_16  and  C_21
REMARK    8  A    between atoms: O_24  and  C_25
REMARK    9  A    between atoms: C_25  and  C_26
REMARK   10  A    between atoms: C_26  and  N_28
REMARK   11  A    between atoms: N_28  and  C_29
REMARK                            x       y       z     vdW  Elec       q    Type
REMARK                         _______ _______ _______ _____ _____    ______ ____
ROOT
ATOM      1  C   UNL A   1     -28.016  -0.814  28.878  0.00  0.00    +0.042 A 
ATOM      2  C   UNL A   1     -27.064  -0.119  28.608  0.00  0.00    +0.058 A 
ATOM      3  C   UNL A   1     -25.792  -0.430  29.076  0.00  0.00    +0.001 A 
ATOM      4  C   UNL A   1     -25.576  -1.565  29.936  0.00  0.00    -0.019 A 
ATOM      5  C   UNL A   1     -27.964  -1.925  29.790  0.00  0.00    +0.139 A 
ATOM      6  C   UNL A   1     -26.762  -2.305  30.303  0.00  0.00    +0.033 A 
ENDROOT
BRANCH   2   7
ATOM      7  C   UNL A   1     -27.096   1.080  27.718  0.00  0.00    +0.269 C 
ATOM      8  N   UNL A   1     -26.869   0.940  26.451  0.00  0.00    -0.180 NA
ATOM      9  O   UNL A   1     -27.065   2.195  28.334  0.00  0.00    -0.268 OA
BRANCH   8  10
ATOM     10  C   UNL A   1     -26.981   1.499  25.493  0.00  0.00    +0.052 C 
ATOM     11  C   UNL A   1     -26.897   1.024  24.140  0.00  0.00    +0.013 C 
ATOM     12  C   UNL A   1     -27.387   2.969  25.569  0.00  0.00    +0.049 C 
ENDBRANCH   8  10
ENDBRANCH   2   7
BRANCH   4  13
ATOM     13  C   UNL A   1     -24.372  -1.942  30.447  0.00  0.00    +0.031 C 
BRANCH  13  14
ATOM     14  C   UNL A   1     -23.700  -0.907  31.195  0.00  0.00    +0.031 C 
BRANCH  14  15
ATOM     15  C   UNL A   1     -24.405  -0.206  32.050  0.00  0.00    -0.015 A 
ATOM     16  C   UNL A   1     -24.784   1.246  31.898  0.00  0.00    +0.076 A 
ATOM     17  C   UNL A   1     -25.558   2.003  32.721  0.00  0.00    +0.006 A 
ATOM     18  C   UNL A   1     -26.158   1.327  33.788  0.00  0.00    +0.000 A 
ATOM     19  C   UNL A   1     -25.945  -0.042  33.989  0.00  0.00    -0.000 A 
ATOM     20  C   UNL A   1     -25.132  -0.789  33.166  0.00  0.00    -0.004 A 
BRANCH  16  21
ATOM     21  C   UNL A   1     -24.025   2.003  30.807  0.00  0.00    +0.387 C 
ATOM     22  O   UNL A   1     -22.939   1.732  30.525  0.00  0.00    -0.241 OA
ATOM     23  O   UNL A   1     -24.776   2.761  29.978  0.00  0.00    -0.241 OA
ENDBRANCH  16  21
ENDBRANCH  14  15
ENDBRANCH  13  14
ENDBRANCH   4  13
BRANCH   5  24
ATOM     24  O   UNL A   1     -29.061  -2.624  30.100  0.00  0.00    -0.474 OA
BRANCH  24  25
ATOM     25  C   UNL A   1     -30.175  -2.069  30.639  0.00  0.00    +0.227 C 
BRANCH  25  26
ATOM     26  C   UNL A   1     -30.760  -2.795  31.584  0.00  0.00    +0.136 C 
ATOM     27  C   UNL A   1     -30.145  -3.929  32.039  0.00  0.00    +0.027 C 
BRANCH  26  28
ATOM     28  N   UNL A   1     -31.080  -1.969  32.823  0.00  0.00    -0.234 NA
BRANCH  28  29
ATOM     29  C   UNL A   1     -31.590  -2.068  33.697  0.00  0.00    +0.080 C 
ATOM     30  C   UNL A   1     -31.670  -1.088  34.784  0.00  0.00    +0.019 C 
ENDBRANCH  28  29
ENDBRANCH  26  28
ENDBRANCH  25  26
ENDBRANCH  24  25
ENDBRANCH   5  24
TORSDOF 11
