REMARK  Name = No_2233-gen_results/8p0m/2024-11-26-14-13-15/
REMARK  2 active torsions:
REMARK  status: ('A' for Active; 'I' for Inactive)
REMARK    1  A    between atoms: C_4  and  C_7
REMARK    2  A    between atoms: C_7  and  C_9
REMARK                            x       y       z     vdW  Elec       q    Type
REMARK                         _______ _______ _______ _____ _____    ______ ____
ROOT
ATOM      1  C   UNL A   1     -24.403  -0.585  30.042  0.00  0.00    +0.045 C 
ATOM      2  C   UNL A   1     -23.744  -1.371  30.551  0.00  0.00    +0.009 C 
ENDROOT
BRANCH   1   6
ATOM      3  C   UNL A   1     -28.016  -0.814  28.878  0.00  0.00    -0.000 A 
ATOM      4  C   UNL A   1     -28.469  -0.785  29.829  0.00  0.00    -0.000 A 
ATOM      5  C   UNL A   1     -26.504  -0.778  28.877  0.00  0.00    -0.004 A 
ATOM      6  C   UNL A   1     -25.915  -0.658  29.923  0.00  0.00    -0.018 A 
ATOM      7  C   UNL A   1     -27.969  -0.724  31.205  0.00  0.00    -0.000 A 
ATOM      8  C   UNL A   1     -26.585  -0.639  31.206  0.00  0.00    -0.004 A 
ENDBRANCH   1   6
BRANCH   1   9
ATOM      9  C   UNL A   1     -23.780   0.580  29.384  0.00  0.00    -0.018 A 
ATOM     10  C   UNL A   1     -24.404   1.692  28.849  0.00  0.00    -0.004 A 
ATOM     11  C   UNL A   1     -23.766   2.474  27.918  0.00  0.00    -0.000 A 
ATOM     12  C   UNL A   1     -22.455   2.133  27.517  0.00  0.00    -0.000 A 
ATOM     13  C   UNL A   1     -22.619   0.278  28.372  0.00  0.00    -0.004 A 
ATOM     14  C   UNL A   1     -21.830   1.075  27.851  0.00  0.00    -0.000 A 
ENDBRANCH   1   9
TORSDOF 2
