MODEL 2233
MODEL 1
REMARK VINA RESULT:    -7.072      0.000      0.000
REMARK INTER + INTRA:          -8.418
REMARK INTER:                  -7.899
REMARK INTRA:                  -0.518
REMARK UNBOUND:                -0.518
REMARK  Name = No_2233-gen_results/8p0m/2024-11-26-14-13-15/
REMARK  2 active torsions:
REMARK  status: ('A' for Active; 'I' for Inactive)
REMARK    1  A    between atoms: C_4  and  C_7
REMARK    2  A    between atoms: C_7  and  C_9
REMARK                            x       y       z     vdW  Elec       q    Type
REMARK                         _______ _______ _______ _____ _____    ______ ____
ROOT
ATOM      1  C   UNL A   1     -24.351  -1.287  29.720  0.00  0.00    +0.045 C 
ATOM      2  C   UNL A   1     -24.857  -0.656  30.532  0.00  0.00    +0.009 C 
ENDROOT
BRANCH   1   6
ATOM      3  C   UNL A   1     -24.287  -4.941  28.670  0.00  0.00    -0.000 A 
ATOM      4  C   UNL A   1     -25.250  -5.199  29.010  0.00  0.00    -0.000 A 
ATOM      5  C   UNL A   1     -23.868  -3.511  28.929  0.00  0.00    -0.004 A 
ATOM      6  C   UNL A   1     -24.652  -2.748  29.436  0.00  0.00    -0.018 A 
ATOM      7  C   UNL A   1     -26.321  -4.482  29.708  0.00  0.00    -0.000 A 
ATOM      8  C   UNL A   1     -25.960  -3.157  29.902  0.00  0.00    -0.004 A 
ENDBRANCH   1   6
BRANCH   1   9
ATOM      9  C   UNL A   1     -23.276  -0.699  28.898  0.00  0.00    -0.018 A 
ATOM     10  C   UNL A   1     -21.918  -0.681  29.156  0.00  0.00    -0.004 A 
ATOM     11  C   UNL A   1     -21.100   0.239  28.546  0.00  0.00    -0.000 A 
ATOM     12  C   UNL A   1     -21.664   1.165  27.641  0.00  0.00    -0.000 A 
ATOM     13  C   UNL A   1     -23.559   0.715  28.278  0.00  0.00    -0.004 A 
ATOM     14  C   UNL A   1     -22.908   1.318  27.416  0.00  0.00    -0.000 A 
ENDBRANCH   1   9
TORSDOF 2
ENDMDL
ENDMDL
