REMARK  Name = No_2234-gen_results/8p0m/2024-11-26-14-13-15/
REMARK  1 active torsions:
REMARK  status: ('A' for Active; 'I' for Inactive)
REMARK    1  A    between atoms: C_1  and  C_11
REMARK                            x       y       z     vdW  Elec       q    Type
REMARK                         _______ _______ _______ _____ _____    ______ ____
ROOT
ATOM      1  C   UNL A   1     -28.016  -0.814  28.878  0.00  0.00    +0.069 A 
ATOM      2  C   UNL A   1     -27.064  -0.119  28.608  0.00  0.00    +0.004 A 
ATOM      3  C   UNL A   1     -27.001   0.691  27.491  0.00  0.00    +0.001 A 
ATOM      4  C   UNL A   1     -28.137   0.736  26.635  0.00  0.00    +0.014 A 
ATOM      5  C   UNL A   1     -29.236   0.076  27.069  0.00  0.00    +0.044 A 
ATOM      6  C   UNL A   1     -29.218  -0.643  28.175  0.00  0.00    -0.005 A 
ATOM      7  N   UNL A   1     -30.352   0.156  26.243  0.00  0.00    -0.306 N 
ATOM      8  C   UNL A   1     -31.431  -0.431  26.600  0.00  0.00    +0.091 C 
ATOM      9  C   UNL A   1     -31.540  -1.004  27.847  0.00  0.00    +0.026 C 
ATOM     10  C   UNL A   1     -30.435  -1.212  28.602  0.00  0.00    +0.029 C 
ATOM     11  C   UNL A   1     -30.315   0.909  24.995  0.00  0.00    +0.112 C 
ENDROOT
BRANCH   1  12
ATOM     12  C   UNL A   1     -27.949  -1.637  30.166  0.00  0.00    +0.418 C 
ATOM     13  F   UNL A   1     -26.817  -2.126  30.436  0.00  0.00    -0.166 F 
ATOM     14  F   UNL A   1     -28.422  -0.860  31.178  0.00  0.00    -0.166 F 
ATOM     15  F   UNL A   1     -28.791  -2.734  30.058  0.00  0.00    -0.166 F 
ENDBRANCH   1  12
TORSDOF 1
