MODEL 2234
MODEL 1
REMARK VINA RESULT:    -5.929      0.000      0.000
REMARK INTER + INTRA:          -6.419
REMARK INTER:                  -6.275
REMARK INTRA:                  -0.144
REMARK UNBOUND:                -0.144
REMARK  Name = No_2234-gen_results/8p0m/2024-11-26-14-13-15/
REMARK  1 active torsions:
REMARK  status: ('A' for Active; 'I' for Inactive)
REMARK    1  A    between atoms: C_1  and  C_11
REMARK                            x       y       z     vdW  Elec       q    Type
REMARK                         _______ _______ _______ _____ _____    ______ ____
ROOT
ATOM      1  C   UNL A   1     -24.292  -2.544  29.460  0.00  0.00    +0.069 A 
ATOM      2  C   UNL A   1     -23.912  -3.559  28.923  0.00  0.00    +0.004 A 
ATOM      3  C   UNL A   1     -24.641  -4.732  28.901  0.00  0.00    +0.001 A 
ATOM      4  C   UNL A   1     -25.927  -4.729  29.511  0.00  0.00    +0.014 A 
ATOM      5  C   UNL A   1     -26.377  -3.529  29.946  0.00  0.00    +0.044 A 
ATOM      6  C   UNL A   1     -25.624  -2.447  29.890  0.00  0.00    -0.005 A 
ATOM      7  N   UNL A   1     -27.649  -3.530  30.508  0.00  0.00    -0.306 N 
ATOM      8  C   UNL A   1     -28.143  -2.427  30.926  0.00  0.00    +0.091 C 
ATOM      9  C   UNL A   1     -27.500  -1.233  30.688  0.00  0.00    +0.026 C 
ATOM     10  C   UNL A   1     -26.211  -1.224  30.272  0.00  0.00    +0.029 C 
ATOM     11  C   UNL A   1     -28.427  -4.759  30.611  0.00  0.00    +0.112 C 
ENDROOT
BRANCH   1  12
ATOM     12  C   UNL A   1     -23.383  -1.316  29.377  0.00  0.00    +0.418 C 
ATOM     13  F   UNL A   1     -23.796  -0.389  28.627  0.00  0.00    -0.166 F 
ATOM     14  F   UNL A   1     -23.158  -0.882  30.646  0.00  0.00    -0.166 F 
ATOM     15  F   UNL A   1     -22.157  -1.684  28.841  0.00  0.00    -0.166 F 
ENDBRANCH   1  12
TORSDOF 1
ENDMDL
ENDMDL
