MODEL 2235
MODEL 1
REMARK VINA RESULT:    -7.914      0.000      0.000
REMARK INTER + INTRA:         -12.945
REMARK INTER:                 -11.615
REMARK INTRA:                  -1.330
REMARK UNBOUND:                -1.330
REMARK  Name = No_2235-gen_results/8p0m/2024-11-26-14-13-15/
REMARK  8 active torsions:
REMARK  status: ('A' for Active; 'I' for Inactive)
REMARK    1  A    between atoms: C_1  and  C_2
REMARK    2  A    between atoms: C_1  and  C_8
REMARK    3  A    between atoms: C_7  and  C_16
REMARK    4  A    between atoms: N_17  and  C_18
REMARK    5  A    between atoms: C_21  and  C_22
REMARK    6  A    between atoms: C_26  and  C_27
REMARK    7  A    between atoms: C_27  and  C_28
REMARK    8  A    between atoms: C_31  and  C_34
REMARK                            x       y       z     vdW  Elec       q    Type
REMARK                         _______ _______ _______ _____ _____    ______ ____
ROOT
ATOM      1  C   UNL A   1     -26.158   0.190  25.516  0.00  0.00    +0.269 C 
ATOM      2  N   UNL A   1     -27.372   0.396  25.759  0.00  0.00    -0.175 NA
ATOM      3  O   UNL A   1     -25.794  -0.281  24.415  0.00  0.00    -0.268 OA
ENDROOT
BRANCH   1   9
ATOM      4  C   UNL A   1     -24.141   1.192  26.635  0.00  0.00    -0.007 A 
ATOM      5  C   UNL A   1     -23.342   1.091  27.773  0.00  0.00    -0.008 A 
ATOM      6  C   UNL A   1     -23.365   0.018  28.787  0.00  0.00    -0.016 A 
ATOM      7  C   UNL A   1     -24.454  -0.901  28.693  0.00  0.00    +0.051 A 
ATOM      8  C   UNL A   1     -25.308  -0.808  27.589  0.00  0.00    +0.009 A 
ATOM      9  C   UNL A   1     -25.192   0.149  26.642  0.00  0.00    +0.052 A 
ATOM     10  C   UNL A   1     -24.515  -1.917  29.734  0.00  0.00    +0.265 C 
ATOM     11  N   UNL A   1     -23.785  -1.807  30.831  0.00  0.00    -0.201 NA
ATOM     12  O   UNL A   1     -25.474  -2.752  29.695  0.00  0.00    -0.268 OA
ATOM     13  C   UNL A   1     -22.709  -1.046  31.053  0.00  0.00    +0.120 C 
ATOM     14  C   UNL A   1     -22.533   0.025  30.107  0.00  0.00    +0.050 C 
BRANCH   4  15
ATOM     15  C   UNL A   1     -24.059   2.099  25.839  0.00  0.00    +0.141 C 
BRANCH  15  16
ATOM     16  C   UNL A   1     -24.831   3.321  26.279  0.00  0.00    +0.369 C 
ATOM     17  O   UNL A   1     -24.234   4.146  27.191  0.00  0.00    -0.245 OA
ATOM     18  O   UNL A   1     -25.825   3.649  25.831  0.00  0.00    -0.245 OA
ENDBRANCH  15  16
ENDBRANCH   4  15
ENDBRANCH   1   9
BRANCH   2  19
ATOM     19  C   UNL A   1     -28.293   0.669  24.920  0.00  0.00    +0.074 A 
ATOM     20  C   UNL A   1     -29.278  -0.162  24.626  0.00  0.00    +0.017 A 
ATOM     21  C   UNL A   1     -30.367   0.063  23.668  0.00  0.00    +0.001 A 
ATOM     22  C   UNL A   1     -30.414   1.327  23.071  0.00  0.00    -0.000 A 
ATOM     23  C   UNL A   1     -28.421   1.921  24.223  0.00  0.00    +0.017 A 
ATOM     24  C   UNL A   1     -29.423   2.170  23.354  0.00  0.00    +0.001 A 
BRANCH  22  25
ATOM     25  C   UNL A   1     -31.401   1.523  22.159  0.00  0.00    -0.004 C 
ATOM     26  C   UNL A   1     -31.894   2.506  21.786  0.00  0.00    -0.021 C 
BRANCH  26  27
ATOM     27  C   UNL A   1     -32.412   3.178  21.127  0.00  0.00    +0.052 C 
BRANCH  27  28
ATOM     28  C   UNL A   1     -33.026   3.716  20.075  0.00  0.00    -0.018 A 
ATOM     29  C   UNL A   1     -33.193   4.915  19.916  0.00  0.00    -0.004 A 
ATOM     30  C   UNL A   1     -33.768   5.513  18.683  0.00  0.00    -0.000 A 
ATOM     31  C   UNL A   1     -34.115   4.578  17.722  0.00  0.00    -0.000 A 
ATOM     32  C   UNL A   1     -33.921   3.295  17.872  0.00  0.00    -0.000 A 
ATOM     33  C   UNL A   1     -33.345   2.808  19.007  0.00  0.00    -0.004 A 
BRANCH  31  34
ATOM     34  C   UNL A   1     -34.747   5.181  16.470  0.00  0.00    -0.000 C 
ATOM     35  C   UNL A   1     -34.227   4.955  15.301  0.00  0.00    -0.000 C 
ENDBRANCH  31  34
ENDBRANCH  27  28
ENDBRANCH  26  27
ENDBRANCH  22  25
ENDBRANCH   2  19
TORSDOF 8
ENDMDL
ENDMDL
