MODEL 2236
MODEL 1
REMARK VINA RESULT:    -4.479      0.000      0.000
REMARK INTER + INTRA:          -4.479
REMARK INTER:                  -4.479
REMARK INTRA:                   0.000
REMARK UNBOUND:                 0.000
REMARK  Name = No_2236-gen_results/8p0m/2024-11-26-14-13-15/
REMARK  0 active torsions:
REMARK  status: ('A' for Active; 'I' for Inactive)
REMARK                            x       y       z     vdW  Elec       q    Type
REMARK                         _______ _______ _______ _____ _____    ______ ____
ROOT
ATOM      1  F   UNL A   1      -8.866 -11.023  16.987  0.00  0.00    -0.204 F 
ATOM      2  C   UNL A   1      -9.111 -10.466  17.957  0.00  0.00    +0.140 A 
ATOM      3  C   UNL A   1     -10.194  -9.877  18.201  0.00  0.00    +0.030 A 
ATOM      4  C   UNL A   1      -7.980 -10.475  18.995  0.00  0.00    +0.030 A 
ATOM      5  C   UNL A   1      -8.189  -9.746  20.229  0.00  0.00    +0.002 A 
ATOM      6  C   UNL A   1     -10.388  -9.105  19.480  0.00  0.00    +0.002 A 
ATOM      7  C   UNL A   1      -9.373  -9.077  20.437  0.00  0.00    +0.000 A 
ENDROOT
TORSDOF 0
ENDMDL
ENDMDL
