REMARK  Name = No_2237-gen_results/8p0m/2024-11-26-14-13-15/
REMARK  6 active torsions:
REMARK  status: ('A' for Active; 'I' for Inactive)
REMARK    1  A    between atoms: N_3  and  C_11
REMARK    2  A    between atoms: C_6  and  C_8
REMARK    3  A    between atoms: C_12  and  C_13
REMARK    4  A    between atoms: C_13  and  C_14
REMARK    5  A    between atoms: C_14  and  C_16
REMARK    6  A    between atoms: C_17  and  C_18
REMARK                            x       y       z     vdW  Elec       q    Type
REMARK                         _______ _______ _______ _____ _____    ______ ____
ROOT
ATOM      1  O   UNL A   1     -28.123  -1.335  28.487  0.00  0.00    -0.275 OA
ATOM      2  C   UNL A   1     -27.481  -0.404  28.709  0.00  0.00    +0.229 C 
ATOM      3  N   UNL A   1     -27.241   0.391  29.510  0.00  0.00    -0.257 N 
ATOM      4  C   UNL A   1     -26.239  -0.338  27.678  0.00  0.00    +0.086 C 
ATOM      5  C   UNL A   1     -25.309   0.691  27.752  0.00  0.00    +0.023 C 
ATOM      6  C   UNL A   1     -25.362   1.542  28.828  0.00  0.00    +0.124 C 
ATOM      7  C   UNL A   1     -26.355   1.406  29.747  0.00  0.00    +0.109 C 
ENDROOT
BRANCH   6   8
ATOM      8  C   UNL A   1     -24.314   2.571  28.892  0.00  0.00    +0.366 C 
ATOM      9  O   UNL A   1     -23.389   2.657  28.047  0.00  0.00    -0.246 OA
ATOM     10  O   UNL A   1     -24.423   3.416  29.903  0.00  0.00    -0.246 OA
ENDBRANCH   6   8
BRANCH   3  11
ATOM     11  C   UNL A   1     -28.333   0.264  30.676  0.00  0.00    +0.063 C 
ATOM     12  C   UNL A   1     -28.421  -0.189  31.711  0.00  0.00    -0.010 C 
BRANCH  12  13
ATOM     13  C   UNL A   1     -27.124  -0.811  32.298  0.00  0.00    +0.032 C 
BRANCH  13  14
ATOM     14  C   UNL A   1     -26.118   0.043  32.634  0.00  0.00    +0.026 C 
ATOM     15  C   UNL A   1     -24.810  -0.404  32.626  0.00  0.00    +0.005 C 
BRANCH  14  16
ATOM     16  C   UNL A   1     -26.423   1.393  33.032  0.00  0.00    -0.026 C 
ATOM     17  C   UNL A   1     -25.406   2.368  33.052  0.00  0.00    -0.005 C 
BRANCH  17  18
ATOM     18  C   UNL A   1     -25.875   3.667  33.602  0.00  0.00    -0.005 C 
ATOM     19  C   UNL A   1     -27.125   3.846  34.049  0.00  0.00    -0.026 C 
ATOM     20  C   UNL A   1     -28.020   2.826  34.014  0.00  0.00    +0.031 C 
ENDBRANCH  17  18
ENDBRANCH  14  16
ENDBRANCH  13  14
ENDBRANCH  12  13
ENDBRANCH   3  11
TORSDOF 6
