MODEL 2237
MODEL 1
REMARK VINA RESULT:    -6.256      0.000      0.000
REMARK INTER + INTRA:          -9.134
REMARK INTER:                  -8.450
REMARK INTRA:                  -0.684
REMARK UNBOUND:                -0.684
REMARK  Name = No_2237-gen_results/8p0m/2024-11-26-14-13-15/
REMARK  6 active torsions:
REMARK  status: ('A' for Active; 'I' for Inactive)
REMARK    1  A    between atoms: N_3  and  C_11
REMARK    2  A    between atoms: C_6  and  C_8
REMARK    3  A    between atoms: C_12  and  C_13
REMARK    4  A    between atoms: C_13  and  C_14
REMARK    5  A    between atoms: C_14  and  C_16
REMARK    6  A    between atoms: C_17  and  C_18
REMARK                            x       y       z     vdW  Elec       q    Type
REMARK                         _______ _______ _______ _____ _____    ______ ____
ROOT
ATOM      1  O   UNL A   1     -12.237   2.247  38.564  0.00  0.00    -0.275 OA
ATOM      2  C   UNL A   1     -12.208   2.147  37.417  0.00  0.00    +0.229 C 
ATOM      3  N   UNL A   1     -11.659   1.632  36.541  0.00  0.00    -0.257 N 
ATOM      4  C   UNL A   1     -13.611   2.643  36.789  0.00  0.00    +0.086 C 
ATOM      5  C   UNL A   1     -13.828   2.606  35.417  0.00  0.00    +0.023 C 
ATOM      6  C   UNL A   1     -12.902   1.971  34.627  0.00  0.00    +0.124 C 
ATOM      7  C   UNL A   1     -11.772   1.463  35.188  0.00  0.00    +0.109 C 
ENDROOT
BRANCH   6   8
ATOM      8  C   UNL A   1     -13.213   1.903  33.192  0.00  0.00    +0.366 C 
ATOM      9  O   UNL A   1     -14.131   2.574  32.660  0.00  0.00    -0.246 OA
ATOM     10  O   UNL A   1     -12.441   1.088  32.493  0.00  0.00    -0.246 OA
ENDBRANCH   6   8
BRANCH   3  11
ATOM     11  C   UNL A   1     -10.334   0.945  37.123  0.00  0.00    +0.063 C 
ATOM     12  C   UNL A   1     -10.012  -0.055  37.547  0.00  0.00    -0.010 C 
BRANCH  12  13
ATOM     13  C   UNL A   1     -11.074  -1.188  37.508  0.00  0.00    +0.032 C 
BRANCH  13  14
ATOM     14  C   UNL A   1     -11.389  -1.791  38.688  0.00  0.00    +0.026 C 
ATOM     15  C   UNL A   1     -12.440  -2.687  38.739  0.00  0.00    +0.005 C 
BRANCH  14  16
ATOM     16  C   UNL A   1     -10.652  -1.466  39.881  0.00  0.00    -0.026 C 
ATOM     17  C   UNL A   1     -10.681  -2.339  40.987  0.00  0.00    -0.005 C 
BRANCH  17  18
ATOM     18  C   UNL A   1      -9.965  -1.785  42.166  0.00  0.00    -0.005 C 
ATOM     19  C   UNL A   1      -9.122  -2.521  42.902  0.00  0.00    -0.026 C 
ATOM     20  C   UNL A   1      -8.888  -3.820  42.587  0.00  0.00    +0.031 C 
ENDBRANCH  17  18
ENDBRANCH  14  16
ENDBRANCH  13  14
ENDBRANCH  12  13
ENDBRANCH   3  11
TORSDOF 6
ENDMDL
ENDMDL
