MODEL 2239
MODEL 1
REMARK VINA RESULT:    -5.360      0.000      0.000
REMARK INTER + INTRA:          -6.322
REMARK INTER:                  -5.987
REMARK INTRA:                  -0.336
REMARK UNBOUND:                -0.336
REMARK  Name = No_2239-gen_results/8p0m/2024-11-26-14-13-15/
REMARK  2 active torsions:
REMARK  status: ('A' for Active; 'I' for Inactive)
REMARK    1  A    between atoms: C_5  and  C_6
REMARK    2  A    between atoms: C_8  and  C_9
REMARK                            x       y       z     vdW  Elec       q    Type
REMARK                         _______ _______ _______ _____ _____    ______ ____
ROOT
ATOM      1  C   UNL A   1     -26.327  -3.586  29.661  0.00  0.00    -0.000 A 
ATOM      2  C   UNL A   1     -26.114  -4.776  29.661  0.00  0.00    +0.000 A 
ATOM      3  C   UNL A   1     -24.997  -5.347  29.140  0.00  0.00    +0.000 A 
ATOM      4  C   UNL A   1     -24.024  -4.508  28.564  0.00  0.00    +0.000 A 
ATOM      5  C   UNL A   1     -25.333  -2.662  29.175  0.00  0.00    -0.000 A 
ATOM      6  C   UNL A   1     -24.194  -3.175  28.642  0.00  0.00    -0.000 A 
ENDROOT
BRANCH   5   7
ATOM      7  C   UNL A   1     -25.538  -1.236  29.223  0.00  0.00    -0.000 C 
ATOM      8  C   UNL A   1     -25.195  -0.579  30.223  0.00  0.00    -0.000 C 
BRANCH   8   9
ATOM      9  C   UNL A   1     -24.667  -1.260  31.366  0.00  0.00    -0.005 C 
ATOM     10  C   UNL A   1     -23.213  -1.144  31.644  0.00  0.00    -0.026 C 
ATOM     11  C   UNL A   1     -22.478  -0.363  30.740  0.00  0.00    +0.031 C 
ENDBRANCH   8   9
ENDBRANCH   5   7
TORSDOF 2
ENDMDL
ENDMDL
