REMARK  Name = No_2239-gen_results/8p0m/2024-11-26-14-13-15/
REMARK  2 active torsions:
REMARK  status: ('A' for Active; 'I' for Inactive)
REMARK    1  A    between atoms: C_5  and  C_6
REMARK    2  A    between atoms: C_8  and  C_9
REMARK                            x       y       z     vdW  Elec       q    Type
REMARK                         _______ _______ _______ _____ _____    ______ ____
ROOT
ATOM      1  C   UNL A   1     -28.016  -0.814  28.878  0.00  0.00    -0.000 A 
ATOM      2  C   UNL A   1     -27.064  -0.119  28.608  0.00  0.00    +0.000 A 
ATOM      3  C   UNL A   1     -26.929   1.171  29.008  0.00  0.00    +0.000 A 
ATOM      4  C   UNL A   1     -27.956   1.741  29.784  0.00  0.00    +0.000 A 
ATOM      5  C   UNL A   1     -29.057  -0.327  29.747  0.00  0.00    -0.000 A 
ATOM      6  C   UNL A   1     -28.977   0.958  30.179  0.00  0.00    -0.000 A 
ENDROOT
BRANCH   5   7
ATOM      7  C   UNL A   1     -30.170  -1.158  30.133  0.00  0.00    -0.000 C 
ATOM      8  C   UNL A   1     -31.274  -1.041  29.569  0.00  0.00    -0.000 C 
BRANCH   8   9
ATOM      9  C   UNL A   1     -31.459  -0.017  28.587  0.00  0.00    -0.005 C 
ATOM     10  C   UNL A   1     -32.759   0.045  27.872  0.00  0.00    -0.026 C 
ATOM     11  C   UNL A   1     -33.703  -0.928  28.233  0.00  0.00    +0.031 C 
ENDBRANCH   8   9
ENDBRANCH   5   7
TORSDOF 2
