MODEL 223
MODEL 1
REMARK VINA RESULT:    -7.761      0.000      0.000
REMARK INTER + INTRA:          -9.503
REMARK INTER:                  -9.122
REMARK INTRA:                  -0.381
REMARK UNBOUND:                -0.381
REMARK  Name = No_223-gen_results/8p0m/2024-11-26-14-13-15/
REMARK  3 active torsions:
REMARK  status: ('A' for Active; 'I' for Inactive)
REMARK    1  A    between atoms: C_3  and  N_21
REMARK    2  A    between atoms: C_4  and  C_6
REMARK    3  A    between atoms: N_21  and  C_22
REMARK                            x       y       z     vdW  Elec       q    Type
REMARK                         _______ _______ _______ _____ _____    ______ ____
ROOT
ATOM      1  C   UNL A   1     -25.115  -1.388  29.432  0.00  0.00    +0.067 C 
ATOM      2  C   UNL A   1     -24.970  -2.612  29.117  0.00  0.00    -0.018 A 
ATOM      3  C   UNL A   1     -24.023  -3.237  28.562  0.00  0.00    -0.004 A 
ATOM      4  C   UNL A   1     -23.973  -4.708  28.379  0.00  0.00    -0.000 A 
ATOM      5  C   UNL A   1     -24.977  -5.436  28.971  0.00  0.00    -0.000 A 
ATOM      6  C   UNL A   1     -26.005  -4.875  29.643  0.00  0.00    -0.004 A 
ATOM      7  C   UNL A   1     -26.053  -3.499  29.767  0.00  0.00    -0.021 A 
ATOM      8  C   UNL A   1     -26.123  -0.654  30.118  0.00  0.00    -0.018 A 
ATOM      9  C   UNL A   1     -26.043   0.589  30.571  0.00  0.00    -0.004 A 
ATOM     10  C   UNL A   1     -27.079   1.118  31.259  0.00  0.00    -0.000 A 
ATOM     11  C   UNL A   1     -27.381  -1.300  30.343  0.00  0.00    -0.021 A 
ATOM     12  C   UNL A   1     -28.416  -0.742  31.026  0.00  0.00    -0.004 A 
ATOM     13  C   UNL A   1     -28.198   0.513  31.487  0.00  0.00    -0.000 A 
ATOM     14  C   UNL A   1     -27.169  -2.718  30.322  0.00  0.00    +0.052 C 
ENDROOT
BRANCH   1  18
ATOM     15  C   UNL A   1     -23.079   0.926  27.271  0.00  0.00    +0.016 A 
ATOM     16  C   UNL A   1     -22.237   1.038  27.894  0.00  0.00    +0.001 A 
ATOM     17  C   UNL A   1     -24.153   0.132  27.795  0.00  0.00    +0.067 A 
ATOM     18  C   UNL A   1     -24.056  -0.571  28.927  0.00  0.00    +0.001 A 
ATOM     19  C   UNL A   1     -21.909   0.361  29.141  0.00  0.00    -0.000 A 
ATOM     20  C   UNL A   1     -22.880  -0.374  29.603  0.00  0.00    -0.002 A 
BRANCH  17  21
ATOM     21  N   UNL A   1     -25.354   0.009  27.142  0.00  0.00    -0.211 NA
BRANCH  21  22
ATOM     22  C   UNL A   1     -25.626   0.498  25.877  0.00  0.00    +0.086 C 
ATOM     23  C   UNL A   1     -25.651  -0.359  24.792  0.00  0.00    +0.019 C 
ENDBRANCH  21  22
ENDBRANCH  17  21
ENDBRANCH   1  18
TORSDOF 3
ENDMDL
ENDMDL
