MODEL 2240
MODEL 1
REMARK VINA RESULT:    -4.533      0.000      0.000
REMARK INTER + INTRA:          -4.533
REMARK INTER:                  -4.533
REMARK INTRA:                   0.000
REMARK UNBOUND:                 0.000
REMARK  Name = No_2240-gen_results/8p0m/2024-11-26-14-13-15/
REMARK  0 active torsions:
REMARK  status: ('A' for Active; 'I' for Inactive)
REMARK                            x       y       z     vdW  Elec       q    Type
REMARK                         _______ _______ _______ _____ _____    ______ ____
ROOT
ATOM      1  C   UNL A   1     -10.338  -9.081  19.564  0.00  0.00    +0.001 A 
ATOM      2  C   UNL A   1      -9.362  -9.156  20.275  0.00  0.00    +0.011 A 
ATOM      3  C   UNL A   1      -8.219  -9.881  19.941  0.00  0.00    +0.058 A 
ATOM      4  C   UNL A   1      -8.200 -10.641  18.706  0.00  0.00    +0.011 A 
ATOM      5  C   UNL A   1      -9.352 -10.542  17.927  0.00  0.00    +0.001 A 
ATOM      6  C   UNL A   1     -10.216  -9.828  18.367  0.00  0.00    +0.000 A 
ATOM      7 CL   UNL A   1      -6.957  -9.989  21.093  0.00  0.00    -0.082 Cl
ENDROOT
TORSDOF 0
ENDMDL
ENDMDL
