MODEL 2241
MODEL 1
REMARK VINA RESULT:    -6.555      0.000      0.000
REMARK INTER + INTRA:          -8.881
REMARK INTER:                  -8.088
REMARK INTRA:                  -0.792
REMARK UNBOUND:                -0.792
REMARK  Name = No_2241-gen_results/8p0m/2024-11-26-14-13-15/
REMARK  4 active torsions:
REMARK  status: ('A' for Active; 'I' for Inactive)
REMARK    1  A    between atoms: C_3  and  C_8
REMARK    2  A    between atoms: C_6  and  O_7
REMARK    3  A    between atoms: O_7  and  C_14
REMARK    4  A    between atoms: C_16  and  O_20
REMARK                            x       y       z     vdW  Elec       q    Type
REMARK                         _______ _______ _______ _____ _____    ______ ____
ROOT
ATOM      1  C   UNL A   1     -27.464   0.885  26.194  0.00  0.00    +0.037 A 
ATOM      2  C   UNL A   1     -26.603   0.689  27.020  0.00  0.00    +0.003 A 
ATOM      3  C   UNL A   1     -25.303   0.299  26.700  0.00  0.00    +0.000 A 
ATOM      4  C   UNL A   1     -24.960   0.054  25.312  0.00  0.00    +0.003 A 
ATOM      5  C   UNL A   1     -26.019   0.294  24.407  0.00  0.00    +0.037 A 
ATOM      6  C   UNL A   1     -27.213   0.653  24.804  0.00  0.00    +0.145 A 
ENDROOT
BRANCH   3   7
ATOM      7  C   UNL A   1     -24.197   0.039  27.682  0.00  0.00    +0.000 A 
ATOM      8  C   UNL A   1     -23.090   0.778  27.665  0.00  0.00    +0.000 A 
ATOM      9  C   UNL A   1     -22.007   0.458  28.553  0.00  0.00    +0.000 A 
ATOM     10  C   UNL A   1     -22.005  -0.642  29.367  0.00  0.00    +0.000 A 
ATOM     11  C   UNL A   1     -24.190  -1.139  28.482  0.00  0.00    +0.000 A 
ATOM     12  C   UNL A   1     -23.101  -1.467  29.338  0.00  0.00    +0.000 A 
ENDBRANCH   3   7
BRANCH   6  13
ATOM     13  O   UNL A   1     -28.000   0.751  23.727  0.00  0.00    -0.450 OA
BRANCH  13  14
ATOM     14  C   UNL A   1     -29.092   0.146  23.586  0.00  0.00    +0.179 A 
ATOM     15  C   UNL A   1     -29.311  -0.902  23.703  0.00  0.00    +0.041 A 
ATOM     16  C   UNL A   1     -30.278   1.154  23.304  0.00  0.00    +0.173 A 
ATOM     17  C   UNL A   1     -30.608  -1.559  23.588  0.00  0.00    +0.003 A 
ATOM     18  C   UNL A   1     -31.566   0.636  23.157  0.00  0.00    +0.040 A 
ATOM     19  C   UNL A   1     -31.732  -0.743  23.334  0.00  0.00    +0.003 A 
BRANCH  16  20
ATOM     20  O   UNL A   1     -30.058   2.446  23.175  0.00  0.00    -0.468 OA
ATOM     21  C   UNL A   1     -30.855   3.334  23.864  0.00  0.00    +0.253 C 
ENDBRANCH  16  20
ENDBRANCH  13  14
ENDBRANCH   6  13
TORSDOF 4
ENDMDL
ENDMDL
