REMARK  Name = No_2242-gen_results/8p0m/2024-11-26-14-13-15/
REMARK  3 active torsions:
REMARK  status: ('A' for Active; 'I' for Inactive)
REMARK    1  A    between atoms: C_3  and  C_8
REMARK    2  A    between atoms: C_6  and  O_7
REMARK    3  A    between atoms: O_7  and  C_14
REMARK                            x       y       z     vdW  Elec       q    Type
REMARK                         _______ _______ _______ _____ _____    ______ ____
ROOT
ATOM      1  C   UNL A   1     -28.016  -0.814  28.878  0.00  0.00    +0.037 A 
ATOM      2  C   UNL A   1     -27.064  -0.119  28.608  0.00  0.00    +0.003 A 
ATOM      3  C   UNL A   1     -25.765  -0.390  29.036  0.00  0.00    +0.000 A 
ATOM      4  C   UNL A   1     -25.530  -1.530  29.901  0.00  0.00    +0.003 A 
ATOM      5  C   UNL A   1     -26.689  -2.289  30.181  0.00  0.00    +0.037 A 
ATOM      6  C   UNL A   1     -27.873  -1.951  29.737  0.00  0.00    +0.145 A 
ENDROOT
BRANCH   3   7
ATOM      7  C   UNL A   1     -24.539   0.421  28.742  0.00  0.00    +0.002 A 
ATOM      8  C   UNL A   1     -23.346   0.114  29.169  0.00  0.00    +0.000 A 
ATOM      9  C   UNL A   1     -22.262   0.659  28.903  0.00  0.00    +0.002 A 
ATOM     10  C   UNL A   1     -22.139   1.639  27.863  0.00  0.00    +0.030 A 
ATOM     11  C   UNL A   1     -24.614   1.369  27.662  0.00  0.00    +0.030 A 
ATOM     12  C   UNL A   1     -23.340   2.040  27.328  0.00  0.00    +0.140 A 
ATOM     13  F   UNL A   1     -23.408   2.989  26.378  0.00  0.00    -0.204 F 
ENDBRANCH   3   7
BRANCH   6  14
ATOM     14  O   UNL A   1     -28.930  -2.730  30.115  0.00  0.00    -0.454 OA
BRANCH  14  15
ATOM     15  C   UNL A   1     -28.780  -3.993  30.643  0.00  0.00    +0.145 A 
ATOM     16  C   UNL A   1     -28.790  -4.991  29.834  0.00  0.00    +0.037 A 
ATOM     17  C   UNL A   1     -29.027  -4.145  32.024  0.00  0.00    +0.037 A 
ATOM     18  C   UNL A   1     -29.813  -5.272  32.450  0.00  0.00    +0.003 A 
ATOM     19  C   UNL A   1     -29.742  -6.453  31.599  0.00  0.00    +0.000 A 
ATOM     20  C   UNL A   1     -29.552  -6.217  30.240  0.00  0.00    +0.003 A 
ENDBRANCH  14  15
ENDBRANCH   6  14
TORSDOF 3
