MODEL 2242
MODEL 1
REMARK VINA RESULT:    -7.083      0.000      0.000
REMARK INTER + INTRA:          -9.047
REMARK INTER:                  -8.325
REMARK INTRA:                  -0.722
REMARK UNBOUND:                -0.722
REMARK  Name = No_2242-gen_results/8p0m/2024-11-26-14-13-15/
REMARK  3 active torsions:
REMARK  status: ('A' for Active; 'I' for Inactive)
REMARK    1  A    between atoms: C_3  and  C_8
REMARK    2  A    between atoms: C_6  and  O_7
REMARK    3  A    between atoms: O_7  and  C_14
REMARK                            x       y       z     vdW  Elec       q    Type
REMARK                         _______ _______ _______ _____ _____    ______ ____
ROOT
ATOM      1  C   UNL A   1     -24.584   0.498  25.201  0.00  0.00    +0.037 A 
ATOM      2  C   UNL A   1     -25.590   0.067  24.687  0.00  0.00    +0.003 A 
ATOM      3  C   UNL A   1     -26.799   0.761  24.658  0.00  0.00    +0.000 A 
ATOM      4  C   UNL A   1     -26.893   2.045  25.324  0.00  0.00    +0.003 A 
ATOM      5  C   UNL A   1     -25.682   2.480  25.910  0.00  0.00    +0.037 A 
ATOM      6  C   UNL A   1     -24.594   1.753  25.891  0.00  0.00    +0.145 A 
ENDROOT
BRANCH   3   7
ATOM      7  C   UNL A   1     -28.083   0.293  24.041  0.00  0.00    +0.002 A 
ATOM      8  C   UNL A   1     -28.470  -0.952  24.025  0.00  0.00    +0.000 A 
ATOM      9  C   UNL A   1     -29.549  -1.425  23.631  0.00  0.00    +0.002 A 
ATOM     10  C   UNL A   1     -30.670  -0.592  23.306  0.00  0.00    +0.030 A 
ATOM     11  C   UNL A   1     -29.091   1.286  23.774  0.00  0.00    +0.030 A 
ATOM     12  C   UNL A   1     -30.384   0.753  23.296  0.00  0.00    +0.140 A 
ATOM     13  F   UNL A   1     -31.309   1.669  22.962  0.00  0.00    -0.204 F 
ENDBRANCH   3   7
BRANCH   6  14
ATOM     14  O   UNL A   1     -23.496   2.251  26.535  0.00  0.00    -0.454 OA
BRANCH  14  15
ATOM     15  C   UNL A   1     -22.938   1.649  27.641  0.00  0.00    +0.145 A 
ATOM     16  C   UNL A   1     -21.656   1.613  27.726  0.00  0.00    +0.037 A 
ATOM     17  C   UNL A   1     -23.763   0.779  28.384  0.00  0.00    +0.037 A 
ATOM     18  C   UNL A   1     -23.211  -0.482  28.803  0.00  0.00    +0.003 A 
ATOM     19  C   UNL A   1     -21.770  -0.505  29.014  0.00  0.00    +0.000 A 
ATOM     20  C   UNL A   1     -21.019   0.342  28.203  0.00  0.00    +0.003 A 
ENDBRANCH  14  15
ENDBRANCH   6  14
TORSDOF 3
ENDMDL
ENDMDL
