MODEL 2243
MODEL 1
REMARK VINA RESULT:    -4.383      0.000      0.000
REMARK INTER + INTRA:          -4.383
REMARK INTER:                  -4.383
REMARK INTRA:                   0.000
REMARK UNBOUND:                 0.000
REMARK  Name = No_2243-gen_results/8p0m/2024-11-26-14-13-15/
REMARK  0 active torsions:
REMARK  status: ('A' for Active; 'I' for Inactive)
REMARK                            x       y       z     vdW  Elec       q    Type
REMARK                         _______ _______ _______ _____ _____    ______ ____
ROOT
ATOM      1  C   UNL A   1     -24.107  -4.247  28.811  0.00  0.00    +0.011 A 
ATOM      2  C   UNL A   1     -24.916  -5.122  29.014  0.00  0.00    +0.001 A 
ATOM      3  C   UNL A   1     -26.161  -4.836  29.563  0.00  0.00    +0.000 A 
ATOM      4  C   UNL A   1     -26.509  -3.493  29.950  0.00  0.00    +0.001 A 
ATOM      5  C   UNL A   1     -25.506  -2.546  29.701  0.00  0.00    +0.011 A 
ATOM      6  C   UNL A   1     -24.338  -2.871  29.196  0.00  0.00    +0.058 A 
ATOM      7 CL   UNL A   1     -23.060  -1.800  28.974  0.00  0.00    -0.082 Cl
ENDROOT
TORSDOF 0
ENDMDL
ENDMDL
