MODEL 2244
MODEL 1
REMARK VINA RESULT:    -8.330      0.000      0.000
REMARK INTER + INTRA:         -12.342
REMARK INTER:                 -11.252
REMARK INTRA:                  -1.090
REMARK UNBOUND:                -1.090
REMARK  Name = No_2244-gen_results/8p0m/2024-11-26-14-13-15/
REMARK  6 active torsions:
REMARK  status: ('A' for Active; 'I' for Inactive)
REMARK    1  A    between atoms: C_2  and  C_3
REMARK    2  A    between atoms: C_3  and  C_5
REMARK    3  A    between atoms: N_4  and  C_12
REMARK    4  A    between atoms: C_9  and  C_13
REMARK    5  A    between atoms: C_11  and  C_16
REMARK    6  A    between atoms: C_24  and  C_25
REMARK                            x       y       z     vdW  Elec       q    Type
REMARK                         _______ _______ _______ _____ _____    ______ ____
ROOT
ATOM      1  O   UNL A   1     -25.919  -0.446  30.948  0.00  0.00    -0.274 OA
ATOM      2  C   UNL A   1     -24.973   0.155  30.702  0.00  0.00    +0.240 C 
ATOM      3  N   UNL A   1     -24.456  -0.317  29.372  0.00  0.00    -0.204 N 
ATOM      4  C   UNL A   1     -24.993  -1.489  28.647  0.00  0.00    +0.259 C 
ATOM      5  O   UNL A   1     -25.408  -1.208  27.517  0.00  0.00    -0.269 OA
ENDROOT
BRANCH   3   6
ATOM      6  C   UNL A   1     -23.251   0.229  28.774  0.00  0.00    +0.061 A 
ATOM      7  C   UNL A   1     -22.069  -0.273  29.094  0.00  0.00    +0.015 A 
ATOM      8  C   UNL A   1     -21.016   0.191  28.475  0.00  0.00    +0.001 A 
ATOM      9  C   UNL A   1     -23.410   1.298  27.945  0.00  0.00    +0.014 A 
ATOM     10  C   UNL A   1     -21.087   1.247  27.577  0.00  0.00    +0.000 A 
ATOM     11  C   UNL A   1     -22.326   1.867  27.272  0.00  0.00    +0.001 A 
BRANCH   9  12
ATOM     12  C   UNL A   1     -24.728   1.946  27.577  0.00  0.00    +0.001 A 
ATOM     13  C   UNL A   1     -25.239   2.878  28.356  0.00  0.00    +0.000 A 
ATOM     14  C   UNL A   1     -26.442   3.462  27.866  0.00  0.00    +0.000 A 
ATOM     15  C   UNL A   1     -27.032   3.139  26.681  0.00  0.00    +0.000 A 
ATOM     16  C   UNL A   1     -26.455   2.088  25.917  0.00  0.00    +0.000 A 
ATOM     17  C   UNL A   1     -25.282   1.481  26.394  0.00  0.00    +0.000 A 
ENDBRANCH   9  12
ENDBRANCH   3   6
BRANCH   4  18
ATOM     18  C   UNL A   1     -24.736  -2.732  29.279  0.00  0.00    +0.054 A 
ATOM     19  C   UNL A   1     -23.784  -3.499  28.945  0.00  0.00    +0.004 A 
ATOM     20  C   UNL A   1     -24.062  -4.600  28.591  0.00  0.00    +0.000 A 
ATOM     21  C   UNL A   1     -25.217  -5.348  29.152  0.00  0.00    +0.000 A 
ATOM     22  C   UNL A   1     -26.322  -4.551  29.585  0.00  0.00    +0.000 A 
ATOM     23  C   UNL A   1     -26.107  -3.169  29.676  0.00  0.00    +0.004 A 
ENDBRANCH   4  18
BRANCH   2  24
ATOM     24  C   UNL A   1     -24.497   1.005  31.060  0.00  0.00    +0.112 C 
BRANCH  24  25
ATOM     25  C   UNL A   1     -25.221   2.062  31.695  0.00  0.00    -0.013 A 
ATOM     26  C   UNL A   1     -26.481   2.280  31.663  0.00  0.00    -0.004 A 
ATOM     27  C   UNL A   1     -27.167   3.554  32.064  0.00  0.00    -0.000 A 
ATOM     28  C   UNL A   1     -26.367   4.603  32.543  0.00  0.00    +0.005 A 
ATOM     29  C   UNL A   1     -24.928   4.405  32.578  0.00  0.00    +0.056 A 
ATOM     30  C   UNL A   1     -24.425   3.249  32.135  0.00  0.00    +0.001 A 
BRANCH  29  31
ATOM     31  C   UNL A   1     -24.133   5.530  33.075  0.00  0.00    +0.284 C 
ATOM     32  N   UNL A   1     -24.697   6.421  33.854  0.00  0.00    -0.084 NA
ATOM     33  O   UNL A   1     -22.928   5.824  32.729  0.00  0.00    -0.267 OA
ENDBRANCH  29  31
ENDBRANCH  24  25
ENDBRANCH   2  24
TORSDOF 6
ENDMDL
ENDMDL
