REMARK  Name = No_2244-gen_results/8p0m/2024-11-26-14-13-15/
REMARK  6 active torsions:
REMARK  status: ('A' for Active; 'I' for Inactive)
REMARK    1  A    between atoms: C_2  and  C_3
REMARK    2  A    between atoms: C_3  and  C_5
REMARK    3  A    between atoms: N_4  and  C_12
REMARK    4  A    between atoms: C_9  and  C_13
REMARK    5  A    between atoms: C_11  and  C_16
REMARK    6  A    between atoms: C_24  and  C_25
REMARK                            x       y       z     vdW  Elec       q    Type
REMARK                         _______ _______ _______ _____ _____    ______ ____
ROOT
ATOM      1  O   UNL A   1     -28.123  -1.335  28.487  0.00  0.00    -0.274 OA
ATOM      2  C   UNL A   1     -28.521  -0.436  29.078  0.00  0.00    +0.240 C 
ATOM      3  N   UNL A   1     -28.787  -0.887  30.487  0.00  0.00    -0.204 N 
ATOM      4  C   UNL A   1     -28.721  -2.297  30.928  0.00  0.00    +0.259 C 
ATOM      5  O   UNL A   1     -27.910  -2.479  31.843  0.00  0.00    -0.269 OA
ENDROOT
BRANCH   3   6
ATOM      6  C   UNL A   1     -29.320   0.010  31.497  0.00  0.00    +0.061 A 
ATOM      7  C   UNL A   1     -30.584   0.396  31.436  0.00  0.00    +0.015 A 
ATOM      8  C   UNL A   1     -31.048   1.137  32.406  0.00  0.00    +0.001 A 
ATOM      9  C   UNL A   1     -28.444   0.462  32.437  0.00  0.00    +0.014 A 
ATOM     10  C   UNL A   1     -30.241   1.607  33.434  0.00  0.00    +0.000 A 
ATOM     11  C   UNL A   1     -28.861   1.284  33.487  0.00  0.00    +0.001 A 
BRANCH   9  12
ATOM     12  C   UNL A   1     -26.978   0.095  32.532  0.00  0.00    +0.001 A 
ATOM     13  C   UNL A   1     -26.436  -0.138  33.710  0.00  0.00    +0.000 A 
ATOM     14  C   UNL A   1     -25.072  -0.545  33.662  0.00  0.00    +0.000 A 
ATOM     15  C   UNL A   1     -24.358  -0.724  32.515  0.00  0.00    +0.000 A 
ATOM     16  C   UNL A   1     -24.990  -0.404  31.283  0.00  0.00    +0.000 A 
ATOM     17  C   UNL A   1     -26.328   0.023  31.309  0.00  0.00    +0.000 A 
ENDBRANCH   9  12
ENDBRANCH   3   6
BRANCH   4  18
ATOM     18  C   UNL A   1     -29.738  -3.124  30.385  0.00  0.00    +0.054 A 
ATOM     19  C   UNL A   1     -30.914  -2.716  30.148  0.00  0.00    +0.004 A 
ATOM     20  C   UNL A   1     -31.811  -3.271  30.697  0.00  0.00    +0.000 A 
ATOM     21  C   UNL A   1     -31.772  -4.723  31.014  0.00  0.00    +0.000 A 
ATOM     22  C   UNL A   1     -30.474  -5.270  31.262  0.00  0.00    +0.000 A 
ATOM     23  C   UNL A   1     -29.376  -4.464  30.934  0.00  0.00    +0.004 A 
ENDBRANCH   4  18
BRANCH   2  24
ATOM     24  C   UNL A   1     -28.589   0.592  28.946  0.00  0.00    +0.112 C 
BRANCH  24  25
ATOM     25  C   UNL A   1     -27.784   1.282  27.987  0.00  0.00    -0.013 A 
ATOM     26  C   UNL A   1     -28.084   1.582  26.780  0.00  0.00    -0.004 A 
ATOM     27  C   UNL A   1     -27.121   2.013  25.712  0.00  0.00    -0.000 A 
ATOM     28  C   UNL A   1     -25.766   2.125  26.062  0.00  0.00    +0.005 A 
ATOM     29  C   UNL A   1     -25.378   1.775  27.417  0.00  0.00    +0.056 A 
ATOM     30  C   UNL A   1     -26.315   1.342  28.265  0.00  0.00    +0.001 A 
BRANCH  29  31
ATOM     31  C   UNL A   1     -23.953   1.897  27.733  0.00  0.00    +0.284 C 
ATOM     32  N   UNL A   1     -23.581   2.032  28.982  0.00  0.00    -0.084 NA
ATOM     33  O   UNL A   1     -22.991   2.010  26.884  0.00  0.00    -0.267 OA
ENDBRANCH  29  31
ENDBRANCH  24  25
ENDBRANCH   2  24
TORSDOF 6
