MODEL 2245
MODEL 1
REMARK VINA RESULT:   -10.326      0.000      0.000
REMARK INTER + INTRA:         -15.993
REMARK INTER:                 -13.948
REMARK INTRA:                  -2.045
REMARK UNBOUND:                -2.045
REMARK  Name = No_2245-gen_results/8p0m/2024-11-26-14-13-15/
REMARK  6 active torsions:
REMARK  status: ('A' for Active; 'I' for Inactive)
REMARK    1  A    between atoms: C_3  and  C_4
REMARK    2  A    between atoms: C_7  and  C_13
REMARK    3  A    between atoms: N_14  and  C_15
REMARK    4  A    between atoms: C_18  and  C_23
REMARK    5  A    between atoms: C_23  and  C_24
REMARK    6  A    between atoms: C_23  and  C_30
REMARK                            x       y       z     vdW  Elec       q    Type
REMARK                         _______ _______ _______ _____ _____    ______ ____
ROOT
ATOM      1  C   UNL A   1     -24.609   1.535  27.014  0.00  0.00    +0.073 A 
ATOM      2  C   UNL A   1     -25.045   0.423  27.881  0.00  0.00    +0.013 A 
ATOM      3  C   UNL A   1     -24.114  -0.258  28.614  0.00  0.00    -0.013 A 
ATOM      4  C   UNL A   1     -22.713   0.149  28.566  0.00  0.00    -0.004 A 
ATOM      5  C   UNL A   1     -22.329   1.160  27.707  0.00  0.00    +0.001 A 
ATOM      6  C   UNL A   1     -23.248   1.781  26.855  0.00  0.00    +0.017 A 
ENDROOT
BRANCH   1   8
ATOM      7  C   UNL A   1     -25.967   0.851  25.220  0.00  0.00    +0.269 C 
ATOM      8  N   UNL A   1     -25.542   1.784  26.058  0.00  0.00    -0.175 NA
ATOM      9  O   UNL A   1     -25.274  -0.098  24.951  0.00  0.00    -0.268 OA
BRANCH   7  13
ATOM     10  C   UNL A   1     -28.022  -0.249  24.112  0.00  0.00    +0.004 A 
ATOM     11  C   UNL A   1     -29.126  -0.119  23.635  0.00  0.00    -0.004 A 
ATOM     12  C   UNL A   1     -29.703   1.118  23.353  0.00  0.00    -0.022 A 
ATOM     13  C   UNL A   1     -27.299   0.972  24.578  0.00  0.00    +0.055 A 
ATOM     14  C   UNL A   1     -27.739   2.231  24.276  0.00  0.00    +0.004 A 
ATOM     15  C   UNL A   1     -29.015   2.392  23.671  0.00  0.00    -0.004 A 
BRANCH  12  16
ATOM     16  C   UNL A   1     -31.042   1.370  22.785  0.00  0.00    +0.030 C 
ATOM     17  C   UNL A   1     -31.338   2.263  21.695  0.00  0.00    +0.005 C 
ATOM     18  C   UNL A   1     -32.657   2.414  21.225  0.00  0.00    +0.008 C 
ATOM     19  C   UNL A   1     -33.692   1.500  21.598  0.00  0.00    +0.065 C 
ATOM     20  C   UNL A   1     -32.188   0.541  23.155  0.00  0.00    +0.069 C 
ATOM     21  C   UNL A   1     -33.424   0.638  22.587  0.00  0.00    +0.151 C 
ATOM     22  O   UNL A   1     -34.371  -0.227  23.015  0.00  0.00    -0.296 OA
ENDBRANCH  12  16
ENDBRANCH   7  13
ENDBRANCH   1   8
BRANCH   3  23
ATOM     23  C   UNL A   1     -24.524  -1.262  29.554  0.00  0.00    +0.067 C 
BRANCH  23  24
ATOM     24  C   UNL A   1     -24.570  -0.860  30.837  0.00  0.00    -0.014 A 
ATOM     25  C   UNL A   1     -25.591  -0.150  31.440  0.00  0.00    -0.004 A 
ATOM     26  C   UNL A   1     -25.580   0.094  32.849  0.00  0.00    -0.000 A 
ATOM     27  C   UNL A   1     -24.631  -0.395  33.594  0.00  0.00    -0.000 A 
ATOM     28  C   UNL A   1     -23.617  -1.120  33.020  0.00  0.00    -0.000 A 
ATOM     29  C   UNL A   1     -23.575  -1.410  31.765  0.00  0.00    -0.004 A 
ENDBRANCH  23  24
BRANCH  23  30
ATOM     30  C   UNL A   1     -24.768  -2.722  29.334  0.00  0.00    -0.014 A 
ATOM     31  C   UNL A   1     -25.993  -3.258  29.821  0.00  0.00    -0.004 A 
ATOM     32  C   UNL A   1     -26.196  -4.621  29.640  0.00  0.00    -0.000 A 
ATOM     33  C   UNL A   1     -25.228  -5.355  29.010  0.00  0.00    -0.000 A 
ATOM     34  C   UNL A   1     -24.075  -4.834  28.556  0.00  0.00    -0.000 A 
ATOM     35  C   UNL A   1     -23.850  -3.484  28.750  0.00  0.00    -0.004 A 
ENDBRANCH  23  30
ENDBRANCH   3  23
TORSDOF 6
ENDMDL
ENDMDL
