REMARK  Name = No_2245-gen_results/8p0m/2024-11-26-14-13-15/
REMARK  6 active torsions:
REMARK  status: ('A' for Active; 'I' for Inactive)
REMARK    1  A    between atoms: C_3  and  C_4
REMARK    2  A    between atoms: C_7  and  C_13
REMARK    3  A    between atoms: N_14  and  C_15
REMARK    4  A    between atoms: C_18  and  C_23
REMARK    5  A    between atoms: C_23  and  C_24
REMARK    6  A    between atoms: C_23  and  C_30
REMARK                            x       y       z     vdW  Elec       q    Type
REMARK                         _______ _______ _______ _____ _____    ______ ____
ROOT
ATOM      1  C   UNL A   1     -29.659  -4.815  31.201  0.00  0.00    +0.073 A 
ATOM      2  C   UNL A   1     -30.573  -5.629  30.377  0.00  0.00    +0.013 A 
ATOM      3  C   UNL A   1     -31.172  -6.727  30.929  0.00  0.00    -0.013 A 
ATOM      4  C   UNL A   1     -30.937  -7.053  32.332  0.00  0.00    -0.004 A 
ATOM      5  C   UNL A   1     -30.038  -6.301  33.063  0.00  0.00    +0.001 A 
ATOM      6  C   UNL A   1     -29.319  -5.254  32.478  0.00  0.00    +0.017 A 
ENDROOT
BRANCH   1   8
ATOM      7  C   UNL A   1     -28.984  -2.770  30.257  0.00  0.00    +0.269 C 
ATOM      8  N   UNL A   1     -28.838  -4.077  30.409  0.00  0.00    -0.175 NA
ATOM      9  O   UNL A   1     -30.057  -2.246  30.422  0.00  0.00    -0.268 OA
BRANCH   7  13
ATOM     10  C   UNL A   1     -28.016  -0.814  28.878  0.00  0.00    +0.004 A 
ATOM     11  C   UNL A   1     -27.064  -0.119  28.608  0.00  0.00    -0.004 A 
ATOM     12  C   UNL A   1     -25.765  -0.390  29.036  0.00  0.00    -0.022 A 
ATOM     13  C   UNL A   1     -27.829  -1.929  29.855  0.00  0.00    +0.055 A 
ATOM     14  C   UNL A   1     -26.588  -2.327  30.268  0.00  0.00    +0.004 A 
ATOM     15  C   UNL A   1     -25.456  -1.543  29.915  0.00  0.00    -0.004 A 
BRANCH  12  16
ATOM     16  C   UNL A   1     -24.552   0.406  28.765  0.00  0.00    +0.030 C 
ATOM     17  C   UNL A   1     -23.230   0.118  29.258  0.00  0.00    +0.005 C 
ATOM     18  C   UNL A   1     -22.139   0.943  28.922  0.00  0.00    +0.008 C 
ATOM     19  C   UNL A   1     -22.230   1.909  27.872  0.00  0.00    +0.065 C 
ATOM     20  C   UNL A   1     -24.554   1.470  27.762  0.00  0.00    +0.069 C 
ATOM     21  C   UNL A   1     -23.447   2.167  27.376  0.00  0.00    +0.151 C 
ATOM     22  O   UNL A   1     -23.608   3.098  26.409  0.00  0.00    -0.296 OA
ENDBRANCH  12  16
ENDBRANCH   7  13
ENDBRANCH   1   8
BRANCH   3  23
ATOM     23  C   UNL A   1     -32.155  -7.466  30.189  0.00  0.00    +0.067 C 
BRANCH  23  24
ATOM     24  C   UNL A   1     -31.677  -8.166  29.145  0.00  0.00    -0.014 A 
ATOM     25  C   UNL A   1     -32.422  -8.793  28.165  0.00  0.00    -0.004 A 
ATOM     26  C   UNL A   1     -31.787  -9.386  27.029  0.00  0.00    -0.000 A 
ATOM     27  C   UNL A   1     -30.497  -9.299  26.877  0.00  0.00    -0.000 A 
ATOM     28  C   UNL A   1     -29.738  -8.664  27.828  0.00  0.00    -0.000 A 
ATOM     29  C   UNL A   1     -30.240  -8.077  28.859  0.00  0.00    -0.004 A 
ENDBRANCH  23  24
BRANCH  23  30
ATOM     30  C   UNL A   1     -33.645  -7.457  30.323  0.00  0.00    -0.014 A 
ATOM     31  C   UNL A   1     -34.206  -6.591  31.302  0.00  0.00    -0.004 A 
ATOM     32  C   UNL A   1     -35.589  -6.613  31.441  0.00  0.00    -0.000 A 
ATOM     33  C   UNL A   1     -36.319  -7.447  30.638  0.00  0.00    -0.000 A 
ATOM     34  C   UNL A   1     -35.775  -8.261  29.718  0.00  0.00    -0.000 A 
ATOM     35  C   UNL A   1     -34.399  -8.265  29.585  0.00  0.00    -0.004 A 
ENDBRANCH  23  30
ENDBRANCH   3  23
TORSDOF 6
