MODEL 2246
MODEL 1
REMARK VINA RESULT:    -6.712      0.000      0.000
REMARK INTER + INTRA:          -7.294
REMARK INTER:                  -7.497
REMARK INTRA:                   0.203
REMARK UNBOUND:                 0.203
REMARK  Name = No_2246-gen_results/8p0m/2024-11-26-14-13-15/
REMARK  2 active torsions:
REMARK  status: ('A' for Active; 'I' for Inactive)
REMARK    1  A    between atoms: C_5  and  C_8
REMARK    2  A    between atoms: C_11  and  C_17
REMARK                            x       y       z     vdW  Elec       q    Type
REMARK                         _______ _______ _______ _____ _____    ______ ____
ROOT
ATOM      1  C   UNL A   1     -24.317  -0.787  29.796  0.00  0.00    +0.229 C 
ATOM      2  N   UNL A   1     -24.642   0.043  28.886  0.00  0.00    -0.277 N 
ATOM      3  C   UNL A   1     -24.764  -0.224  27.696  0.00  0.00    +0.109 C 
ATOM      4  C   UNL A   1     -25.273   0.865  26.746  0.00  0.00    +0.077 C 
ATOM      5  C   UNL A   1     -24.374   1.489  29.023  0.00  0.00    +0.111 C 
ATOM      6  C   UNL A   1     -24.969   2.423  28.302  0.00  0.00    +0.094 C 
ATOM      7  N   UNL A   1     -25.100   2.101  26.988  0.00  0.00    -0.270 NA
ATOM      8  O   UNL A   1     -23.691  -0.499  30.839  0.00  0.00    -0.275 OA
ATOM      9  C   UNL A   1     -25.971   3.034  26.177  0.00  0.00    +0.090 C 
ENDROOT
BRANCH   1  14
ATOM     10  C   UNL A   1     -25.929  -2.621  30.208  0.00  0.00    +0.018 C 
ATOM     11  C   UNL A   1     -26.472  -3.561  29.676  0.00  0.00    +0.027 C 
ATOM     12  C   UNL A   1     -25.925  -4.838  29.741  0.00  0.00    -0.026 C 
ATOM     13  C   UNL A   1     -25.239  -5.353  28.994  0.00  0.00    -0.005 C 
ATOM     14  C   UNL A   1     -24.901  -2.114  29.539  0.00  0.00    +0.099 C 
ATOM     15  C   UNL A   1     -23.787  -2.984  28.935  0.00  0.00    -0.017 C 
ATOM     16  C   UNL A   1     -23.906  -4.369  28.571  0.00  0.00    -0.004 C 
ENDBRANCH   1  14
BRANCH   4  17
ATOM     17  C   UNL A   1     -25.653   0.395  25.327  0.00  0.00    +0.016 C 
ATOM     18  C   UNL A   1     -27.012   0.102  25.036  0.00  0.00    +0.001 C 
ATOM     19  C   UNL A   1     -24.670   0.323  24.407  0.00  0.00    +0.001 C 
ENDBRANCH   4  17
TORSDOF 2
ENDMDL
ENDMDL
