REMARK  Name = No_2246-gen_results/8p0m/2024-11-26-14-13-15/
REMARK  2 active torsions:
REMARK  status: ('A' for Active; 'I' for Inactive)
REMARK    1  A    between atoms: C_5  and  C_8
REMARK    2  A    between atoms: C_11  and  C_17
REMARK                            x       y       z     vdW  Elec       q    Type
REMARK                         _______ _______ _______ _____ _____    ______ ____
ROOT
ATOM      1  C   UNL A   1     -29.854  -1.086  30.516  0.00  0.00    +0.229 C 
ATOM      2  N   UNL A   1     -30.768  -0.559  29.802  0.00  0.00    -0.277 N 
ATOM      3  C   UNL A   1     -30.751   0.585  29.362  0.00  0.00    +0.109 C 
ATOM      4  C   UNL A   1     -31.877   1.029  28.424  0.00  0.00    +0.077 C 
ATOM      5  C   UNL A   1     -32.170  -1.019  29.874  0.00  0.00    +0.111 C 
ATOM      6  C   UNL A   1     -33.079  -0.766  28.949  0.00  0.00    +0.094 C 
ATOM      7  N   UNL A   1     -33.035   0.506  28.470  0.00  0.00    -0.270 NA
ATOM      8  O   UNL A   1     -30.038  -1.969  31.381  0.00  0.00    -0.275 OA
ATOM      9  C   UNL A   1     -33.900   0.771  27.259  0.00  0.00    +0.090 C 
ENDROOT
BRANCH   1  14
ATOM     10  C   UNL A   1     -28.016  -0.814  28.878  0.00  0.00    +0.018 C 
ATOM     11  C   UNL A   1     -27.064  -0.119  28.608  0.00  0.00    +0.027 C 
ATOM     12  C   UNL A   1     -25.792  -0.430  29.076  0.00  0.00    -0.026 C 
ATOM     13  C   UNL A   1     -25.270  -0.049  30.012  0.00  0.00    -0.005 C 
ATOM     14  C   UNL A   1     -28.519  -0.630  30.092  0.00  0.00    +0.099 C 
ATOM     15  C   UNL A   1     -27.646  -0.565  31.356  0.00  0.00    -0.017 C 
ATOM     16  C   UNL A   1     -26.255  -0.209  31.400  0.00  0.00    -0.004 C 
ENDBRANCH   1  14
BRANCH   4  17
ATOM     17  C   UNL A   1     -31.659   2.374  27.702  0.00  0.00    +0.016 C 
ATOM     18  C   UNL A   1     -30.491   3.131  27.986  0.00  0.00    +0.001 C 
ATOM     19  C   UNL A   1     -32.580   2.753  26.793  0.00  0.00    +0.001 C 
ENDBRANCH   4  17
TORSDOF 2
