MODEL 2247
MODEL 1
REMARK VINA RESULT:    -4.251      0.000      0.000
REMARK INTER + INTRA:          -4.251
REMARK INTER:                  -4.251
REMARK INTRA:                   0.000
REMARK UNBOUND:                 0.000
REMARK  Name = No_2247-gen_results/8p0m/2024-11-26-14-13-15/
REMARK  0 active torsions:
REMARK  status: ('A' for Active; 'I' for Inactive)
REMARK                            x       y       z     vdW  Elec       q    Type
REMARK                         _______ _______ _______ _____ _____    ______ ____
ROOT
ATOM      1  C   UNL A   1     -26.419  -3.844  29.786  0.00  0.00    +0.000 A 
ATOM      2  C   UNL A   1     -26.090  -4.831  29.620  0.00  0.00    +0.000 A 
ATOM      3  C   UNL A   1     -25.471  -2.768  29.457  0.00  0.00    +0.000 A 
ATOM      4  C   UNL A   1     -24.233  -3.064  28.816  0.00  0.00    +0.000 A 
ATOM      5  C   UNL A   1     -24.901  -5.398  28.927  0.00  0.00    +0.000 A 
ATOM      6  C   UNL A   1     -23.992  -4.431  28.615  0.00  0.00    +0.000 A 
ENDROOT
TORSDOF 0
ENDMDL
ENDMDL
