MODEL 2248
MODEL 1
REMARK VINA RESULT:    -7.000      0.000      0.000
REMARK INTER + INTRA:          -8.796
REMARK INTER:                  -8.227
REMARK INTRA:                  -0.569
REMARK UNBOUND:                -0.569
REMARK  Name = No_2248-gen_results/8p0m/2024-11-26-14-13-15/
REMARK  3 active torsions:
REMARK  status: ('A' for Active; 'I' for Inactive)
REMARK    1  A    between atoms: C_3  and  C_4
REMARK    2  A    between atoms: C_6  and  C_13
REMARK    3  A    between atoms: N_14  and  C_15
REMARK                            x       y       z     vdW  Elec       q    Type
REMARK                         _______ _______ _______ _____ _____    ______ ____
ROOT
ATOM      1  C   UNL A   1     -10.848   1.214  36.578  0.00  0.00    +0.002 A 
ATOM      2  C   UNL A   1     -11.840   1.747  37.017  0.00  0.00    +0.000 A 
ATOM      3  C   UNL A   1     -12.805   2.278  36.168  0.00  0.00    +0.000 A 
ATOM      4  C   UNL A   1     -10.548   1.282  35.139  0.00  0.00    +0.019 A 
ATOM      5  C   UNL A   1     -11.479   1.722  34.230  0.00  0.00    +0.002 A 
ATOM      6  C   UNL A   1     -12.669   2.303  34.701  0.00  0.00    +0.000 A 
ENDROOT
BRANCH   3   7
ATOM      7  C   UNL A   1     -14.061   2.967  36.584  0.00  0.00    +0.000 A 
ATOM      8  C   UNL A   1     -15.153   3.307  35.711  0.00  0.00    +0.000 A 
ATOM      9  C   UNL A   1     -16.291   3.871  36.247  0.00  0.00    +0.000 A 
ATOM     10  C   UNL A   1     -16.602   3.997  37.567  0.00  0.00    +0.000 A 
ATOM     11  C   UNL A   1     -14.591   2.961  37.955  0.00  0.00    +0.000 A 
ATOM     12  C   UNL A   1     -15.703   3.527  38.404  0.00  0.00    +0.000 A 
ENDBRANCH   3   7
BRANCH   4  13
ATOM     13  C   UNL A   1      -9.292   0.716  34.564  0.00  0.00    +0.099 C 
ATOM     14  N   UNL A   1      -8.409   0.137  35.326  0.00  0.00    -0.244 NA
BRANCH  14  15
ATOM     15  C   UNL A   1      -7.213  -0.332  34.807  0.00  0.00    +0.081 A 
ATOM     16  C   UNL A   1      -6.989  -1.577  34.463  0.00  0.00    +0.019 A 
ATOM     17  C   UNL A   1      -5.743  -2.283  34.488  0.00  0.00    +0.002 A 
ATOM     18  C   UNL A   1      -4.618  -1.478  34.737  0.00  0.00    +0.000 A 
ATOM     19  C   UNL A   1      -6.042   0.130  35.487  0.00  0.00    +0.019 A 
ATOM     20  C   UNL A   1      -4.821  -0.301  35.369  0.00  0.00    +0.002 A 
ENDBRANCH  14  15
ENDBRANCH   4  13
TORSDOF 3
ENDMDL
ENDMDL
