REMARK  Name = No_2248-gen_results/8p0m/2024-11-26-14-13-15/
REMARK  3 active torsions:
REMARK  status: ('A' for Active; 'I' for Inactive)
REMARK    1  A    between atoms: C_3  and  C_4
REMARK    2  A    between atoms: C_6  and  C_13
REMARK    3  A    between atoms: N_14  and  C_15
REMARK                            x       y       z     vdW  Elec       q    Type
REMARK                         _______ _______ _______ _____ _____    ______ ____
ROOT
ATOM      1  C   UNL A   1     -28.016  -0.814  28.878  0.00  0.00    +0.002 A 
ATOM      2  C   UNL A   1     -27.064  -0.119  28.608  0.00  0.00    +0.000 A 
ATOM      3  C   UNL A   1     -25.792  -0.430  29.076  0.00  0.00    +0.000 A 
ATOM      4  C   UNL A   1     -27.882  -1.899  29.863  0.00  0.00    +0.019 A 
ATOM      5  C   UNL A   1     -26.653  -2.314  30.314  0.00  0.00    +0.002 A 
ATOM      6  C   UNL A   1     -25.515  -1.561  29.979  0.00  0.00    +0.000 A 
ENDROOT
BRANCH   3   7
ATOM      7  C   UNL A   1     -24.546   0.349  28.823  0.00  0.00    +0.000 A 
ATOM      8  C   UNL A   1     -23.241   0.022  29.332  0.00  0.00    +0.000 A 
ATOM      9  C   UNL A   1     -22.159   0.787  28.951  0.00  0.00    +0.000 A 
ATOM     10  C   UNL A   1     -22.131   1.744  27.982  0.00  0.00    +0.000 A 
ATOM     11  C   UNL A   1     -24.347   1.238  27.669  0.00  0.00    +0.000 A 
ATOM     12  C   UNL A   1     -23.271   1.948  27.359  0.00  0.00    +0.000 A 
ENDBRANCH   3   7
BRANCH   4  13
ATOM     13  C   UNL A   1     -29.048  -2.725  30.295  0.00  0.00    +0.099 C 
ATOM     14  N   UNL A   1     -28.946  -4.019  30.406  0.00  0.00    -0.244 NA
BRANCH  14  15
ATOM     15  C   UNL A   1     -30.042  -4.796  30.744  0.00  0.00    +0.081 A 
ATOM     16  C   UNL A   1     -29.970  -6.004  31.250  0.00  0.00    +0.019 A 
ATOM     17  C   UNL A   1     -30.906  -7.076  31.096  0.00  0.00    +0.002 A 
ATOM     18  C   UNL A   1     -32.118  -6.713  30.483  0.00  0.00    +0.000 A 
ATOM     19  C   UNL A   1     -31.088  -4.815  29.768  0.00  0.00    +0.019 A 
ATOM     20  C   UNL A   1     -32.118  -5.607  29.708  0.00  0.00    +0.002 A 
ENDBRANCH  14  15
ENDBRANCH   4  13
TORSDOF 3
