REMARK  Name = No_2249-gen_results/8p0m/2024-11-26-14-13-15/
REMARK  5 active torsions:
REMARK  status: ('A' for Active; 'I' for Inactive)
REMARK    1  A    between atoms: C_1  and  C_7
REMARK    2  A    between atoms: C_5  and  C_10
REMARK    3  A    between atoms: N_9  and  C_14
REMARK    4  A    between atoms: C_14  and  C_15
REMARK    5  A    between atoms: C_15  and  C_16
REMARK                            x       y       z     vdW  Elec       q    Type
REMARK                         _______ _______ _______ _____ _____    ______ ____
ROOT
ATOM      1  C   UNL A   1     -28.003  -1.660  30.127  0.00  0.00    +0.265 C 
ATOM      2  O   UNL A   1     -28.691  -1.792  30.889  0.00  0.00    -0.268 OA
ATOM      3  N   UNL A   1     -26.831  -2.570  30.058  0.00  0.00    -0.201 NA
ENDROOT
BRANCH   1   4
ATOM      4  C   UNL A   1     -28.016  -0.814  28.878  0.00  0.00    +0.055 A 
ATOM      5  C   UNL A   1     -27.064  -0.119  28.608  0.00  0.00    +0.005 A 
ATOM      6  C   UNL A   1     -27.001   0.691  27.491  0.00  0.00    +0.000 A 
ATOM      7  C   UNL A   1     -28.137   0.736  26.635  0.00  0.00    +0.005 A 
ATOM      8  C   UNL A   1     -29.236   0.076  27.069  0.00  0.00    +0.055 A 
ATOM      9  C   UNL A   1     -29.218  -0.643  28.175  0.00  0.00    +0.009 A 
BRANCH   8  10
ATOM     10  C   UNL A   1     -30.434   0.182  26.207  0.00  0.00    +0.265 C 
ATOM     11  O   UNL A   1     -30.477   0.219  25.004  0.00  0.00    -0.268 OA
ATOM     12  N   UNL A   1     -31.652   0.006  26.851  0.00  0.00    -0.200 NA
ATOM     13  C   UNL A   1     -32.888  -0.016  26.140  0.00  0.00    +0.139 C 
ENDBRANCH   8  10
ENDBRANCH   1   4
BRANCH   3  14
ATOM     14  C   UNL A   1     -25.716  -2.418  29.257  0.00  0.00    +0.120 C 
BRANCH  14  15
ATOM     15  C   UNL A   1     -24.541  -2.355  29.954  0.00  0.00    +0.050 C 
BRANCH  15  16
ATOM     16  C   UNL A   1     -23.816  -1.026  29.907  0.00  0.00    -0.018 A 
ATOM     17  C   UNL A   1     -22.800  -0.843  28.931  0.00  0.00    -0.004 A 
ATOM     18  C   UNL A   1     -22.241   0.431  28.761  0.00  0.00    +0.002 A 
ATOM     19  C   UNL A   1     -22.912   1.505  29.304  0.00  0.00    +0.030 A 
ATOM     20  C   UNL A   1     -23.897   1.394  30.256  0.00  0.00    +0.140 A 
ATOM     21  C   UNL A   1     -24.422   0.044  30.553  0.00  0.00    +0.025 A 
ATOM     22  F   UNL A   1     -24.392   2.438  30.881  0.00  0.00    -0.204 F 
ENDBRANCH  15  16
ENDBRANCH  14  15
ENDBRANCH   3  14
TORSDOF 5
