MODEL 2249
MODEL 1
REMARK VINA RESULT:    -6.678      0.000      0.000
REMARK INTER + INTRA:          -9.973
REMARK INTER:                  -8.630
REMARK INTRA:                  -1.343
REMARK UNBOUND:                -1.343
REMARK  Name = No_2249-gen_results/8p0m/2024-11-26-14-13-15/
REMARK  5 active torsions:
REMARK  status: ('A' for Active; 'I' for Inactive)
REMARK    1  A    between atoms: C_1  and  C_7
REMARK    2  A    between atoms: C_5  and  C_10
REMARK    3  A    between atoms: N_9  and  C_14
REMARK    4  A    between atoms: C_14  and  C_15
REMARK    5  A    between atoms: C_15  and  C_16
REMARK                            x       y       z     vdW  Elec       q    Type
REMARK                         _______ _______ _______ _____ _____    ______ ____
ROOT
ATOM      1  C   UNL A   1     -21.091  -0.297  28.666  0.00  0.00    +0.265 C 
ATOM      2  O   UNL A   1     -20.212  -0.835  28.575  0.00  0.00    -0.268 OA
ATOM      3  N   UNL A   1     -21.308   0.873  27.776  0.00  0.00    -0.201 NA
ENDROOT
BRANCH   1   4
ATOM      4  C   UNL A   1     -22.371  -0.557  29.421  0.00  0.00    +0.055 A 
ATOM      5  C   UNL A   1     -22.693   0.169  30.334  0.00  0.00    +0.005 A 
ATOM      6  C   UNL A   1     -23.842  -0.006  31.081  0.00  0.00    +0.000 A 
ATOM      7  C   UNL A   1     -24.668  -1.126  30.781  0.00  0.00    +0.005 A 
ATOM      8  C   UNL A   1     -24.179  -2.000  29.871  0.00  0.00    +0.055 A 
ATOM      9  C   UNL A   1     -23.047  -1.771  29.232  0.00  0.00    +0.009 A 
BRANCH   8  10
ATOM     10  C   UNL A   1     -25.012  -3.195  29.613  0.00  0.00    +0.265 C 
ATOM     11  O   UNL A   1     -26.205  -3.244  29.457  0.00  0.00    -0.268 OA
ATOM     12  N   UNL A   1     -24.313  -4.357  29.309  0.00  0.00    -0.200 NA
ATOM     13  C   UNL A   1     -24.976  -5.565  28.943  0.00  0.00    +0.139 C 
ENDBRANCH   8  10
ENDBRANCH   1   4
BRANCH   3  14
ATOM     14  C   UNL A   1     -22.303   1.823  27.893  0.00  0.00    +0.120 C 
BRANCH  14  15
ATOM     15  C   UNL A   1     -23.084   1.944  26.777  0.00  0.00    +0.050 C 
BRANCH  15  16
ATOM     16  C   UNL A   1     -24.328   1.082  26.745  0.00  0.00    -0.018 A 
ATOM     17  C   UNL A   1     -25.243   1.174  27.828  0.00  0.00    -0.004 A 
ATOM     18  C   UNL A   1     -26.477   0.516  27.734  0.00  0.00    +0.002 A 
ATOM     19  C   UNL A   1     -26.884   0.086  26.490  0.00  0.00    +0.030 A 
ATOM     20  C   UNL A   1     -26.046  -0.032  25.407  0.00  0.00    +0.140 A 
ATOM     21  C   UNL A   1     -24.688   0.541  25.517  0.00  0.00    +0.025 A 
ATOM     22  F   UNL A   1     -26.421  -0.610  24.288  0.00  0.00    -0.204 F 
ENDBRANCH  15  16
ENDBRANCH  14  15
ENDBRANCH   3  14
TORSDOF 5
ENDMDL
ENDMDL
