MODEL 224
MODEL 1
REMARK VINA RESULT:    -4.258      0.000      0.000
REMARK INTER + INTRA:          -4.258
REMARK INTER:                  -4.258
REMARK INTRA:                   0.000
REMARK UNBOUND:                 0.000
REMARK  Name = No_224-gen_results/8p0m/2024-11-26-14-13-15/
REMARK  0 active torsions:
REMARK  status: ('A' for Active; 'I' for Inactive)
REMARK                            x       y       z     vdW  Elec       q    Type
REMARK                         _______ _______ _______ _____ _____    ______ ____
ROOT
ATOM      1  C   UNL A   1     -24.938  -5.367  28.936  0.00  0.00    +0.000 A 
ATOM      2  C   UNL A   1     -24.128  -4.728  28.719  0.00  0.00    +0.000 A 
ATOM      3  C   UNL A   1     -26.100  -4.757  29.601  0.00  0.00    +0.000 A 
ATOM      4  C   UNL A   1     -26.162  -3.348  29.802  0.00  0.00    +0.000 A 
ATOM      5  C   UNL A   1     -23.965  -3.249  28.771  0.00  0.00    +0.000 A 
ATOM      6  C   UNL A   1     -25.019  -2.649  29.391  0.00  0.00    +0.000 A 
ENDROOT
TORSDOF 0
ENDMDL
ENDMDL
