REMARK  Name = No_225-gen_results/8p0m/2024-11-26-14-13-15/
REMARK  12 active torsions:
REMARK  status: ('A' for Active; 'I' for Inactive)
REMARK    1  A    between atoms: C_3  and  C_17
REMARK    2  A    between atoms: C_6  and  C_7
REMARK    3  A    between atoms: C_12  and  C_13
REMARK    4  A    between atoms: C_21  and  O_25
REMARK    5  A    between atoms: O_25  and  C_26
REMARK    6  A    between atoms: C_26  and  C_27
REMARK    7  A    between atoms: C_27  and  O_28
REMARK    8  A    between atoms: O_28  and  C_29
REMARK    9  A    between atoms: C_29  and  C_30
REMARK   10  A    between atoms: C_30  and  O_32
REMARK   11  A    between atoms: O_32  and  C_33
REMARK   12  A    between atoms: C_33  and  C_34
REMARK                            x       y       z     vdW  Elec       q    Type
REMARK                         _______ _______ _______ _____ _____    ______ ____
ROOT
ATOM      1  C   UNL A   1     -24.543   0.411  28.674  0.00  0.00    +0.035 A 
ATOM      2  C   UNL A   1     -24.590   1.258  27.606  0.00  0.00    +0.014 A 
ATOM      3  C   UNL A   1     -23.651   1.936  27.253  0.00  0.00    +0.058 A 
ATOM      4  C   UNL A   1     -22.331   1.837  27.828  0.00  0.00    +0.015 A 
ATOM      5  C   UNL A   1     -23.201   0.224  29.161  0.00  0.00    +0.139 A 
ATOM      6  C   UNL A   1     -22.127   0.916  28.768  0.00  0.00    +0.038 A 
ATOM      7 CL   UNL A   1     -23.767   3.169  25.953  0.00  0.00    -0.082 Cl
ENDROOT
BRANCH   1  10
ATOM      8  C   UNL A   1     -28.016  -0.814  28.878  0.00  0.00    -0.001 A 
ATOM      9  C   UNL A   1     -27.064  -0.119  28.608  0.00  0.00    -0.000 A 
ATOM     10  C   UNL A   1     -25.765  -0.390  29.036  0.00  0.00    +0.003 A 
ATOM     11  C   UNL A   1     -25.530  -1.530  29.901  0.00  0.00    -0.000 A 
ATOM     12  C   UNL A   1     -26.689  -2.289  30.181  0.00  0.00    -0.001 A 
ATOM     13  C   UNL A   1     -27.873  -1.951  29.737  0.00  0.00    +0.014 A 
BRANCH  13  14
ATOM     14  C   UNL A   1     -29.002  -2.814  30.179  0.00  0.00    +0.191 C 
ATOM     15  N   UNL A   1     -28.827  -4.075  30.477  0.00  0.00    -0.194 NA
ATOM     16  N   UNL A   1     -30.213  -2.320  30.277  0.00  0.00    -0.184 NA
ATOM     17  C   UNL A   1     -31.218  -3.138  30.637  0.00  0.00    +0.252 C 
ATOM     18  C   UNL A   1     -29.765  -4.938  30.831  0.00  0.00    +0.109 C 
ATOM     19  C   UNL A   1     -31.032  -4.473  30.924  0.00  0.00    +0.190 C 
ATOM     20  O   UNL A   1     -32.371  -2.628  30.708  0.00  0.00    -0.273 OA
BRANCH  19  21
ATOM     21  C   UNL A   1     -32.167  -5.318  31.329  0.00  0.00    +0.407 C 
ATOM     22  F   UNL A   1     -33.263  -5.018  31.459  0.00  0.00    -0.169 F 
ATOM     23  F   UNL A   1     -32.139  -6.464  30.442  0.00  0.00    -0.169 F 
ATOM     24  F   UNL A   1     -31.809  -5.984  32.523  0.00  0.00    -0.169 F 
ENDBRANCH  19  21
ENDBRANCH  13  14
ENDBRANCH   1  10
BRANCH   5  25
ATOM     25  O   UNL A   1     -23.028  -0.672  30.221  0.00  0.00    -0.473 OA
BRANCH  25  26
ATOM     26  C   UNL A   1     -22.829  -0.343  31.514  0.00  0.00    +0.237 C 
BRANCH  26  27
ATOM     27  C   UNL A   1     -23.016  -1.456  32.416  0.00  0.00    +0.190 C 
BRANCH  27  28
ATOM     28  O   UNL A   1     -24.341  -1.501  32.844  0.00  0.00    -0.339 OA
BRANCH  28  29
ATOM     29  C   UNL A   1     -24.712  -0.525  33.762  0.00  0.00    +0.252 C 
BRANCH  29  30
ATOM     30  C   UNL A   1     -25.736   0.321  33.394  0.00  0.00    +0.347 C 
ATOM     31  O   UNL A   1     -26.850  -0.068  33.240  0.00  0.00    -0.247 OA
BRANCH  30  32
ATOM     32  O   UNL A   1     -25.582   1.615  33.431  0.00  0.00    -0.447 OA
BRANCH  32  33
ATOM     33  C   UNL A   1     -26.051   2.466  32.380  0.00  0.00    +0.208 C 
BRANCH  33  34
ATOM     34  C   UNL A   1     -25.026   3.186  31.753  0.00  0.00    +0.047 C 
ATOM     35  C   UNL A   1     -24.876   4.507  32.239  0.00  0.00    +0.004 C 
ENDBRANCH  33  34
ENDBRANCH  32  33
ENDBRANCH  30  32
ENDBRANCH  29  30
ENDBRANCH  28  29
ENDBRANCH  27  28
ENDBRANCH  26  27
ENDBRANCH  25  26
ENDBRANCH   5  25
TORSDOF 12
