MODEL 2250
MODEL 1
REMARK VINA RESULT:    -5.885      0.000      0.000
REMARK INTER + INTRA:          -7.930
REMARK INTER:                  -7.261
REMARK INTRA:                  -0.670
REMARK UNBOUND:                -0.670
REMARK  Name = No_2250-gen_results/8p0m/2024-11-26-14-13-15/
REMARK  4 active torsions:
REMARK  status: ('A' for Active; 'I' for Inactive)
REMARK    1  A    between atoms: C_1  and  C_2
REMARK    2  A    between atoms: C_1  and  N_8
REMARK    3  A    between atoms: C_3  and  C_17
REMARK    4  A    between atoms: C_5  and  C_10
REMARK                            x       y       z     vdW  Elec       q    Type
REMARK                         _______ _______ _______ _____ _____    ______ ____
ROOT
ATOM      1  C   UNL A   1     -23.975  -0.774  29.392  0.00  0.00    -0.005 A 
ATOM      2  C   UNL A   1     -25.253  -0.854  29.919  0.00  0.00    +0.016 A 
ATOM      3  C   UNL A   1     -26.054  -2.049  30.038  0.00  0.00    +0.005 A 
ATOM      4  C   UNL A   1     -25.517  -3.273  29.575  0.00  0.00    +0.048 A 
ATOM      5  C   UNL A   1     -24.179  -3.226  29.051  0.00  0.00    +0.004 A 
ATOM      6  C   UNL A   1     -23.427  -2.088  28.972  0.00  0.00    -0.003 A 
ENDROOT
BRANCH   4   7
ATOM      7  C   UNL A   1     -26.229  -4.509  29.639  0.00  0.00    +0.242 C 
ATOM      8  N   UNL A   1     -27.508  -4.551  29.886  0.00  0.00    -0.116 NA
ATOM      9  F   UNL A   1     -25.584  -5.594  29.842  0.00  0.00    -0.181 F 
ENDBRANCH   4   7
BRANCH   2  10
ATOM     10  C   UNL A   1     -25.909   0.316  30.458  0.00  0.00    +0.093 C 
ATOM     11  N   UNL A   1     -27.007   0.400  30.851  0.00  0.00    -0.267 NA
ATOM     12  C   UNL A   1     -27.566   1.521  31.424  0.00  0.00    +0.152 C 
ENDBRANCH   2  10
BRANCH   1  13
ATOM     13  C   UNL A   1     -23.295   0.226  29.365  0.00  0.00    +0.099 C 
BRANCH  13  14
ATOM     14  N   UNL A   1     -23.016   0.837  28.215  0.00  0.00    -0.269 NA
ATOM     15  C   UNL A   1     -21.722   1.246  27.818  0.00  0.00    +0.072 C 
ATOM     16  C   UNL A   1     -21.517   1.923  26.679  0.00  0.00    +0.017 C 
ATOM     17  C   UNL A   1     -23.965   1.188  27.223  0.00  0.00    +0.072 C 
ATOM     18  C   UNL A   1     -23.785   1.858  26.092  0.00  0.00    +0.017 C 
ATOM     19  C   UNL A   1     -22.521   2.215  25.768  0.00  0.00    +0.003 C 
ENDBRANCH  13  14
ENDBRANCH   1  13
TORSDOF 4
ENDMDL
ENDMDL
