REMARK  Name = No_2250-gen_results/8p0m/2024-11-26-14-13-15/
REMARK  4 active torsions:
REMARK  status: ('A' for Active; 'I' for Inactive)
REMARK    1  A    between atoms: C_1  and  C_2
REMARK    2  A    between atoms: C_1  and  N_8
REMARK    3  A    between atoms: C_3  and  C_17
REMARK    4  A    between atoms: C_5  and  C_10
REMARK                            x       y       z     vdW  Elec       q    Type
REMARK                         _______ _______ _______ _____ _____    ______ ____
ROOT
ATOM      1  C   UNL A   1     -27.064  -0.119  28.608  0.00  0.00    -0.005 A 
ATOM      2  C   UNL A   1     -26.972   0.714  27.506  0.00  0.00    +0.016 A 
ATOM      3  C   UNL A   1     -25.820   1.491  27.116  0.00  0.00    +0.005 A 
ATOM      4  C   UNL A   1     -24.656   1.424  27.918  0.00  0.00    +0.048 A 
ATOM      5  C   UNL A   1     -24.711   0.542  29.051  0.00  0.00    +0.004 A 
ATOM      6  C   UNL A   1     -25.804  -0.206  29.388  0.00  0.00    -0.003 A 
ENDROOT
BRANCH   4   7
ATOM      7  C   UNL A   1     -23.466   2.158  27.625  0.00  0.00    +0.242 C 
ATOM      8  N   UNL A   1     -23.233   2.639  26.436  0.00  0.00    -0.116 NA
ATOM      9  F   UNL A   1     -22.447   2.029  28.386  0.00  0.00    -0.181 F 
ENDBRANCH   4   7
BRANCH   2  10
ATOM     10  C   UNL A   1     -28.078   0.851  26.584  0.00  0.00    +0.093 C 
ATOM     11  N   UNL A   1     -28.025   1.029  25.430  0.00  0.00    -0.267 NA
ATOM     12  C   UNL A   1     -29.109   1.080  24.580  0.00  0.00    +0.152 C 
ENDBRANCH   2  10
BRANCH   1  13
ATOM     13  C   UNL A   1     -28.016  -0.814  28.878  0.00  0.00    +0.099 C 
BRANCH  13  14
ATOM     14  N   UNL A   1     -28.723  -0.611  29.988  0.00  0.00    -0.269 NA
ATOM     15  C   UNL A   1     -29.813  -1.411  30.403  0.00  0.00    +0.072 C 
ATOM     16  C   UNL A   1     -30.531  -1.110  31.494  0.00  0.00    +0.017 C 
ATOM     17  C   UNL A   1     -28.509   0.441  30.914  0.00  0.00    +0.072 C 
ATOM     18  C   UNL A   1     -29.207   0.757  31.998  0.00  0.00    +0.017 C 
ATOM     19  C   UNL A   1     -30.234  -0.053  32.342  0.00  0.00    +0.003 C 
ENDBRANCH  13  14
ENDBRANCH   1  13
TORSDOF 4
