REMARK  Name = No_2251-gen_results/8p0m/2024-11-26-14-13-15/
REMARK  7 active torsions:
REMARK  status: ('A' for Active; 'I' for Inactive)
REMARK    1  A    between atoms: C_2  and  N_11
REMARK    2  A    between atoms: C_4  and  C_7
REMARK    3  A    between atoms: N_11  and  C_12
REMARK    4  A    between atoms: C_17  and  C_21
REMARK    5  A    between atoms: N_22  and  C_24
REMARK    6  A    between atoms: C_27  and  C_30
REMARK    7  A    between atoms: N_31  and  C_33
REMARK                            x       y       z     vdW  Elec       q    Type
REMARK                         _______ _______ _______ _____ _____    ______ ____
ROOT
ATOM      1  C   UNL A   1     -30.697   0.277  30.084  0.00  0.00    +0.061 A 
ATOM      2  C   UNL A   1     -30.036   1.348  30.384  0.00  0.00    +0.015 A 
ATOM      3  C   UNL A   1     -30.833   2.588  30.697  0.00  0.00    +0.001 A 
ATOM      4  C   UNL A   1     -32.113   2.529  30.541  0.00  0.00    +0.005 A 
ATOM      5  C   UNL A   1     -32.080   0.208  29.961  0.00  0.00    +0.020 A 
ATOM      6  C   UNL A   1     -32.792   1.385  30.235  0.00  0.00    +0.057 A 
ENDROOT
BRANCH   1   7
ATOM      7  N   UNL A   1     -29.976  -0.796  29.752  0.00  0.00    -0.201 N 
ATOM      8  C   UNL A   1     -30.588  -2.029  29.455  0.00  0.00    +0.455 C 
ATOM      9  O   UNL A   1     -31.640  -2.086  28.974  0.00  0.00    -0.222 OA
ATOM     10  O   UNL A   1     -29.943  -3.076  29.862  0.00  0.00    -0.222 OA
BRANCH   7  12
ATOM     11  C   UNL A   1     -28.016  -0.814  28.878  0.00  0.00    +0.015 A 
ATOM     12  C   UNL A   1     -28.469  -0.785  29.829  0.00  0.00    +0.061 A 
ATOM     13  C   UNL A   1     -26.504  -0.778  28.877  0.00  0.00    +0.005 A 
ATOM     14  C   UNL A   1     -25.810  -0.853  30.103  0.00  0.00    +0.071 A 
ATOM     15  C   UNL A   1     -27.986  -0.842  31.066  0.00  0.00    +0.015 A 
ATOM     16  C   UNL A   1     -26.615  -0.843  31.230  0.00  0.00    +0.005 A 
BRANCH  14  17
ATOM     17  C   UNL A   1     -24.392  -0.795  30.162  0.00  0.00    +0.419 C 
ATOM     18  F   UNL A   1     -23.838  -1.646  29.456  0.00  0.00    -0.166 F 
ATOM     19  F   UNL A   1     -23.749  -1.023  31.285  0.00  0.00    -0.166 F 
ATOM     20  F   UNL A   1     -23.924   0.429  29.720  0.00  0.00    -0.166 F 
ENDBRANCH  14  17
ENDBRANCH   7  12
ENDBRANCH   1   7
BRANCH   6  21
ATOM     21  C   UNL A   1     -34.275   1.358  30.132  0.00  0.00    +0.269 C 
ATOM     22  N   UNL A   1     -35.030   2.190  30.467  0.00  0.00    -0.175 NA
ATOM     23  O   UNL A   1     -34.789   0.168  29.956  0.00  0.00    -0.268 OA
BRANCH  22  24
ATOM     24  C   UNL A   1     -36.463   2.186  30.438  0.00  0.00    +0.074 A 
ATOM     25  C   UNL A   1     -37.039   3.289  30.396  0.00  0.00    +0.017 A 
ATOM     26  C   UNL A   1     -38.404   3.443  30.403  0.00  0.00    +0.006 A 
ATOM     27  C   UNL A   1     -39.155   2.209  30.401  0.00  0.00    +0.056 A 
ATOM     28  C   UNL A   1     -38.498   1.020  30.410  0.00  0.00    +0.006 A 
ATOM     29  C   UNL A   1     -37.130   0.975  30.472  0.00  0.00    +0.017 A 
BRANCH  27  30
ATOM     30  C   UNL A   1     -40.623   2.259  30.375  0.00  0.00    +0.269 C 
ATOM     31  N   UNL A   1     -41.205   3.265  30.800  0.00  0.00    -0.174 NA
ATOM     32  O   UNL A   1     -41.203   1.257  29.943  0.00  0.00    -0.268 OA
BRANCH  31  33
ATOM     33  C   UNL A   1     -42.663   3.385  30.816  0.00  0.00    +0.084 C 
ATOM     34  C   UNL A   1     -43.489   2.764  30.975  0.00  0.00    -0.008 C 
ATOM     35  C   UNL A   1     -44.886   3.018  30.968  0.00  0.00    +0.032 C 
ENDBRANCH  31  33
ENDBRANCH  27  30
ENDBRANCH  22  24
ENDBRANCH   6  21
TORSDOF 7
