REMARK  Name = No_2252-gen_results/8p0m/2024-11-26-14-13-15/
REMARK  2 active torsions:
REMARK  status: ('A' for Active; 'I' for Inactive)
REMARK    1  A    between atoms: C_4  and  C_7
REMARK    2  A    between atoms: C_7  and  C_8
REMARK                            x       y       z     vdW  Elec       q    Type
REMARK                         _______ _______ _______ _____ _____    ______ ____
ROOT
ATOM      1  C   UNL A   1     -24.403  -0.585  30.042  0.00  0.00    +0.053 C 
ENDROOT
BRANCH   1   5
ATOM      2  C   UNL A   1     -28.016  -0.814  28.878  0.00  0.00    -0.000 A 
ATOM      3  C   UNL A   1     -28.469  -0.785  29.829  0.00  0.00    -0.000 A 
ATOM      4  C   UNL A   1     -26.504  -0.778  28.877  0.00  0.00    -0.004 A 
ATOM      5  C   UNL A   1     -25.915  -0.658  29.923  0.00  0.00    -0.018 A 
ATOM      6  C   UNL A   1     -27.969  -0.724  31.205  0.00  0.00    -0.000 A 
ATOM      7  C   UNL A   1     -26.585  -0.639  31.206  0.00  0.00    -0.004 A 
ENDBRANCH   1   5
BRANCH   1   8
ATOM      8  C   UNL A   1     -23.675  -0.149  28.995  0.00  0.00    -0.018 A 
ATOM      9  C   UNL A   1     -22.526   0.390  29.033  0.00  0.00    -0.004 A 
ATOM     10  C   UNL A   1     -21.919   0.917  27.854  0.00  0.00    -0.000 A 
ATOM     11  C   UNL A   1     -22.747   1.366  26.811  0.00  0.00    -0.000 A 
ATOM     12  C   UNL A   1     -24.088   1.098  26.871  0.00  0.00    -0.000 A 
ATOM     13  C   UNL A   1     -24.632   0.400  27.944  0.00  0.00    -0.004 A 
ENDBRANCH   1   8
TORSDOF 2
