MODEL 2252
MODEL 1
REMARK VINA RESULT:    -6.527      0.000      0.000
REMARK INTER + INTRA:          -7.768
REMARK INTER:                  -7.290
REMARK INTRA:                  -0.478
REMARK UNBOUND:                -0.478
REMARK  Name = No_2252-gen_results/8p0m/2024-11-26-14-13-15/
REMARK  2 active torsions:
REMARK  status: ('A' for Active; 'I' for Inactive)
REMARK    1  A    between atoms: C_4  and  C_7
REMARK    2  A    between atoms: C_7  and  C_8
REMARK                            x       y       z     vdW  Elec       q    Type
REMARK                         _______ _______ _______ _____ _____    ______ ____
ROOT
ATOM      1  C   UNL A   1     -24.650  -1.228  29.562  0.00  0.00    +0.053 C 
ENDROOT
BRANCH   1   5
ATOM      2  C   UNL A   1     -24.168  -4.885  28.638  0.00  0.00    -0.000 A 
ATOM      3  C   UNL A   1     -25.094  -5.240  28.994  0.00  0.00    -0.000 A 
ATOM      4  C   UNL A   1     -23.915  -3.408  28.844  0.00  0.00    -0.004 A 
ATOM      5  C   UNL A   1     -24.781  -2.723  29.331  0.00  0.00    -0.018 A 
ATOM      6  C   UNL A   1     -26.238  -4.627  29.674  0.00  0.00    -0.000 A 
ATOM      7  C   UNL A   1     -26.032  -3.263  29.819  0.00  0.00    -0.004 A 
ENDBRANCH   1   5
BRANCH   1   8
ATOM      8  C   UNL A   1     -23.883  -0.493  28.733  0.00  0.00    -0.018 A 
ATOM      9  C   UNL A   1     -22.947   0.302  29.058  0.00  0.00    -0.004 A 
ATOM     10  C   UNL A   1     -22.295   1.112  28.081  0.00  0.00    -0.000 A 
ATOM     11  C   UNL A   1     -23.004   1.478  26.924  0.00  0.00    -0.000 A 
ATOM     12  C   UNL A   1     -24.212   0.884  26.675  0.00  0.00    -0.000 A 
ATOM     13  C   UNL A   1     -24.740  -0.061  27.548  0.00  0.00    -0.004 A 
ENDBRANCH   1   8
TORSDOF 2
ENDMDL
ENDMDL
