REMARK  Name = No_2253-gen_results/8p0m/2024-11-26-14-13-15/
REMARK  2 active torsions:
REMARK  status: ('A' for Active; 'I' for Inactive)
REMARK    1  A    between atoms: C_2  and  C_3
REMARK    2  A    between atoms: C_3  and  C_4
REMARK                            x       y       z     vdW  Elec       q    Type
REMARK                         _______ _______ _______ _____ _____    ______ ____
ROOT
ATOM      1  C   UNL A   1     -26.876   1.133  28.913  0.00  0.00    +0.098 C 
ENDROOT
BRANCH   1   3
ATOM      2  C   UNL A   1     -28.016  -0.814  28.878  0.00  0.00    -0.008 C 
ATOM      3  C   UNL A   1     -27.064  -0.119  28.608  0.00  0.00    -0.031 C 
ATOM      4  C   UNL A   1     -25.858  -0.737  27.920  0.00  0.00    +0.027 C 
ENDBRANCH   1   3
BRANCH   1   5
ATOM      5  C   UNL A   1     -25.688   1.952  28.567  0.00  0.00    -0.087 C 
ATOM      6  C   UNL A   1     -24.639   1.283  27.875  0.00  0.00    -0.090 C 
ATOM      7  C   UNL A   1     -23.467   1.939  27.521  0.00  0.00    +0.090 C 
ENDBRANCH   1   5
TORSDOF 2
