MODEL 2253
MODEL 1
REMARK VINA RESULT:    -4.115      0.000      0.000
REMARK INTER + INTRA:          -4.687
REMARK INTER:                  -4.596
REMARK INTRA:                  -0.091
REMARK UNBOUND:                -0.091
REMARK  Name = No_2253-gen_results/8p0m/2024-11-26-14-13-15/
REMARK  2 active torsions:
REMARK  status: ('A' for Active; 'I' for Inactive)
REMARK    1  A    between atoms: C_2  and  C_3
REMARK    2  A    between atoms: C_3  and  C_4
REMARK                            x       y       z     vdW  Elec       q    Type
REMARK                         _______ _______ _______ _____ _____    ______ ____
ROOT
ATOM      1  C   UNL A   1     -24.642  -3.309  28.783  0.00  0.00    +0.098 C 
ENDROOT
BRANCH   1   3
ATOM      2  C   UNL A   1     -24.703  -5.561  28.921  0.00  0.00    -0.008 C 
ATOM      3  C   UNL A   1     -25.152  -4.457  29.127  0.00  0.00    -0.031 C 
ATOM      4  C   UNL A   1     -26.521  -4.315  29.771  0.00  0.00    +0.027 C 
ENDBRANCH   1   3
BRANCH   1   5
ATOM      5  C   UNL A   1     -23.868  -2.394  29.658  0.00  0.00    -0.087 C 
ATOM      6  C   UNL A   1     -23.068  -1.417  29.000  0.00  0.00    -0.090 C 
ATOM      7  C   UNL A   1     -22.280  -0.523  29.713  0.00  0.00    +0.090 C 
ENDBRANCH   1   5
TORSDOF 2
ENDMDL
ENDMDL
