REMARK  Name = No_2254-gen_results/8p0m/2024-11-26-14-13-15/
REMARK  2 active torsions:
REMARK  status: ('A' for Active; 'I' for Inactive)
REMARK    1  A    between atoms: C_3  and  C_14
REMARK    2  A    between atoms: C_5  and  C_11
REMARK                            x       y       z     vdW  Elec       q    Type
REMARK                         _______ _______ _______ _____ _____    ______ ____
ROOT
ATOM      1  C   UNL A   1     -28.016  -0.814  28.878  0.00  0.00    +0.017 A 
ATOM      2  C   UNL A   1     -27.064  -0.119  28.608  0.00  0.00    -0.015 A 
ATOM      3  C   UNL A   1     -26.972   0.714  27.506  0.00  0.00    +0.101 C 
ATOM      4  C   UNL A   1     -25.820   1.491  27.116  0.00  0.00    +0.025 C 
ATOM      5  C   UNL A   1     -24.656   1.424  27.918  0.00  0.00    +0.109 C 
ATOM      6  C   UNL A   1     -24.685   0.590  29.066  0.00  0.00    +0.039 C 
ATOM      7  C   UNL A   1     -25.810  -0.127  29.334  0.00  0.00    -0.006 A 
ATOM      8  C   UNL A   1     -28.054  -1.547  30.189  0.00  0.00    +0.099 A 
ATOM      9  N   UNL A   1     -26.878  -1.747  30.849  0.00  0.00    -0.243 NA
ATOM     10  C   UNL A   1     -25.806  -0.999  30.550  0.00  0.00    +0.094 A 
ENDROOT
BRANCH   3  11
ATOM     11  C   UNL A   1     -28.091   0.791  26.539  0.00  0.00    +0.245 C 
ATOM     12  N   UNL A   1     -29.121   1.359  26.781  0.00  0.00    -0.203 NA
ATOM     13  O   UNL A   1     -27.905   0.411  25.348  0.00  0.00    -0.273 OA
ATOM     14  C   UNL A   1     -30.285   1.498  25.956  0.00  0.00    +0.139 C 
ENDBRANCH   3  11
BRANCH   5  15
ATOM     15  C   UNL A   1     -23.452   2.226  27.588  0.00  0.00    +0.365 C 
ATOM     16  O   UNL A   1     -22.584   2.314  28.497  0.00  0.00    -0.246 OA
ATOM     17  O   UNL A   1     -23.326   2.744  26.451  0.00  0.00    -0.246 OA
ENDBRANCH   5  15
TORSDOF 2
