REMARK  Name = No_2255-gen_results/8p0m/2024-11-26-14-13-15/
REMARK  1 active torsions:
REMARK  status: ('A' for Active; 'I' for Inactive)
REMARK    1  A    between atoms: C_4  and  C_11
REMARK                            x       y       z     vdW  Elec       q    Type
REMARK                         _______ _______ _______ _____ _____    ______ ____
ROOT
ATOM      1  C   UNL A   1     -28.016  -0.814  28.878  0.00  0.00    -0.000 A 
ATOM      2  C   UNL A   1     -28.469  -0.785  29.829  0.00  0.00    -0.000 A 
ATOM      3  C   UNL A   1     -28.196   0.348  28.055  0.00  0.00    -0.004 A 
ATOM      4  C   UNL A   1     -27.442   0.510  26.795  0.00  0.00    -0.022 A 
ATOM      5  C   UNL A   1     -26.169  -0.079  26.679  0.00  0.00    -0.004 A 
ATOM      6  C   UNL A   1     -25.731  -0.961  27.688  0.00  0.00    -0.000 A 
ATOM      7  C   UNL A   1     -26.146  -0.908  28.782  0.00  0.00    -0.000 A 
ATOM      8  C   UNL A   1     -28.097  -1.847  30.885  0.00  0.00    -0.000 A 
ATOM      9  C   UNL A   1     -26.767  -2.280  30.907  0.00  0.00    -0.000 A 
ATOM     10  C   UNL A   1     -26.025  -2.311  29.605  0.00  0.00    -0.000 A 
ENDROOT
BRANCH   4  11
ATOM     11  C   UNL A   1     -27.893   1.343  25.688  0.00  0.00    +0.026 C 
ATOM     12  C   UNL A   1     -28.253   0.774  24.514  0.00  0.00    +0.005 C 
ENDBRANCH   4  11
TORSDOF 1
