MODEL 2255
MODEL 1
REMARK VINA RESULT:    -5.714      0.000      0.000
REMARK INTER + INTRA:          -6.142
REMARK INTER:                  -6.048
REMARK INTRA:                  -0.093
REMARK UNBOUND:                -0.093
REMARK  Name = No_2255-gen_results/8p0m/2024-11-26-14-13-15/
REMARK  1 active torsions:
REMARK  status: ('A' for Active; 'I' for Inactive)
REMARK    1  A    between atoms: C_4  and  C_11
REMARK                            x       y       z     vdW  Elec       q    Type
REMARK                         _______ _______ _______ _____ _____    ______ ____
ROOT
ATOM      1  C   UNL A   1     -22.471  -0.831  28.499  0.00  0.00    -0.000 A 
ATOM      2  C   UNL A   1     -21.641  -0.324  28.905  0.00  0.00    -0.000 A 
ATOM      3  C   UNL A   1     -23.086  -1.816  29.342  0.00  0.00    -0.004 A 
ATOM      4  C   UNL A   1     -24.371  -2.441  28.968  0.00  0.00    -0.022 A 
ATOM      5  C   UNL A   1     -25.285  -1.710  28.187  0.00  0.00    -0.004 A 
ATOM      6  C   UNL A   1     -24.874  -0.483  27.626  0.00  0.00    -0.000 A 
ATOM      7  C   UNL A   1     -24.012   0.157  28.095  0.00  0.00    -0.000 A 
ATOM      8  C   UNL A   1     -21.099   0.938  28.201  0.00  0.00    -0.000 A 
ATOM      9  C   UNL A   1     -22.039   1.783  27.601  0.00  0.00    -0.000 A 
ATOM     10  C   UNL A   1     -23.276   1.154  27.035  0.00  0.00    -0.000 A 
ENDROOT
BRANCH   4  11
ATOM     11  C   UNL A   1     -24.805  -3.744  29.454  0.00  0.00    +0.026 C 
ATOM     12  C   UNL A   1     -24.437  -4.869  28.797  0.00  0.00    +0.005 C 
ENDBRANCH   4  11
TORSDOF 1
ENDMDL
ENDMDL
