MODEL 2256
MODEL 1
REMARK VINA RESULT:    -4.741      0.000      0.000
REMARK INTER + INTRA:          -5.706
REMARK INTER:                  -5.572
REMARK INTRA:                  -0.134
REMARK UNBOUND:                -0.134
REMARK  Name = No_2256-gen_results/8p0m/2024-11-26-14-13-15/
REMARK  3 active torsions:
REMARK  status: ('A' for Active; 'I' for Inactive)
REMARK    1  A    between atoms: C_1  and  C_2
REMARK    2  A    between atoms: C_1  and  N_8
REMARK    3  A    between atoms: N_8  and  C_9
REMARK                            x       y       z     vdW  Elec       q    Type
REMARK                         _______ _______ _______ _____ _____    ______ ____
ROOT
ATOM      1  C   UNL A   1     -22.916  -0.574  28.956  0.00  0.00    -0.001 A 
ATOM      2  C   UNL A   1     -21.561  -0.491  28.966  0.00  0.00    -0.003 A 
ATOM      3  C   UNL A   1     -20.776   0.532  28.242  0.00  0.00    -0.000 A 
ATOM      4  C   UNL A   1     -21.513   1.483  27.461  0.00  0.00    -0.000 A 
ATOM      5  C   UNL A   1     -22.915   1.319  27.418  0.00  0.00    -0.000 A 
ATOM      6  C   UNL A   1     -23.577   0.343  28.118  0.00  0.00    -0.003 A 
ENDROOT
BRANCH   1   7
ATOM      7  C   UNL A   1     -23.546  -1.418  29.551  0.00  0.00    +0.139 C 
BRANCH   7   8
ATOM      8  N   UNL A   1     -23.681  -2.700  29.031  0.00  0.00    -0.232 NA
BRANCH   8   9
ATOM      9  C   UNL A   1     -24.406  -3.519  28.948  0.00  0.00    +0.081 C 
ATOM     10  C   UNL A   1     -24.197  -4.928  28.573  0.00  0.00    +0.019 C 
ENDBRANCH   8   9
ENDBRANCH   7   8
ENDBRANCH   1   7
TORSDOF 3
ENDMDL
ENDMDL
