MODEL 2257
MODEL 1
REMARK VINA RESULT:    -4.595      0.000      0.000
REMARK INTER + INTRA:          -4.645
REMARK INTER:                  -4.864
REMARK INTRA:                   0.219
REMARK UNBOUND:                 0.219
REMARK  Name = No_2257-gen_results/8p0m/2024-11-26-14-13-15/
REMARK  1 active torsions:
REMARK  status: ('A' for Active; 'I' for Inactive)
REMARK    1  A    between atoms: C_2  and  C_5
REMARK                            x       y       z     vdW  Elec       q    Type
REMARK                         _______ _______ _______ _____ _____    ______ ____
ROOT
ATOM      1  F   UNL A   1      -8.470  -9.750  17.074  0.00  0.00    -0.166 F 
ATOM      2  C   UNL A   1      -9.376 -10.344  17.670  0.00  0.00    +0.418 C 
ATOM      3  F   UNL A   1      -8.988 -11.287  17.913  0.00  0.00    -0.166 F 
ATOM      4  F   UNL A   1     -10.441 -10.437  16.767  0.00  0.00    -0.166 F 
ENDROOT
BRANCH   2   5
ATOM      5  C   UNL A   1      -9.961  -9.525  18.797  0.00  0.00    +0.071 C 
ATOM      6  C   UNL A   1      -9.309  -9.293  19.913  0.00  0.00    -0.022 C 
ATOM      7  C   UNL A   1      -7.882  -9.685  20.033  0.00  0.00    +0.031 C 
ENDBRANCH   2   5
TORSDOF 1
ENDMDL
ENDMDL
