REMARK  Name = No_2257-gen_results/8p0m/2024-11-26-14-13-15/
REMARK  1 active torsions:
REMARK  status: ('A' for Active; 'I' for Inactive)
REMARK    1  A    between atoms: C_2  and  C_5
REMARK                            x       y       z     vdW  Elec       q    Type
REMARK                         _______ _______ _______ _____ _____    ______ ____
ROOT
ATOM      1  F   UNL A   1     -28.073  -1.254  28.532  0.00  0.00    -0.166 F 
ATOM      2  C   UNL A   1     -27.061  -0.629  28.872  0.00  0.00    +0.418 C 
ATOM      3  F   UNL A   1     -26.472  -0.547  28.009  0.00  0.00    -0.166 F 
ATOM      4  F   UNL A   1     -26.437  -1.405  29.855  0.00  0.00    -0.166 F 
ENDROOT
BRANCH   2   5
ATOM      5  C   UNL A   1     -27.390   0.648  29.610  0.00  0.00    +0.071 C 
ATOM      6  C   UNL A   1     -27.240   0.771  30.909  0.00  0.00    -0.022 C 
ATOM      7  C   UNL A   1     -26.564  -0.301  31.682  0.00  0.00    +0.031 C 
ENDBRANCH   2   5
TORSDOF 1
