MODEL 2258
MODEL 1
REMARK VINA RESULT:    -6.653      0.000      0.000
REMARK INTER + INTRA:          -7.410
REMARK INTER:                  -7.042
REMARK INTRA:                  -0.369
REMARK UNBOUND:                -0.369
REMARK  Name = No_2258-gen_results/8p0m/2024-11-26-14-13-15/
REMARK  1 active torsions:
REMARK  status: ('A' for Active; 'I' for Inactive)
REMARK    1  A    between atoms: C_3  and  C_7
REMARK                            x       y       z     vdW  Elec       q    Type
REMARK                         _______ _______ _______ _____ _____    ______ ____
ROOT
ATOM      1  C   UNL A   1     -24.274  -4.879  28.745  0.00  0.00    +0.000 A 
ATOM      2  C   UNL A   1     -23.916  -3.740  28.548  0.00  0.00    +0.000 A 
ATOM      3  C   UNL A   1     -24.621  -2.623  28.993  0.00  0.00    +0.000 A 
ATOM      4  C   UNL A   1     -25.579  -2.641  29.447  0.00  0.00    +0.000 A 
ATOM      5  C   UNL A   1     -26.237  -3.924  29.770  0.00  0.00    +0.000 A 
ATOM      6  C   UNL A   1     -25.604  -5.007  29.374  0.00  0.00    +0.000 A 
ENDROOT
BRANCH   3   7
ATOM      7  C   UNL A   1     -23.948  -1.211  28.669  0.00  0.00    +0.000 A 
ATOM      8  C   UNL A   1     -24.298  -0.317  27.883  0.00  0.00    +0.000 A 
ATOM      9  C   UNL A   1     -23.565   0.765  27.565  0.00  0.00    +0.000 A 
ATOM     10  C   UNL A   1     -22.255   0.959  27.976  0.00  0.00    +0.000 A 
ATOM     11  C   UNL A   1     -22.518  -1.105  29.171  0.00  0.00    +0.000 A 
ATOM     12  C   UNL A   1     -21.720  -0.040  28.819  0.00  0.00    +0.000 A 
ENDBRANCH   3   7
TORSDOF 1
ENDMDL
ENDMDL
