MODEL 2259
MODEL 1
REMARK VINA RESULT:    -4.351      0.000      0.000
REMARK INTER + INTRA:          -4.351
REMARK INTER:                  -4.351
REMARK INTRA:                   0.000
REMARK UNBOUND:                 0.000
REMARK  Name = No_2259-gen_results/8p0m/2024-11-26-14-13-15/
REMARK  0 active torsions:
REMARK  status: ('A' for Active; 'I' for Inactive)
REMARK                            x       y       z     vdW  Elec       q    Type
REMARK                         _______ _______ _______ _____ _____    ______ ____
ROOT
ATOM      1  C   UNL A   1     -24.137  -4.878  28.558  0.00  0.00    +0.000 A 
ATOM      2  C   UNL A   1     -24.972  -5.318  29.026  0.00  0.00    +0.000 A 
ATOM      3  C   UNL A   1     -24.068  -3.422  28.734  0.00  0.00    +0.000 A 
ATOM      4  C   UNL A   1     -25.065  -2.718  29.272  0.00  0.00    +0.000 A 
ATOM      5  C   UNL A   1     -26.163  -4.776  29.634  0.00  0.00    +0.000 A 
ATOM      6  C   UNL A   1     -26.091  -3.420  29.765  0.00  0.00    +0.000 A 
ENDROOT
TORSDOF 0
ENDMDL
ENDMDL
