MODEL 225
MODEL 1
REMARK VINA RESULT:    -6.498      0.000      0.000
REMARK INTER + INTRA:         -12.748
REMARK INTER:                 -11.056
REMARK INTRA:                  -1.692
REMARK UNBOUND:                -1.692
REMARK  Name = No_225-gen_results/8p0m/2024-11-26-14-13-15/
REMARK  12 active torsions:
REMARK  status: ('A' for Active; 'I' for Inactive)
REMARK    1  A    between atoms: C_3  and  C_17
REMARK    2  A    between atoms: C_6  and  C_7
REMARK    3  A    between atoms: C_12  and  C_13
REMARK    4  A    between atoms: C_21  and  O_25
REMARK    5  A    between atoms: O_25  and  C_26
REMARK    6  A    between atoms: C_26  and  C_27
REMARK    7  A    between atoms: C_27  and  O_28
REMARK    8  A    between atoms: O_28  and  C_29
REMARK    9  A    between atoms: C_29  and  C_30
REMARK   10  A    between atoms: C_30  and  O_32
REMARK   11  A    between atoms: O_32  and  C_33
REMARK   12  A    between atoms: C_33  and  C_34
REMARK                            x       y       z     vdW  Elec       q    Type
REMARK                         _______ _______ _______ _____ _____    ______ ____
ROOT
ATOM      1  C   UNL A   1     -26.783 -12.547   7.208  0.00  0.00    +0.035 A 
ATOM      2  C   UNL A   1     -25.876 -12.307   6.217  0.00  0.00    +0.014 A 
ATOM      3  C   UNL A   1     -25.230 -13.179   5.682  0.00  0.00    +0.058 A 
ATOM      4  C   UNL A   1     -25.429 -14.588   5.926  0.00  0.00    +0.015 A 
ATOM      5  C   UNL A   1     -27.066 -13.950   7.357  0.00  0.00    +0.139 A 
ATOM      6  C   UNL A   1     -26.410 -14.945   6.752  0.00  0.00    +0.038 A 
ATOM      7 CL   UNL A   1     -23.922 -12.843   4.499  0.00  0.00    -0.082 Cl
ENDROOT
BRANCH   1  10
ATOM      8  C   UNL A   1     -27.702  -9.649   9.296  0.00  0.00    -0.001 A 
ATOM      9  C   UNL A   1     -27.090 -10.599   8.868  0.00  0.00    -0.000 A 
ATOM     10  C   UNL A   1     -27.538 -11.394   7.813  0.00  0.00    +0.003 A 
ATOM     11  C   UNL A   1     -28.833 -11.117   7.222  0.00  0.00    -0.000 A 
ATOM     12  C   UNL A   1     -29.494  -9.999   7.780  0.00  0.00    -0.001 A 
ATOM     13  C   UNL A   1     -28.994  -9.315   8.777  0.00  0.00    +0.014 A 
BRANCH  13  14
ATOM     14  C   UNL A   1     -29.845  -8.210   9.297  0.00  0.00    +0.191 C 
ATOM     15  N   UNL A   1     -29.578  -6.957   9.037  0.00  0.00    -0.194 NA
ATOM     16  N   UNL A   1     -30.894  -8.475  10.038  0.00  0.00    -0.184 NA
ATOM     17  C   UNL A   1     -31.616  -7.451  10.527  0.00  0.00    +0.252 C 
ATOM     18  C   UNL A   1     -30.237  -5.901   9.487  0.00  0.00    +0.109 C 
ATOM     19  C   UNL A   1     -31.314  -6.131  10.272  0.00  0.00    +0.190 C 
ATOM     20  O   UNL A   1     -32.610  -7.747  11.247  0.00  0.00    -0.273 OA
BRANCH  19  21
ATOM     21  C   UNL A   1     -32.149  -5.051  10.821  0.00  0.00    +0.407 C 
ATOM     22  F   UNL A   1     -33.279  -4.908  10.719  0.00  0.00    -0.169 F 
ATOM     23  F   UNL A   1     -31.836  -4.993  12.235  0.00  0.00    -0.169 F 
ATOM     24  F   UNL A   1     -31.572  -3.819  10.440  0.00  0.00    -0.169 F 
ENDBRANCH  19  21
ENDBRANCH  13  14
ENDBRANCH   1  10
BRANCH   5  25
ATOM     25  O   UNL A   1     -28.028 -14.307   8.308  0.00  0.00    -0.473 OA
BRANCH  25  26
ATOM     26  C   UNL A   1     -29.221 -14.883   8.053  0.00  0.00    +0.237 C 
BRANCH  26  27
ATOM     27  C   UNL A   1     -29.576 -15.899   9.017  0.00  0.00    +0.190 C 
BRANCH  27  28
ATOM     28  O   UNL A   1     -29.107 -15.540  10.278  0.00  0.00    -0.339 OA
BRANCH  28  29
ATOM     29  C   UNL A   1     -30.076 -15.400  11.265  0.00  0.00    +0.252 C 
BRANCH  29  30
ATOM     30  C   UNL A   1     -29.634 -15.110  12.538  0.00  0.00    +0.347 C 
ATOM     31  O   UNL A   1     -28.801 -15.765  13.080  0.00  0.00    -0.247 OA
BRANCH  30  32
ATOM     32  O   UNL A   1     -29.930 -13.975  13.107  0.00  0.00    -0.447 OA
BRANCH  32  33
ATOM     33  C   UNL A   1     -29.824 -12.727  12.414  0.00  0.00    +0.208 C 
BRANCH  33  34
ATOM     34  C   UNL A   1     -31.010 -11.981  12.435  0.00  0.00    +0.047 C 
ATOM     35  C   UNL A   1     -31.450 -11.574  11.153  0.00  0.00    +0.004 C 
ENDBRANCH  33  34
ENDBRANCH  32  33
ENDBRANCH  30  32
ENDBRANCH  29  30
ENDBRANCH  28  29
ENDBRANCH  27  28
ENDBRANCH  26  27
ENDBRANCH  25  26
ENDBRANCH   5  25
TORSDOF 12
ENDMDL
ENDMDL
