REMARK  Name = No_226-gen_results/8p0m/2024-11-26-14-13-15/
REMARK  5 active torsions:
REMARK  status: ('A' for Active; 'I' for Inactive)
REMARK    1  A    between atoms: C_2  and  C_7
REMARK    2  A    between atoms: C_4  and  C_10
REMARK    3  A    between atoms: C_10  and  C_12
REMARK    4  A    between atoms: C_14  and  C_18
REMARK    5  A    between atoms: N_19  and  C_20
REMARK                            x       y       z     vdW  Elec       q    Type
REMARK                         _______ _______ _______ _____ _____    ______ ____
ROOT
ATOM      1  C   UNL A   1     -23.799   0.074  29.215  0.00  0.00    -0.018 A 
ATOM      2  C   UNL A   1     -24.303   1.112  28.650  0.00  0.00    +0.001 A 
ATOM      3  C   UNL A   1     -23.527   1.919  27.829  0.00  0.00    +0.055 A 
ATOM      4  C   UNL A   1     -22.101   1.779  27.832  0.00  0.00    +0.005 A 
ATOM      5  C   UNL A   1     -22.273   0.063  29.118  0.00  0.00    -0.004 A 
ATOM      6  C   UNL A   1     -21.506   0.838  28.465  0.00  0.00    -0.000 A 
ENDROOT
BRANCH   3   7
ATOM      7  C   UNL A   1     -24.138   3.111  27.128  0.00  0.00    +0.269 C 
ATOM      8  N   UNL A   1     -24.834   3.951  27.753  0.00  0.00    -0.175 NA
ATOM      9  O   UNL A   1     -24.042   3.156  25.878  0.00  0.00    -0.268 OA
BRANCH   8  10
ATOM     10  C   UNL A   1     -26.043   4.180  27.774  0.00  0.00    +0.084 A 
ATOM     11  C   UNL A   1     -26.821   4.216  28.615  0.00  0.00    +0.073 A 
ATOM     12  C   UNL A   1     -28.279   4.319  28.537  0.00  0.00    +0.013 A 
ATOM     13  C   UNL A   1     -28.755   4.556  27.272  0.00  0.00    +0.001 A 
ATOM     14  C   UNL A   1     -27.935   4.569  26.194  0.00  0.00    +0.001 A 
ATOM     15  C   UNL A   1     -26.546   4.384  26.339  0.00  0.00    +0.018 A 
ATOM     16 CL   UNL A   1     -26.313   3.935  30.316  0.00  0.00    -0.081 Cl
ENDBRANCH   8  10
ENDBRANCH   3   7
BRANCH   1  17
ATOM     17  C   UNL A   1     -24.375  -1.094  30.070  0.00  0.00    +0.045 C 
ATOM     18  C   UNL A   1     -23.671  -1.717  30.472  0.00  0.00    +0.009 C 
BRANCH  17  22
ATOM     19  C   UNL A   1     -28.016  -0.814  28.878  0.00  0.00    +0.005 A 
ATOM     20  C   UNL A   1     -28.469  -0.785  29.829  0.00  0.00    +0.068 A 
ATOM     21  C   UNL A   1     -26.546  -0.876  28.850  0.00  0.00    -0.004 A 
ATOM     22  C   UNL A   1     -25.804  -1.032  30.057  0.00  0.00    -0.018 A 
ATOM     23  C   UNL A   1     -27.944  -0.987  31.207  0.00  0.00    +0.005 A 
ATOM     24  C   UNL A   1     -26.582  -1.039  31.223  0.00  0.00    -0.004 A 
BRANCH  20  25
ATOM     25  C   UNL A   1     -30.061  -0.737  29.902  0.00  0.00    +0.333 C 
ATOM     26  O   UNL A   1     -30.725  -1.554  30.270  0.00  0.00    -0.254 OA
ATOM     27  F   UNL A   1     -30.527   0.328  29.330  0.00  0.00    -0.159 F 
ENDBRANCH  20  25
ENDBRANCH  17  22
ENDBRANCH   1  17
TORSDOF 5
