REMARK  Name = No_2260-gen_results/8p0m/2024-11-26-14-13-15/
REMARK  5 active torsions:
REMARK  status: ('A' for Active; 'I' for Inactive)
REMARK    1  A    between atoms: C_7  and  O_8
REMARK    2  A    between atoms: O_8  and  C_9
REMARK    3  A    between atoms: C_9  and  C_10
REMARK    4  A    between atoms: C_9  and  C_16
REMARK    5  A    between atoms: C_16  and  O_18
REMARK                            x       y       z     vdW  Elec       q    Type
REMARK                         _______ _______ _______ _____ _____    ______ ____
ROOT
ATOM      1  C   UNL A   1     -28.297   1.111  26.007  0.00  0.00    +0.195 C 
ENDROOT
BRANCH   1   2
ATOM      2  C   UNL A   1     -29.281   0.498  25.243  0.00  0.00    +0.039 C 
ATOM      3  C   UNL A   1     -30.203  -0.168  25.897  0.00  0.00    +0.004 C 
ATOM      4  C   UNL A   1     -31.361  -0.038  25.521  0.00  0.00    +0.000 C 
ATOM      5  C   UNL A   1     -31.684   0.224  24.096  0.00  0.00    +0.000 C 
ATOM      6  C   UNL A   1     -30.704   0.867  23.387  0.00  0.00    +0.000 C 
ATOM      7  C   UNL A   1     -29.744   1.482  24.284  0.00  0.00    +0.004 C 
ATOM      8  C   UNL A   1     -28.407  -0.583  24.351  0.00  0.00    +0.004 C 
ENDBRANCH   1   2
BRANCH   1   9
ATOM      9  O   UNL A   1     -28.478   1.148  27.339  0.00  0.00    -0.474 OA
BRANCH   9  16
ATOM     10  F   UNL A   1     -28.073  -1.254  28.532  0.00  0.00    -0.201 F 
ATOM     11  C   UNL A   1     -27.359  -0.379  28.722  0.00  0.00    +0.174 A 
ATOM     12  C   UNL A   1     -26.332  -0.644  29.452  0.00  0.00    +0.033 A 
ATOM     13  C   UNL A   1     -25.256   0.320  29.782  0.00  0.00    +0.003 A 
ATOM     14  C   UNL A   1     -25.424   1.627  29.203  0.00  0.00    +0.003 A 
ATOM     15  C   UNL A   1     -26.526   1.825  28.403  0.00  0.00    +0.039 A 
ATOM     16  C   UNL A   1     -27.451   0.860  28.136  0.00  0.00    +0.166 A 
ENDBRANCH   9  16
ENDBRANCH   1   9
BRANCH   1  17
ATOM     17  C   UNL A   1     -27.061   1.669  25.479  0.00  0.00    +0.185 C 
BRANCH  17  18
ATOM     18  O   UNL A   1     -28.225   2.178  25.926  0.00  0.00    -0.347 OA
ATOM     19  C   UNL A   1     -28.686   3.167  26.846  0.00  0.00    +0.174 C 
ENDBRANCH  17  18
ENDBRANCH   1  17
TORSDOF 5
