MODEL 2260
MODEL 1
REMARK VINA RESULT:    -6.530      0.000      0.000
REMARK INTER + INTRA:          -6.517
REMARK INTER:                  -7.866
REMARK INTRA:                   1.348
REMARK UNBOUND:                 1.348
REMARK  Name = No_2260-gen_results/8p0m/2024-11-26-14-13-15/
REMARK  5 active torsions:
REMARK  status: ('A' for Active; 'I' for Inactive)
REMARK    1  A    between atoms: C_7  and  O_8
REMARK    2  A    between atoms: O_8  and  C_9
REMARK    3  A    between atoms: C_9  and  C_10
REMARK    4  A    between atoms: C_9  and  C_16
REMARK    5  A    between atoms: C_16  and  O_18
REMARK                            x       y       z     vdW  Elec       q    Type
REMARK                         _______ _______ _______ _____ _____    ______ ____
ROOT
ATOM      1  C   UNL A   1     -25.621  -0.343  29.245  0.00  0.00    +0.195 C 
ENDROOT
BRANCH   1   2
ATOM      2  C   UNL A   1     -24.699   0.563  28.738  0.00  0.00    +0.039 C 
ATOM      3  C   UNL A   1     -23.632   0.786  29.468  0.00  0.00    +0.004 C 
ATOM      4  C   UNL A   1     -22.558   0.853  28.884  0.00  0.00    +0.000 C 
ATOM      5  C   UNL A   1     -22.468   1.358  27.491  0.00  0.00    +0.000 C 
ATOM      6  C   UNL A   1     -23.598   1.184  26.736  0.00  0.00    +0.000 C 
ATOM      7  C   UNL A   1     -24.477   0.207  27.350  0.00  0.00    +0.004 C 
ATOM      8  C   UNL A   1     -25.579   1.960  28.681  0.00  0.00    +0.004 C 
ENDBRANCH   1   2
BRANCH   1   9
ATOM      9  O   UNL A   1     -25.173  -1.261  30.120  0.00  0.00    -0.474 OA
BRANCH   9  16
ATOM     10  F   UNL A   1     -23.067  -2.404  28.849  0.00  0.00    -0.201 F 
ATOM     11  C   UNL A   1     -24.015  -3.008  29.069  0.00  0.00    +0.174 A 
ATOM     12  C   UNL A   1     -23.968  -4.256  28.755  0.00  0.00    +0.033 A 
ATOM     13  C   UNL A   1     -25.057  -5.231  28.998  0.00  0.00    +0.003 A 
ATOM     14  C   UNL A   1     -26.220  -4.683  29.645  0.00  0.00    +0.003 A 
ATOM     15  C   UNL A   1     -26.182  -3.350  29.985  0.00  0.00    +0.039 A 
ATOM     16  C   UNL A   1     -25.116  -2.536  29.742  0.00  0.00    +0.166 A 
ENDBRANCH   9  16
ENDBRANCH   1   9
BRANCH   1  17
ATOM     17  C   UNL A   1     -27.044  -0.341  28.940  0.00  0.00    +0.185 C 
BRANCH  17  18
ATOM     18  O   UNL A   1     -26.299  -0.064  30.027  0.00  0.00    -0.347 OA
ATOM     19  C   UNL A   1     -26.472   0.135  31.430  0.00  0.00    +0.174 C 
ENDBRANCH  17  18
ENDBRANCH   1  17
TORSDOF 5
ENDMDL
ENDMDL
