MODEL 2261
MODEL 1
REMARK VINA RESULT:    -6.498      0.000      0.000
REMARK INTER + INTRA:          -7.198
REMARK INTER:                  -6.878
REMARK INTRA:                  -0.320
REMARK UNBOUND:                -0.320
REMARK  Name = No_2261-gen_results/8p0m/2024-11-26-14-13-15/
REMARK  1 active torsions:
REMARK  status: ('A' for Active; 'I' for Inactive)
REMARK    1  A    between atoms: C_3  and  C_7
REMARK                            x       y       z     vdW  Elec       q    Type
REMARK                         _______ _______ _______ _____ _____    ______ ____
ROOT
ATOM      1  C   UNL A   1     -26.522  -3.535  29.972  0.00  0.00    +0.000 A 
ATOM      2  C   UNL A   1     -25.893  -2.584  29.569  0.00  0.00    +0.000 A 
ATOM      3  C   UNL A   1     -24.660  -2.651  28.944  0.00  0.00    +0.000 A 
ATOM      4  C   UNL A   1     -24.108  -3.950  28.735  0.00  0.00    +0.000 A 
ATOM      5  C   UNL A   1     -24.895  -4.992  29.046  0.00  0.00    +0.000 A 
ATOM      6  C   UNL A   1     -26.066  -4.834  29.593  0.00  0.00    +0.000 A 
ENDROOT
BRANCH   3   7
ATOM      7  C   UNL A   1     -23.854  -1.430  28.587  0.00  0.00    +0.000 A 
ATOM      8  C   UNL A   1     -24.390  -0.420  27.879  0.00  0.00    +0.000 A 
ATOM      9  C   UNL A   1     -23.613   0.798  27.644  0.00  0.00    +0.000 A 
ATOM     10  C   UNL A   1     -22.327   0.851  28.245  0.00  0.00    +0.000 A 
ATOM     11  C   UNL A   1     -22.583  -1.164  29.205  0.00  0.00    +0.000 A 
ATOM     12  C   UNL A   1     -21.832  -0.110  28.970  0.00  0.00    +0.000 A 
ENDBRANCH   3   7
TORSDOF 1
ENDMDL
ENDMDL
