REMARK  Name = No_2261-gen_results/8p0m/2024-11-26-14-13-15/
REMARK  1 active torsions:
REMARK  status: ('A' for Active; 'I' for Inactive)
REMARK    1  A    between atoms: C_3  and  C_7
REMARK                            x       y       z     vdW  Elec       q    Type
REMARK                         _______ _______ _______ _____ _____    ______ ____
ROOT
ATOM      1  C   UNL A   1     -28.016  -0.814  28.878  0.00  0.00    +0.000 A 
ATOM      2  C   UNL A   1     -27.064  -0.119  28.608  0.00  0.00    +0.000 A 
ATOM      3  C   UNL A   1     -26.972   0.714  27.506  0.00  0.00    +0.000 A 
ATOM      4  C   UNL A   1     -28.105   0.774  26.642  0.00  0.00    +0.000 A 
ATOM      5  C   UNL A   1     -29.204   0.118  27.048  0.00  0.00    +0.000 A 
ATOM      6  C   UNL A   1     -29.213  -0.609  28.128  0.00  0.00    +0.000 A 
ENDROOT
BRANCH   3   7
ATOM      7  C   UNL A   1     -25.711   1.452  27.138  0.00  0.00    +0.000 A 
ATOM      8  C   UNL A   1     -25.207   2.413  27.932  0.00  0.00    +0.000 A 
ATOM      9  C   UNL A   1     -23.923   3.033  27.599  0.00  0.00    +0.000 A 
ATOM     10  C   UNL A   1     -23.254   2.522  26.455  0.00  0.00    +0.000 A 
ATOM     11  C   UNL A   1     -24.853   0.989  26.082  0.00  0.00    +0.000 A 
ATOM     12  C   UNL A   1     -23.724   1.558  25.718  0.00  0.00    +0.000 A 
ENDBRANCH   3   7
TORSDOF 1
