MODEL 2262
MODEL 1
REMARK VINA RESULT:    -6.452      0.000      0.000
REMARK INTER + INTRA:          -6.915
REMARK INTER:                  -6.830
REMARK INTRA:                  -0.086
REMARK UNBOUND:                -0.086
REMARK  Name = No_2262-gen_results/8p0m/2024-11-26-14-13-15/
REMARK  1 active torsions:
REMARK  status: ('A' for Active; 'I' for Inactive)
REMARK    1  A    between atoms: C_10  and  O_15
REMARK                            x       y       z     vdW  Elec       q    Type
REMARK                         _______ _______ _______ _____ _____    ______ ____
ROOT
ATOM      1  C   UNL A   1     -25.511  -2.576  29.589  0.00  0.00    +0.081 A 
ATOM      2  C   UNL A   1     -24.410  -2.875  29.190  0.00  0.00    +0.018 A 
ATOM      3  C   UNL A   1     -24.071  -4.201  28.942  0.00  0.00    +0.002 A 
ATOM      4  C   UNL A   1     -25.007  -5.265  29.199  0.00  0.00    +0.000 A 
ATOM      5  C   UNL A   1     -26.249  -4.833  29.682  0.00  0.00    +0.002 A 
ATOM      6  C   UNL A   1     -26.514  -3.567  29.915  0.00  0.00    +0.019 A 
ATOM      7  C   UNL A   1     -23.313  -1.914  28.897  0.00  0.00    +0.003 A 
ATOM      8  C   UNL A   1     -23.281  -0.893  28.900  0.00  0.00    +0.021 A 
ATOM      9  C   UNL A   1     -24.545  -0.148  29.335  0.00  0.00    +0.115 A 
ATOM     10  C   UNL A   1     -24.709   1.149  28.950  0.00  0.00    +0.156 A 
ATOM     11  C   UNL A   1     -23.558   1.867  28.495  0.00  0.00    +0.038 A 
ATOM     12  C   UNL A   1     -22.341   1.295  28.168  0.00  0.00    +0.003 A 
ATOM     13  C   UNL A   1     -22.228  -0.004  28.280  0.00  0.00    +0.002 A 
ATOM     14  N   UNL A   1     -25.753  -1.174  29.762  0.00  0.00    -0.242 NA
ENDROOT
BRANCH  10  15
ATOM     15  O   UNL A   1     -25.791   1.767  29.312  0.00  0.00    -0.470 OA
ATOM     16  C   UNL A   1     -25.790   2.474  30.491  0.00  0.00    +0.253 C 
ENDBRANCH  10  15
TORSDOF 1
ENDMDL
ENDMDL
