MODEL 2263
MODEL 1
REMARK VINA RESULT:    -5.511      0.000      0.000
REMARK INTER + INTRA:          -6.305
REMARK INTER:                  -6.156
REMARK INTRA:                  -0.149
REMARK UNBOUND:                -0.149
REMARK  Name = No_2263-gen_results/8p0m/2024-11-26-14-13-15/
REMARK  2 active torsions:
REMARK  status: ('A' for Active; 'I' for Inactive)
REMARK    1  A    between atoms: C_3  and  C_7
REMARK    2  A    between atoms: N_8  and  C_11
REMARK                            x       y       z     vdW  Elec       q    Type
REMARK                         _______ _______ _______ _____ _____    ______ ____
ROOT
ATOM      1  C   UNL A   1     -24.048  -1.040  29.582  0.00  0.00    +0.253 C 
ATOM      2  N   UNL A   1     -24.170  -0.254  28.653  0.00  0.00    -0.253 N 
ATOM      3  O   UNL A   1     -23.541  -0.686  30.684  0.00  0.00    -0.270 OA
ATOM      4  C   UNL A   1     -23.558   1.098  28.657  0.00  0.00    +0.120 C 
ENDROOT
BRANCH   1   7
ATOM      5  C   UNL A   1     -23.802  -3.496  28.835  0.00  0.00    +0.004 A 
ATOM      6  C   UNL A   1     -24.297  -4.427  28.817  0.00  0.00    +0.000 A 
ATOM      7  C   UNL A   1     -24.599  -2.421  29.425  0.00  0.00    +0.054 A 
ATOM      8  C   UNL A   1     -25.862  -2.634  29.919  0.00  0.00    +0.004 A 
ATOM      9  C   UNL A   1     -25.595  -4.937  29.259  0.00  0.00    +0.000 A 
ATOM     10  C   UNL A   1     -26.374  -3.903  29.831  0.00  0.00    +0.000 A 
ENDBRANCH   1   7
BRANCH   2  11
ATOM     11  C   UNL A   1     -24.816  -0.497  27.362  0.00  0.00    +0.063 C 
ATOM     12  C   UNL A   1     -24.578   0.398  26.260  0.00  0.00    -0.010 C 
ATOM     13  C   UNL A   1     -25.369   0.242  25.107  0.00  0.00    +0.032 C 
ENDBRANCH   2  11
TORSDOF 2
ENDMDL
ENDMDL
