REMARK  Name = No_2263-gen_results/8p0m/2024-11-26-14-13-15/
REMARK  2 active torsions:
REMARK  status: ('A' for Active; 'I' for Inactive)
REMARK    1  A    between atoms: C_3  and  C_7
REMARK    2  A    between atoms: N_8  and  C_11
REMARK                            x       y       z     vdW  Elec       q    Type
REMARK                         _______ _______ _______ _____ _____    ______ ____
ROOT
ATOM      1  C   UNL A   1     -26.311   0.392  27.364  0.00  0.00    +0.253 C 
ATOM      2  N   UNL A   1     -25.130   0.073  27.374  0.00  0.00    -0.253 N 
ATOM      3  O   UNL A   1     -26.896   0.726  26.295  0.00  0.00    -0.270 OA
ATOM      4  C   UNL A   1     -24.240   0.247  26.199  0.00  0.00    +0.120 C 
ENDROOT
BRANCH   1   7
ATOM      5  C   UNL A   1     -28.016  -0.814  28.878  0.00  0.00    +0.004 A 
ATOM      6  C   UNL A   1     -28.469  -0.785  29.829  0.00  0.00    +0.000 A 
ATOM      7  C   UNL A   1     -27.087   0.290  28.638  0.00  0.00    +0.054 A 
ATOM      8  C   UNL A   1     -26.832   1.249  29.587  0.00  0.00    +0.004 A 
ATOM      9  C   UNL A   1     -28.391   0.080  31.006  0.00  0.00    +0.000 A 
ATOM     10  C   UNL A   1     -27.494   1.152  30.784  0.00  0.00    +0.000 A 
ENDBRANCH   1   7
BRANCH   2  11
ATOM     11  C   UNL A   1     -24.352  -0.420  28.511  0.00  0.00    +0.063 C 
ATOM     12  C   UNL A   1     -23.167   0.282  28.929  0.00  0.00    -0.010 C 
ATOM     13  C   UNL A   1     -22.346  -0.334  29.891  0.00  0.00    +0.032 C 
ENDBRANCH   2  11
TORSDOF 2
