REMARK  Name = No_2264-gen_results/8p0m/2024-11-26-14-13-15/
REMARK  0 active torsions:
REMARK  status: ('A' for Active; 'I' for Inactive)
REMARK                            x       y       z     vdW  Elec       q    Type
REMARK                         _______ _______ _______ _____ _____    ______ ____
ROOT
ATOM      1  C   UNL A   1     -28.016  -0.814  28.878  0.00  0.00    +0.197 A 
ATOM      2  C   UNL A   1     -27.064  -0.119  28.608  0.00  0.00    +0.042 A 
ATOM      3  C   UNL A   1     -27.001   0.691  27.491  0.00  0.00    +0.001 A 
ATOM      4  C   UNL A   1     -28.137   0.736  26.635  0.00  0.00    -0.004 A 
ATOM      5  C   UNL A   1     -29.236   0.076  27.069  0.00  0.00    +0.080 A 
ATOM      6  C   UNL A   1     -29.266  -0.392  28.174  0.00  0.00    +0.056 A 
ATOM      7  O   UNL A   1     -28.075  -1.489  30.066  0.00  0.00    -0.286 OA
ATOM      8  N   UNL A   1     -30.240   0.353  26.056  0.00  0.00    -0.244 NA
ATOM      9  C   UNL A   1     -31.396  -0.274  26.293  0.00  0.00    +0.099 A 
ATOM     10  C   UNL A   1     -31.623  -1.031  27.332  0.00  0.00    +0.021 A 
ATOM     11  C   UNL A   1     -30.569  -1.122  28.373  0.00  0.00    +0.006 A 
ATOM     12  C   UNL A   1     -28.106   1.618  25.500  0.00  0.00    +0.033 C 
ENDROOT
TORSDOF 0
