MODEL 2264
MODEL 1
REMARK VINA RESULT:    -5.321      0.000      0.000
REMARK INTER + INTRA:          -5.321
REMARK INTER:                  -5.321
REMARK INTRA:                   0.000
REMARK UNBOUND:                 0.000
REMARK  Name = No_2264-gen_results/8p0m/2024-11-26-14-13-15/
REMARK  0 active torsions:
REMARK  status: ('A' for Active; 'I' for Inactive)
REMARK                            x       y       z     vdW  Elec       q    Type
REMARK                         _______ _______ _______ _____ _____    ______ ____
ROOT
ATOM      1  C   UNL A   1     -24.302   1.594  27.363  0.00  0.00    +0.197 A 
ATOM      2  C   UNL A   1     -23.277   2.206  27.168  0.00  0.00    +0.042 A 
ATOM      3  C   UNL A   1     -22.033   1.760  27.568  0.00  0.00    +0.001 A 
ATOM      4  C   UNL A   1     -21.953   0.493  28.210  0.00  0.00    -0.004 A 
ATOM      5  C   UNL A   1     -23.098  -0.227  28.252  0.00  0.00    +0.080 A 
ATOM      6  C   UNL A   1     -24.071   0.146  27.654  0.00  0.00    +0.056 A 
ATOM      7  O   UNL A   1     -25.485   2.020  26.824  0.00  0.00    -0.286 OA
ATOM      8  N   UNL A   1     -22.710  -1.478  28.880  0.00  0.00    -0.244 NA
ATOM      9  C   UNL A   1     -23.743  -2.306  29.058  0.00  0.00    +0.099 A 
ATOM     10  C   UNL A   1     -24.967  -2.047  28.686  0.00  0.00    +0.021 A 
ATOM     11  C   UNL A   1     -25.215  -0.798  27.923  0.00  0.00    +0.006 A 
ATOM     12  C   UNL A   1     -20.657  -0.008  28.580  0.00  0.00    +0.033 C 
ENDROOT
TORSDOF 0
ENDMDL
ENDMDL
