REMARK  Name = No_2265-gen_results/8p0m/2024-11-26-14-13-15/
REMARK  2 active torsions:
REMARK  status: ('A' for Active; 'I' for Inactive)
REMARK    1  A    between atoms: C_4  and  C_6
REMARK    2  A    between atoms: C_6  and  C_8
REMARK                            x       y       z     vdW  Elec       q    Type
REMARK                         _______ _______ _______ _____ _____    ______ ____
ROOT
ATOM      1  C   UNL A   1     -25.972   2.385  29.104  0.00  0.00    +0.045 C 
ATOM      2  C   UNL A   1     -24.921   2.583  30.321  0.00  0.00    +0.009 C 
ENDROOT
BRANCH   1   6
ATOM      3  C   UNL A   1     -28.016  -0.814  28.878  0.00  0.00    -0.000 A 
ATOM      4  C   UNL A   1     -28.469  -0.785  29.829  0.00  0.00    -0.000 A 
ATOM      5  C   UNL A   1     -27.136   0.236  28.535  0.00  0.00    -0.004 A 
ATOM      6  C   UNL A   1     -26.875   1.282  29.398  0.00  0.00    -0.018 A 
ATOM      7  C   UNL A   1     -28.361   0.199  30.924  0.00  0.00    -0.000 A 
ATOM      8  C   UNL A   1     -27.512   1.232  30.632  0.00  0.00    -0.004 A 
ENDBRANCH   1   6
BRANCH   1   9
ATOM      9  C   UNL A   1     -25.301   2.505  28.034  0.00  0.00    -0.018 A 
ATOM     10  C   UNL A   1     -24.728   1.480  27.381  0.00  0.00    -0.004 A 
ATOM     11  C   UNL A   1     -24.026   1.709  26.169  0.00  0.00    -0.000 A 
ATOM     12  C   UNL A   1     -23.958   3.013  25.687  0.00  0.00    -0.000 A 
ATOM     13  C   UNL A   1     -24.504   4.140  26.365  0.00  0.00    -0.000 A 
ATOM     14  C   UNL A   1     -25.126   3.911  27.523  0.00  0.00    -0.004 A 
ENDBRANCH   1   9
TORSDOF 2
