MODEL 2265
MODEL 1
REMARK VINA RESULT:    -6.874      0.000      0.000
REMARK INTER + INTRA:          -8.385
REMARK INTER:                  -7.678
REMARK INTRA:                  -0.707
REMARK UNBOUND:                -0.707
REMARK  Name = No_2265-gen_results/8p0m/2024-11-26-14-13-15/
REMARK  2 active torsions:
REMARK  status: ('A' for Active; 'I' for Inactive)
REMARK    1  A    between atoms: C_4  and  C_6
REMARK    2  A    between atoms: C_6  and  C_8
REMARK                            x       y       z     vdW  Elec       q    Type
REMARK                         _______ _______ _______ _____ _____    ______ ____
ROOT
ATOM      1  C   UNL A   1     -24.460  -1.203  29.520  0.00  0.00    +0.045 C 
ATOM      2  C   UNL A   1     -23.364  -0.988  30.693  0.00  0.00    +0.009 C 
ENDROOT
BRANCH   1   6
ATOM      3  C   UNL A   1     -24.202  -4.896  28.651  0.00  0.00    -0.000 A 
ATOM      4  C   UNL A   1     -25.134  -5.217  29.023  0.00  0.00    -0.000 A 
ATOM      5  C   UNL A   1     -23.877  -3.528  28.777  0.00  0.00    -0.004 A 
ATOM      6  C   UNL A   1     -24.744  -2.621  29.354  0.00  0.00    -0.018 A 
ATOM      7  C   UNL A   1     -26.225  -4.468  29.677  0.00  0.00    -0.000 A 
ATOM      8  C   UNL A   1     -25.947  -3.136  29.822  0.00  0.00    -0.004 A 
ENDBRANCH   1   6
BRANCH   1   9
ATOM      9  C   UNL A   1     -24.132  -0.416  28.580  0.00  0.00    -0.018 A 
ATOM     10  C   UNL A   1     -24.878  -0.191  27.486  0.00  0.00    -0.004 A 
ATOM     11  C   UNL A   1     -24.444   0.736  26.504  0.00  0.00    -0.000 A 
ATOM     12  C   UNL A   1     -23.237   1.397  26.715  0.00  0.00    -0.000 A 
ATOM     13  C   UNL A   1     -22.385   1.159  27.831  0.00  0.00    -0.000 A 
ATOM     14  C   UNL A   1     -22.791   0.255  28.724  0.00  0.00    -0.004 A 
ENDBRANCH   1   9
TORSDOF 2
ENDMDL
ENDMDL
