REMARK  Name = No_2266-gen_results/8p0m/2024-11-26-14-13-15/
REMARK  2 active torsions:
REMARK  status: ('A' for Active; 'I' for Inactive)
REMARK    1  A    between atoms: C_6  and  C_8
REMARK    2  A    between atoms: C_8  and  C_10
REMARK                            x       y       z     vdW  Elec       q    Type
REMARK                         _______ _______ _______ _____ _____    ______ ____
ROOT
ATOM      1  C   UNL A   1     -29.055  -2.811  30.182  0.00  0.00    +0.124 C 
ATOM      2 CL   UNL A   1     -29.068  -4.386  30.583  0.00  0.00    -0.105 Cl
ENDROOT
BRANCH   1   8
ATOM      3  C   UNL A   1     -28.016  -0.814  28.878  0.00  0.00    +0.009 A 
ATOM      4  C   UNL A   1     -27.064  -0.119  28.608  0.00  0.00    +0.057 A 
ATOM      5  C   UNL A   1     -25.792  -0.430  29.076  0.00  0.00    +0.011 A 
ATOM      6  C   UNL A   1     -25.576  -1.565  29.936  0.00  0.00    +0.001 A 
ATOM      7  C   UNL A   1     -26.735  -2.300  30.217  0.00  0.00    -0.003 A 
ATOM      8  C   UNL A   1     -27.918  -1.954  29.763  0.00  0.00    -0.003 A 
ATOM      9 CL   UNL A   1     -27.355   1.284  27.706  0.00  0.00    -0.082 Cl
ENDBRANCH   1   8
BRANCH   1  10
ATOM     10  C   UNL A   1     -30.340  -2.111  30.347  0.00  0.00    -0.003 A 
ATOM     11  C   UNL A   1     -30.503  -1.231  31.116  0.00  0.00    -0.003 A 
ATOM     12  C   UNL A   1     -31.831  -0.552  31.215  0.00  0.00    -0.000 A 
ATOM     13  C   UNL A   1     -32.796  -1.071  30.373  0.00  0.00    -0.000 A 
ATOM     14  C   UNL A   1     -31.380  -2.620  29.535  0.00  0.00    -0.003 A 
ATOM     15  C   UNL A   1     -32.540  -2.056  29.520  0.00  0.00    -0.000 A 
ENDBRANCH   1  10
TORSDOF 2
