MODEL 2266
MODEL 1
REMARK VINA RESULT:    -6.985      0.000      0.000
REMARK INTER + INTRA:          -8.356
REMARK INTER:                  -7.801
REMARK INTRA:                  -0.555
REMARK UNBOUND:                -0.555
REMARK  Name = No_2266-gen_results/8p0m/2024-11-26-14-13-15/
REMARK  2 active torsions:
REMARK  status: ('A' for Active; 'I' for Inactive)
REMARK    1  A    between atoms: C_6  and  C_8
REMARK    2  A    between atoms: C_8  and  C_10
REMARK                            x       y       z     vdW  Elec       q    Type
REMARK                         _______ _______ _______ _____ _____    ______ ____
ROOT
ATOM      1  C   UNL A   1     -24.461  -1.328  29.811  0.00  0.00    +0.124 C 
ATOM      2 CL   UNL A   1     -24.662  -0.961  31.382  0.00  0.00    -0.105 Cl
ENDROOT
BRANCH   1   8
ATOM      3  C   UNL A   1     -23.019   0.383  28.483  0.00  0.00    +0.009 A 
ATOM      4  C   UNL A   1     -22.838   1.061  27.498  0.00  0.00    +0.057 A 
ATOM      5  C   UNL A   1     -23.807   1.160  26.506  0.00  0.00    +0.011 A 
ATOM      6  C   UNL A   1     -25.040   0.421  26.598  0.00  0.00    +0.001 A 
ATOM      7  C   UNL A   1     -25.157  -0.357  27.758  0.00  0.00    -0.003 A 
ATOM      8  C   UNL A   1     -24.204  -0.429  28.658  0.00  0.00    -0.003 A 
ATOM      9 CL   UNL A   1     -21.332   1.819  27.341  0.00  0.00    -0.082 Cl
ENDBRANCH   1   8
BRANCH   1  10
ATOM     10  C   UNL A   1     -24.653  -2.747  29.469  0.00  0.00    -0.003 A 
ATOM     11  C   UNL A   1     -23.853  -3.385  28.881  0.00  0.00    -0.003 A 
ATOM     12  C   UNL A   1     -24.107  -4.828  28.586  0.00  0.00    -0.000 A 
ATOM     13  C   UNL A   1     -25.333  -5.288  29.027  0.00  0.00    -0.000 A 
ATOM     14  C   UNL A   1     -25.907  -3.269  29.864  0.00  0.00    -0.003 A 
ATOM     15  C   UNL A   1     -26.183  -4.517  29.696  0.00  0.00    -0.000 A 
ENDBRANCH   1  10
TORSDOF 2
ENDMDL
ENDMDL
