MODEL 2267
MODEL 1
REMARK VINA RESULT:    -6.431      0.000      0.000
REMARK INTER + INTRA:         -11.398
REMARK INTER:                 -10.190
REMARK INTRA:                  -1.208
REMARK UNBOUND:                -1.208
REMARK  Name = No_2267-gen_results/8p0m/2024-11-26-14-13-15/
REMARK  10 active torsions:
REMARK  status: ('A' for Active; 'I' for Inactive)
REMARK    1  A    between atoms: C_2  and  C_4
REMARK    2  A    between atoms: C_4  and  N_6
REMARK    3  A    between atoms: C_4  and  C_25
REMARK    4  A    between atoms: N_6  and  C_7
REMARK    5  A    between atoms: C_7  and  C_8
REMARK    6  A    between atoms: C_9  and  C_10
REMARK    7  A    between atoms: C_10  and  C_11
REMARK    8  A    between atoms: C_10  and  C_12
REMARK    9  A    between atoms: C_15  and  C_16
REMARK   10  A    between atoms: C_18  and  C_22
REMARK                            x       y       z     vdW  Elec       q    Type
REMARK                         _______ _______ _______ _____ _____    ______ ____
ROOT
ATOM      1  C   UNL A   1     -29.997 -13.860  27.607  0.00  0.00    +0.123 C 
ENDROOT
BRANCH   1   2
ATOM      2  C   UNL A   1     -31.267 -14.356  28.101  0.00  0.00    +0.268 C 
ATOM      3  N   UNL A   1     -31.147 -15.566  28.793  0.00  0.00    -0.087 NA
ATOM      4  O   UNL A   1     -32.224 -13.616  28.491  0.00  0.00    -0.271 OA
ENDBRANCH   1   2
BRANCH   1   6
ATOM      5  C   UNL A   1     -30.639 -13.109  25.525  0.00  0.00    -0.011 C 
ATOM      6  C   UNL A   1     -29.779 -13.284  26.283  0.00  0.00    -0.016 C 
BRANCH   5   7
ATOM      7  C   UNL A   1     -30.360 -12.646  24.229  0.00  0.00    +0.115 C 
BRANCH   7   8
ATOM      8  N   UNL A   1     -31.049 -13.119  23.055  0.00  0.00    -0.204 NA
BRANCH   8   9
ATOM      9  C   UNL A   1     -30.391 -13.433  22.168  0.00  0.00    +0.171 C 
BRANCH   9  11
ATOM     10 CL   UNL A   1     -29.099 -12.287  20.655  0.00  0.00    -0.045 Cl
ATOM     11  C   UNL A   1     -30.243 -12.692  20.801  0.00  0.00    +0.348 C 
ATOM     12  F   UNL A   1     -30.771 -13.371  19.948  0.00  0.00    -0.185 F 
ATOM     13  F   UNL A   1     -31.060 -11.572  20.969  0.00  0.00    -0.185 F 
ENDBRANCH   9  11
BRANCH   9  14
ATOM     14  C   UNL A   1     -29.433 -14.550  22.469  0.00  0.00    -0.007 C 
ATOM     15  C   UNL A   1     -29.458 -15.654  21.784  0.00  0.00    -0.029 C 
ATOM     16  C   UNL A   1     -28.503 -16.672  22.120  0.00  0.00    +0.030 C 
ENDBRANCH   9  14
ENDBRANCH   8   9
ENDBRANCH   7   8
ENDBRANCH   5   7
ENDBRANCH   1   6
BRANCH   1  17
ATOM     17  C   UNL A   1     -29.465 -12.986  28.674  0.00  0.00    -0.013 C 
ATOM     18  C   UNL A   1     -29.162 -11.964  28.835  0.00  0.00    -0.002 C 
BRANCH  18  19
ATOM     19  C   UNL A   1     -29.053 -11.268  30.129  0.00  0.00    +0.019 A 
ATOM     20  C   UNL A   1     -28.291 -11.897  31.109  0.00  0.00    +0.010 A 
ATOM     21  C   UNL A   1     -28.279 -11.466  32.367  0.00  0.00    +0.099 A 
ATOM     22  C   UNL A   1     -29.051 -10.308  32.652  0.00  0.00    +0.105 A 
ATOM     23  N   UNL A   1     -29.885  -9.888  31.714  0.00  0.00    -0.242 NA
ATOM     24  C   UNL A   1     -29.933 -10.374  30.497  0.00  0.00    +0.099 A 
BRANCH  21  25
ATOM     25  C   UNL A   1     -27.383 -11.938  33.431  0.00  0.00    +0.389 C 
ATOM     26  O   UNL A   1     -27.441 -11.533  34.578  0.00  0.00    -0.240 OA
ATOM     27  O   UNL A   1     -26.472 -12.786  33.158  0.00  0.00    -0.240 OA
ENDBRANCH  21  25
ENDBRANCH  18  19
ENDBRANCH   1  17
TORSDOF 10
ENDMDL
ENDMDL
