MODEL 2268
MODEL 1
REMARK VINA RESULT:    -5.355      0.000      0.000
REMARK INTER + INTRA:          -6.555
REMARK INTER:                  -6.294
REMARK INTRA:                  -0.260
REMARK UNBOUND:                -0.260
REMARK  Name = No_2268-gen_results/8p0m/2024-11-26-14-13-15/
REMARK  3 active torsions:
REMARK  status: ('A' for Active; 'I' for Inactive)
REMARK    1  A    between atoms: C_2  and  C_7
REMARK    2  A    between atoms: C_7  and  C_8
REMARK    3  A    between atoms: C_9  and  C_10
REMARK                            x       y       z     vdW  Elec       q    Type
REMARK                         _______ _______ _______ _____ _____    ______ ____
ROOT
ATOM      1  C   UNL A   1     -25.979  -3.344  29.659  0.00  0.00    -0.004 A 
ATOM      2  C   UNL A   1     -25.064  -2.776  29.109  0.00  0.00    -0.018 A 
ATOM      3  C   UNL A   1     -24.030  -3.413  28.503  0.00  0.00    -0.004 A 
ATOM      4  C   UNL A   1     -24.015  -4.820  28.512  0.00  0.00    -0.000 A 
ATOM      5  C   UNL A   1     -26.078  -4.782  29.623  0.00  0.00    -0.000 A 
ATOM      6  C   UNL A   1     -25.049  -5.469  29.052  0.00  0.00    -0.000 A 
ENDROOT
BRANCH   2   7
ATOM      7  C   UNL A   1     -24.978  -1.258  29.015  0.00  0.00    +0.052 C 
BRANCH   7   8
ATOM      8  C   UNL A   1     -23.574  -0.725  28.872  0.00  0.00    -0.025 C 
ATOM      9  C   UNL A   1     -23.272   0.327  28.257  0.00  0.00    -0.010 C 
BRANCH   9  10
ATOM     10  C   UNL A   1     -21.908   0.739  28.158  0.00  0.00    +0.135 C 
ATOM     11  N   UNL A   1     -20.929  -0.061  28.546  0.00  0.00    -0.126 NA
ENDBRANCH   9  10
ENDBRANCH   7   8
ENDBRANCH   2   7
TORSDOF 3
ENDMDL
ENDMDL
