MODEL 2269
MODEL 1
REMARK VINA RESULT:    -5.585      0.000      0.000
REMARK INTER + INTRA:          -6.767
REMARK INTER:                  -6.565
REMARK INTRA:                  -0.202
REMARK UNBOUND:                -0.202
REMARK  Name = No_2269-gen_results/8p0m/2024-11-26-14-13-15/
REMARK  3 active torsions:
REMARK  status: ('A' for Active; 'I' for Inactive)
REMARK    1  A    between atoms: C_3  and  C_4
REMARK    2  A    between atoms: C_4  and  N_8
REMARK    3  A    between atoms: N_8  and  C_9
REMARK                            x       y       z     vdW  Elec       q    Type
REMARK                         _______ _______ _______ _____ _____    ______ ____
ROOT
ATOM      1  C   UNL A   1     -25.820  -2.726  29.714  0.00  0.00    -0.003 A 
ATOM      2  C   UNL A   1     -26.264  -3.680  29.776  0.00  0.00    -0.000 A 
ATOM      3  C   UNL A   1     -24.476  -2.743  29.137  0.00  0.00    -0.001 A 
ATOM      4  C   UNL A   1     -25.855  -5.032  29.421  0.00  0.00    -0.000 A 
ATOM      5  C   UNL A   1     -24.585  -5.091  28.884  0.00  0.00    -0.000 A 
ATOM      6  C   UNL A   1     -23.894  -3.955  28.683  0.00  0.00    -0.003 A 
ENDROOT
BRANCH   3   7
ATOM      7  C   UNL A   1     -23.691  -1.522  28.850  0.00  0.00    +0.139 C 
BRANCH   7   8
ATOM      8  N   UNL A   1     -22.534  -1.495  29.174  0.00  0.00    -0.232 NA
BRANCH   8   9
ATOM      9  C   UNL A   1     -21.697  -0.385  28.885  0.00  0.00    +0.076 C 
ATOM     10  C   UNL A   1     -22.303   0.738  28.186  0.00  0.00    -0.008 C 
ATOM     11  C   UNL A   1     -21.604   1.667  27.485  0.00  0.00    +0.032 C 
ENDBRANCH   8   9
ENDBRANCH   7   8
ENDBRANCH   3   7
TORSDOF 3
ENDMDL
ENDMDL
