REMARK  Name = No_2269-gen_results/8p0m/2024-11-26-14-13-15/
REMARK  3 active torsions:
REMARK  status: ('A' for Active; 'I' for Inactive)
REMARK    1  A    between atoms: C_3  and  C_4
REMARK    2  A    between atoms: C_4  and  N_8
REMARK    3  A    between atoms: N_8  and  C_9
REMARK                            x       y       z     vdW  Elec       q    Type
REMARK                         _______ _______ _______ _____ _____    ______ ____
ROOT
ATOM      1  C   UNL A   1     -28.016  -0.814  28.878  0.00  0.00    -0.003 A 
ATOM      2  C   UNL A   1     -28.469  -0.785  29.829  0.00  0.00    -0.000 A 
ATOM      3  C   UNL A   1     -27.087   0.290  28.638  0.00  0.00    -0.001 A 
ATOM      4  C   UNL A   1     -28.391   0.104  30.980  0.00  0.00    -0.000 A 
ATOM      5  C   UNL A   1     -27.533   1.167  30.787  0.00  0.00    -0.000 A 
ATOM      6  C   UNL A   1     -26.828   1.256  29.645  0.00  0.00    -0.003 A 
ENDROOT
BRANCH   3   7
ATOM      7  C   UNL A   1     -26.252   0.411  27.422  0.00  0.00    +0.139 C 
BRANCH   7   8
ATOM      8  N   UNL A   1     -25.064   0.267  27.526  0.00  0.00    -0.232 NA
BRANCH   8   9
ATOM      9  C   UNL A   1     -24.141   1.129  26.876  0.00  0.00    +0.076 C 
ATOM     10  C   UNL A   1     -22.861   1.345  27.533  0.00  0.00    -0.008 C 
ATOM     11  C   UNL A   1     -22.051   2.409  27.294  0.00  0.00    +0.032 C 
ENDBRANCH   8   9
ENDBRANCH   7   8
ENDBRANCH   3   7
TORSDOF 3
