REMARK  Name = No_2270-gen_results/8p0m/2024-11-26-14-13-15/
REMARK  4 active torsions:
REMARK  status: ('A' for Active; 'I' for Inactive)
REMARK    1  A    between atoms: C_3  and  C_11
REMARK    2  A    between atoms: C_11  and  C_12
REMARK    3  A    between atoms: C_11  and  C_18
REMARK    4  A    between atoms: C_18  and  N_19
REMARK                            x       y       z     vdW  Elec       q    Type
REMARK                         _______ _______ _______ _____ _____    ______ ____
ROOT
ATOM      1  C   UNL A   1     -28.016  -0.814  28.878  0.00  0.00    -0.004 A 
ATOM      2  C   UNL A   1     -28.469  -0.785  29.829  0.00  0.00    -0.000 A 
ATOM      3  C   UNL A   1     -28.196   0.348  28.055  0.00  0.00    -0.017 A 
ATOM      4  C   UNL A   1     -29.019   1.350  28.378  0.00  0.00    -0.004 A 
ATOM      5  C   UNL A   1     -29.411   0.180  30.378  0.00  0.00    -0.000 A 
ATOM      6  C   UNL A   1     -29.224   2.492  27.543  0.00  0.00    -0.000 A 
ATOM      7  C   UNL A   1     -29.587   1.224  29.619  0.00  0.00    -0.000 A 
ATOM      8  C   UNL A   1     -28.877   3.603  28.066  0.00  0.00    -0.000 A 
ATOM      9  C   UNL A   1     -29.154   3.838  29.503  0.00  0.00    -0.000 A 
ATOM     10  C   UNL A   1     -29.395   2.620  30.272  0.00  0.00    -0.000 A 
ENDROOT
BRANCH   3  11
ATOM     11  C   UNL A   1     -27.543   0.259  26.655  0.00  0.00    +0.062 C 
BRANCH  11  12
ATOM     12  C   UNL A   1     -26.049   0.228  26.641  0.00  0.00    -0.017 A 
ATOM     13  C   UNL A   1     -25.375   0.896  25.670  0.00  0.00    -0.004 A 
ATOM     14  C   UNL A   1     -24.460   1.876  25.892  0.00  0.00    -0.000 A 
ATOM     15  C   UNL A   1     -23.636   1.796  27.107  0.00  0.00    -0.000 A 
ATOM     16  C   UNL A   1     -24.170   0.861  28.113  0.00  0.00    -0.000 A 
ATOM     17  C   UNL A   1     -25.447   0.259  27.996  0.00  0.00    -0.004 A 
ENDBRANCH  11  12
BRANCH  11  18
ATOM     18  C   UNL A   1     -28.226   0.082  25.515  0.00  0.00    +0.097 C 
BRANCH  18  19
ATOM     19  N   UNL A   1     -29.411   0.242  25.254  0.00  0.00    -0.216 NA
ATOM     20  C   UNL A   1     -30.054  -0.128  24.185  0.00  0.00    +0.107 C 
ENDBRANCH  18  19
ENDBRANCH  11  18
ENDBRANCH   3  11
TORSDOF 4
