MODEL 2270
MODEL 1
REMARK VINA RESULT:    -7.900      0.000      0.000
REMARK INTER + INTRA:         -10.809
REMARK INTER:                  -9.747
REMARK INTRA:                  -1.062
REMARK UNBOUND:                -1.062
REMARK  Name = No_2270-gen_results/8p0m/2024-11-26-14-13-15/
REMARK  4 active torsions:
REMARK  status: ('A' for Active; 'I' for Inactive)
REMARK    1  A    between atoms: C_3  and  C_11
REMARK    2  A    between atoms: C_11  and  C_12
REMARK    3  A    between atoms: C_11  and  C_18
REMARK    4  A    between atoms: C_18  and  N_19
REMARK                            x       y       z     vdW  Elec       q    Type
REMARK                         _______ _______ _______ _____ _____    ______ ____
ROOT
ATOM      1  C   UNL A   1     -21.508  -0.689  29.116  0.00  0.00    -0.004 A 
ATOM      2  C   UNL A   1     -20.896  -0.052  28.541  0.00  0.00    -0.000 A 
ATOM      3  C   UNL A   1     -22.923  -0.472  29.012  0.00  0.00    -0.017 A 
ATOM      4  C   UNL A   1     -23.455   0.570  28.366  0.00  0.00    -0.004 A 
ATOM      5  C   UNL A   1     -21.249   1.144  27.790  0.00  0.00    -0.000 A 
ATOM      6  C   UNL A   1     -24.863   0.806  28.289  0.00  0.00    -0.000 A 
ATOM      7  C   UNL A   1     -22.534   1.349  27.714  0.00  0.00    -0.000 A 
ATOM      8  C   UNL A   1     -25.342   0.784  27.107  0.00  0.00    -0.000 A 
ATOM      9  C   UNL A   1     -24.560   1.390  26.004  0.00  0.00    -0.000 A 
ATOM     10  C   UNL A   1     -23.139   1.556  26.299  0.00  0.00    -0.000 A 
ENDROOT
BRANCH   3  11
ATOM     11  C   UNL A   1     -23.789  -1.404  29.891  0.00  0.00    +0.062 C 
BRANCH  11  12
ATOM     12  C   UNL A   1     -24.567  -2.446  29.155  0.00  0.00    -0.017 A 
ATOM     13  C   UNL A   1     -23.908  -3.368  28.406  0.00  0.00    -0.004 A 
ATOM     14  C   UNL A   1     -23.987  -4.713  28.582  0.00  0.00    -0.000 A 
ATOM     15  C   UNL A   1     -25.255  -5.278  29.068  0.00  0.00    -0.000 A 
ATOM     16  C   UNL A   1     -26.155  -4.270  29.655  0.00  0.00    -0.000 A 
ATOM     17  C   UNL A   1     -25.751  -2.935  29.902  0.00  0.00    -0.004 A 
ENDBRANCH  11  12
BRANCH  11  18
ATOM     18  C   UNL A   1     -23.772  -1.406  31.232  0.00  0.00    +0.097 C 
BRANCH  18  19
ATOM     19  N   UNL A   1     -24.001  -0.516  32.041  0.00  0.00    -0.216 NA
ATOM     20  C   UNL A   1     -24.605  -0.612  33.189  0.00  0.00    +0.107 C 
ENDBRANCH  18  19
ENDBRANCH  11  18
ENDBRANCH   3  11
TORSDOF 4
ENDMDL
ENDMDL
