MODEL 2271
MODEL 1
REMARK VINA RESULT:    -5.857      0.000      0.000
REMARK INTER + INTRA:          -6.808
REMARK INTER:                  -6.542
REMARK INTRA:                  -0.266
REMARK UNBOUND:                -0.266
REMARK  Name = No_2271-gen_results/8p0m/2024-11-26-14-13-15/
REMARK  2 active torsions:
REMARK  status: ('A' for Active; 'I' for Inactive)
REMARK    1  A    between atoms: C_3  and  C_11
REMARK    2  A    between atoms: C_5  and  C_8
REMARK                            x       y       z     vdW  Elec       q    Type
REMARK                         _______ _______ _______ _____ _____    ______ ____
ROOT
ATOM      1 CL   UNL A   1     -31.101  -9.138  30.408  0.00  0.00    -0.082 Cl
ATOM      2  C   UNL A   1     -30.073  -9.964  30.989  0.00  0.00    +0.062 A 
ATOM      3  C   UNL A   1     -29.455 -10.831  30.484  0.00  0.00    +0.082 A 
ATOM      4  C   UNL A   1     -28.413 -11.611  31.148  0.00  0.00    +0.011 A 
ATOM      5  C   UNL A   1     -28.134 -11.360  32.527  0.00  0.00    +0.080 A 
ATOM      6  C   UNL A   1     -28.851 -10.363  33.106  0.00  0.00    +0.007 A 
ATOM      7  C   UNL A   1     -29.776  -9.664  32.430  0.00  0.00    +0.012 A 
ENDROOT
BRANCH   3   8
ATOM      8  C   UNL A   1     -29.583 -11.242  29.045  0.00  0.00    +0.419 C 
ATOM      9  F   UNL A   1     -29.851 -10.524  28.154  0.00  0.00    -0.166 F 
ATOM     10  F   UNL A   1     -28.394 -11.900  28.676  0.00  0.00    -0.166 F 
ATOM     11  F   UNL A   1     -30.425 -12.418  29.116  0.00  0.00    -0.166 F 
ENDBRANCH   3   8
BRANCH   5  12
ATOM     12  C   UNL A   1     -27.145 -12.159  33.252  0.00  0.00    +0.388 C 
ATOM     13  O   UNL A   1     -27.169 -12.359  34.444  0.00  0.00    -0.241 OA
ATOM     14  O   UNL A   1     -26.407 -13.005  32.467  0.00  0.00    -0.241 OA
ENDBRANCH   5  12
TORSDOF 2
ENDMDL
ENDMDL
