MODEL 2272
MODEL 1
REMARK VINA RESULT:    -5.380      0.000      0.000
REMARK INTER + INTRA:          -5.380
REMARK INTER:                  -5.380
REMARK INTRA:                   0.000
REMARK UNBOUND:                 0.000
REMARK  Name = No_2272-gen_results/8p0m/2024-11-26-14-13-15/
REMARK  0 active torsions:
REMARK  status: ('A' for Active; 'I' for Inactive)
REMARK                            x       y       z     vdW  Elec       q    Type
REMARK                         _______ _______ _______ _____ _____    ______ ____
ROOT
ATOM      1  C   UNL A   1     -26.386  -3.416  29.911  0.00  0.00    +0.000 A 
ATOM      2  C   UNL A   1     -25.466  -2.639  30.011  0.00  0.00    +0.000 A 
ATOM      3  C   UNL A   1     -25.612  -1.331  30.432  0.00  0.00    +0.000 A 
ATOM      4  C   UNL A   1     -24.718  -0.343  30.025  0.00  0.00    +0.000 A 
ATOM      5  C   UNL A   1     -23.473  -0.659  29.341  0.00  0.00    +0.000 A 
ATOM      6  C   UNL A   1     -23.309  -2.004  28.974  0.00  0.00    +0.000 A 
ATOM      7  C   UNL A   1     -24.303  -2.894  29.247  0.00  0.00    +0.000 A 
ATOM      8  C   UNL A   1     -26.126  -4.863  29.670  0.00  0.00    +0.000 A 
ATOM      9  C   UNL A   1     -24.973  -5.223  28.939  0.00  0.00    +0.000 A 
ATOM     10  C   UNL A   1     -24.022  -4.243  28.714  0.00  0.00    +0.000 A 
ENDROOT
TORSDOF 0
ENDMDL
ENDMDL
