REMARK  Name = No_2273-gen_results/8p0m/2024-11-26-14-13-15/
REMARK  3 active torsions:
REMARK  status: ('A' for Active; 'I' for Inactive)
REMARK    1  A    between atoms: C_1  and  C_2
REMARK    2  A    between atoms: C_1  and  C_8
REMARK    3  A    between atoms: C_9  and  C_10
REMARK                            x       y       z     vdW  Elec       q    Type
REMARK                         _______ _______ _______ _____ _____    ______ ____
ROOT
ATOM      1  C   UNL A   1     -27.064  -0.119  28.608  0.00  0.00    -0.018 A 
ATOM      2  C   UNL A   1     -25.765  -0.390  29.036  0.00  0.00    -0.004 A 
ATOM      3  C   UNL A   1     -24.552   0.406  28.765  0.00  0.00    -0.000 A 
ATOM      4  C   UNL A   1     -24.696   1.448  27.799  0.00  0.00    -0.000 A 
ATOM      5  C   UNL A   1     -25.976   1.725  27.308  0.00  0.00    -0.000 A 
ATOM      6  C   UNL A   1     -27.072   1.013  27.654  0.00  0.00    -0.004 A 
ENDROOT
BRANCH   1   7
ATOM      7  C   UNL A   1     -28.016  -0.814  28.878  0.00  0.00    +0.052 C 
BRANCH   7   8
ATOM      8  C   UNL A   1     -27.965  -1.622  30.136  0.00  0.00    -0.021 C 
ATOM      9  C   UNL A   1     -29.091  -2.358  30.566  0.00  0.00    -0.004 C 
BRANCH   9  10
ATOM     10  C   UNL A   1     -30.278  -2.022  30.040  0.00  0.00    -0.000 C 
ATOM     11  C   UNL A   1     -30.406  -1.069  29.082  0.00  0.00    -0.000 C 
ENDBRANCH   9  10
ENDBRANCH   7   8
ENDBRANCH   1   7
TORSDOF 3
