MODEL 2273
MODEL 1
REMARK VINA RESULT:    -5.448      0.000      0.000
REMARK INTER + INTRA:          -6.795
REMARK INTER:                  -6.403
REMARK INTRA:                  -0.392
REMARK UNBOUND:                -0.392
REMARK  Name = No_2273-gen_results/8p0m/2024-11-26-14-13-15/
REMARK  3 active torsions:
REMARK  status: ('A' for Active; 'I' for Inactive)
REMARK    1  A    between atoms: C_1  and  C_2
REMARK    2  A    between atoms: C_1  and  C_8
REMARK    3  A    between atoms: C_9  and  C_10
REMARK                            x       y       z     vdW  Elec       q    Type
REMARK                         _______ _______ _______ _____ _____    ______ ____
ROOT
ATOM      1  C   UNL A   1     -24.666  -2.429  29.055  0.00  0.00    -0.018 A 
ATOM      2  C   UNL A   1     -23.848  -3.477  28.634  0.00  0.00    -0.004 A 
ATOM      3  C   UNL A   1     -24.186  -4.914  28.599  0.00  0.00    -0.000 A 
ATOM      4  C   UNL A   1     -25.402  -5.282  29.251  0.00  0.00    -0.000 A 
ATOM      5  C   UNL A   1     -26.233  -4.263  29.730  0.00  0.00    -0.000 A 
ATOM      6  C   UNL A   1     -25.910  -2.952  29.663  0.00  0.00    -0.004 A 
ENDROOT
BRANCH   1   7
ATOM      7  C   UNL A   1     -24.323  -1.269  29.048  0.00  0.00    +0.052 C 
BRANCH   7   8
ATOM      8  C   UNL A   1     -23.009  -0.917  29.670  0.00  0.00    -0.021 C 
ATOM      9  C   UNL A   1     -22.359   0.293  29.344  0.00  0.00    -0.004 C 
BRANCH   9  10
ATOM     10  C   UNL A   1     -22.749   0.913  28.221  0.00  0.00    -0.000 C 
ATOM     11  C   UNL A   1     -21.883   1.589  27.424  0.00  0.00    -0.000 C 
ENDBRANCH   9  10
ENDBRANCH   7   8
ENDBRANCH   1   7
TORSDOF 3
ENDMDL
ENDMDL
