MODEL 2274
MODEL 1
REMARK VINA RESULT:    -4.352      0.000      0.000
REMARK INTER + INTRA:          -4.352
REMARK INTER:                  -4.352
REMARK INTRA:                   0.000
REMARK UNBOUND:                 0.000
REMARK  Name = No_2274-gen_results/8p0m/2024-11-26-14-13-15/
REMARK  0 active torsions:
REMARK  status: ('A' for Active; 'I' for Inactive)
REMARK                            x       y       z     vdW  Elec       q    Type
REMARK                         _______ _______ _______ _____ _____    ______ ____
ROOT
ATOM      1  C   UNL A   1     -24.160  -4.921  28.612  0.00  0.00    +0.000 A 
ATOM      2  C   UNL A   1     -25.022  -5.313  29.074  0.00  0.00    +0.000 A 
ATOM      3  C   UNL A   1     -24.034  -3.465  28.750  0.00  0.00    +0.000 A 
ATOM      4  C   UNL A   1     -25.010  -2.705  29.248  0.00  0.00    +0.000 A 
ATOM      5  C   UNL A   1     -26.200  -4.706  29.643  0.00  0.00    +0.000 A 
ATOM      6  C   UNL A   1     -26.074  -3.351  29.739  0.00  0.00    +0.000 A 
ENDROOT
TORSDOF 0
ENDMDL
ENDMDL
