REMARK  Name = No_2275-gen_results/8p0m/2024-11-26-14-13-15/
REMARK  3 active torsions:
REMARK  status: ('A' for Active; 'I' for Inactive)
REMARK    1  A    between atoms: C_3  and  C_8
REMARK    2  A    between atoms: C_6  and  C_22
REMARK    3  A    between atoms: C_11  and  C_13
REMARK                            x       y       z     vdW  Elec       q    Type
REMARK                         _______ _______ _______ _____ _____    ______ ____
ROOT
ATOM      1  C   UNL A   1     -26.519   0.436  26.600  0.00  0.00    -0.014 A 
ATOM      2  C   UNL A   1     -25.498   0.931  25.866  0.00  0.00    -0.004 A 
ATOM      3  C   UNL A   1     -27.800   0.444  25.983  0.00  0.00    +0.001 A 
ATOM      4  C   UNL A   1     -27.939   0.913  24.689  0.00  0.00    +0.053 A 
ATOM      5  C   UNL A   1     -25.610   1.397  24.540  0.00  0.00    -0.000 A 
ATOM      6  C   UNL A   1     -26.812   1.414  24.070  0.00  0.00    +0.004 A 
ENDROOT
BRANCH   4   7
ATOM      7  C   UNL A   1     -29.236   1.042  24.116  0.00  0.00    +0.249 C 
ATOM      8  N   UNL A   1     -30.053   0.108  24.359  0.00  0.00    -0.276 N 
ATOM      9  C   UNL A   1     -30.036  -0.877  24.774  0.00  0.00    +0.094 C 
ATOM     10  C   UNL A   1     -31.284  -1.733  25.012  0.00  0.00    +0.022 C 
ATOM     11  C   UNL A   1     -31.463   0.669  24.543  0.00  0.00    +0.094 C 
ATOM     12  C   UNL A   1     -32.099  -1.137  25.138  0.00  0.00    +0.004 C 
ATOM     13  C   UNL A   1     -32.499   0.100  24.715  0.00  0.00    +0.022 C 
ATOM     14  O   UNL A   1     -29.385   1.889  23.204  0.00  0.00    -0.270 OA
ENDBRANCH   4   7
BRANCH   1  17
ATOM     15  O   UNL A   1     -28.123  -1.335  28.487  0.00  0.00    -0.273 OA
ATOM     16  C   UNL A   1     -27.481  -0.404  28.709  0.00  0.00    +0.245 C 
ATOM     17  C   UNL A   1     -26.380  -0.087  27.939  0.00  0.00    +0.100 C 
ATOM     18  N   UNL A   1     -27.666   0.447  29.899  0.00  0.00    -0.205 NA
ATOM     19  C   UNL A   1     -25.177  -0.439  28.395  0.00  0.00    +0.015 C 
ATOM     20  C   UNL A   1     -24.870  -0.105  29.831  0.00  0.00    +0.022 C 
ATOM     21  C   UNL A   1     -26.193   0.218  30.562  0.00  0.00    +0.115 C 
BRANCH  20  22
ATOM     22  C   UNL A   1     -23.686  -0.104  30.476  0.00  0.00    +0.002 C 
ATOM     23  C   UNL A   1     -23.471   0.305  31.544  0.00  0.00    +0.000 C 
ATOM     24  C   UNL A   1     -22.570  -0.497  29.600  0.00  0.00    +0.000 C 
ENDBRANCH  20  22
ENDBRANCH   1  17
TORSDOF 3
