MODEL 2275
MODEL 1
REMARK VINA RESULT:    -7.603      0.000      0.000
REMARK INTER + INTRA:          -9.645
REMARK INTER:                  -8.936
REMARK INTRA:                  -0.708
REMARK UNBOUND:                -0.708
REMARK  Name = No_2275-gen_results/8p0m/2024-11-26-14-13-15/
REMARK  3 active torsions:
REMARK  status: ('A' for Active; 'I' for Inactive)
REMARK    1  A    between atoms: C_3  and  C_8
REMARK    2  A    between atoms: C_6  and  C_22
REMARK    3  A    between atoms: C_11  and  C_13
REMARK                            x       y       z     vdW  Elec       q    Type
REMARK                         _______ _______ _______ _____ _____    ______ ____
ROOT
ATOM      1  C   UNL A   1     -25.098   0.349  27.464  0.00  0.00    -0.014 A 
ATOM      2  C   UNL A   1     -24.252   1.261  26.938  0.00  0.00    -0.004 A 
ATOM      3  C   UNL A   1     -26.421   0.343  26.943  0.00  0.00    +0.001 A 
ATOM      4  C   UNL A   1     -26.767   1.221  25.931  0.00  0.00    +0.053 A 
ATOM      5  C   UNL A   1     -24.574   2.153  25.895  0.00  0.00    -0.000 A 
ATOM      6  C   UNL A   1     -25.806   2.116  25.510  0.00  0.00    +0.004 A 
ENDROOT
BRANCH   4   7
ATOM      7  C   UNL A   1     -28.121   1.306  25.498  0.00  0.00    +0.249 C 
ATOM      8  N   UNL A   1     -28.519   0.395  24.716  0.00  0.00    -0.276 N 
ATOM      9  C   UNL A   1     -28.096  -0.394  24.133  0.00  0.00    +0.094 C 
ATOM     10  C   UNL A   1     -28.918  -1.412  23.335  0.00  0.00    +0.022 C 
ATOM     11  C   UNL A   1     -29.968   0.023  25.026  0.00  0.00    +0.094 C 
ATOM     12  C   UNL A   1     -29.842  -1.517  23.749  0.00  0.00    +0.004 C 
ATOM     13  C   UNL A   1     -30.703  -0.735  24.467  0.00  0.00    +0.022 C 
ATOM     14  O   UNL A   1     -28.719   2.393  25.675  0.00  0.00    -0.270 OA
ENDBRANCH   4   7
BRANCH   1  17
ATOM     15  O   UNL A   1     -23.381   0.331  29.978  0.00  0.00    -0.273 OA
ATOM     16  C   UNL A   1     -23.548  -0.491  29.188  0.00  0.00    +0.245 C 
ATOM     17  C   UNL A   1     -24.738  -0.595  28.497  0.00  0.00    +0.100 C 
ATOM     18  N   UNL A   1     -22.594  -1.588  28.941  0.00  0.00    -0.205 NA
ATOM     19  C   UNL A   1     -25.633  -1.488  28.924  0.00  0.00    +0.015 C 
ATOM     20  C   UNL A   1     -25.123  -2.875  29.213  0.00  0.00    +0.022 C 
ATOM     21  C   UNL A   1     -23.583  -2.827  29.326  0.00  0.00    +0.115 C 
BRANCH  20  22
ATOM     22  C   UNL A   1     -25.813  -4.018  29.404  0.00  0.00    +0.002 C 
ATOM     23  C   UNL A   1     -26.848  -4.133  29.923  0.00  0.00    +0.000 C 
ATOM     24  C   UNL A   1     -25.020  -5.213  29.070  0.00  0.00    +0.000 C 
ENDBRANCH  20  22
ENDBRANCH   1  17
TORSDOF 3
ENDMDL
ENDMDL
