MODEL 2277
MODEL 1
REMARK VINA RESULT:    -5.405      0.000      0.000
REMARK INTER + INTRA:          -6.398
REMARK INTER:                  -6.353
REMARK INTRA:                  -0.046
REMARK UNBOUND:                -0.046
REMARK  Name = No_2277-gen_results/8p0m/2024-11-26-14-13-15/
REMARK  3 active torsions:
REMARK  status: ('A' for Active; 'I' for Inactive)
REMARK    1  A    between atoms: C_1  and  C_2
REMARK    2  A    between atoms: C_1  and  N_8
REMARK    3  A    between atoms: C_10  and  C_11
REMARK                            x       y       z     vdW  Elec       q    Type
REMARK                         _______ _______ _______ _____ _____    ______ ____
ROOT
ATOM      1  C   UNL A   1     -29.272 -11.080  30.784  0.00  0.00    -0.002 A 
ATOM      2  C   UNL A   1     -30.154 -10.193  30.423  0.00  0.00    -0.024 A 
ATOM      3  C   UNL A   1     -30.689  -9.995  29.054  0.00  0.00    -0.009 A 
ATOM      4  C   UNL A   1     -30.147 -10.830  28.036  0.00  0.00    -0.022 A 
ATOM      5  C   UNL A   1     -29.174 -11.725  28.401  0.00  0.00    -0.004 A 
ATOM      6  C   UNL A   1     -28.701 -11.864  29.661  0.00  0.00    -0.003 A 
ATOM      7  C   UNL A   1     -30.812 -10.660  26.773  0.00  0.00    +0.031 C 
ATOM      8  C   UNL A   1     -31.546 -10.746  31.058  0.00  0.00    +0.031 C 
ENDROOT
BRANCH   1   9
ATOM      9  C   UNL A   1     -28.812 -11.264  31.888  0.00  0.00    +0.152 C 
BRANCH   9  10
ATOM     10  N   UNL A   1     -27.663 -12.018  32.024  0.00  0.00    -0.263 NA
ATOM     11  C   UNL A   1     -27.080 -12.007  32.981  0.00  0.00    +0.114 C 
BRANCH  11  12
ATOM     12  C   UNL A   1     -27.444 -11.574  34.011  0.00  0.00    +0.113 C 
ATOM     13  N   UNL A   1     -27.094 -11.086  34.507  0.00  0.00    -0.265 NA
ATOM     14  C   UNL A   1     -26.812  -9.729  34.838  0.00  0.00    +0.152 C 
ENDBRANCH  11  12
ENDBRANCH   9  10
ENDBRANCH   1   9
TORSDOF 3
ENDMDL
ENDMDL
