REMARK  Name = No_2277-gen_results/8p0m/2024-11-26-14-13-15/
REMARK  3 active torsions:
REMARK  status: ('A' for Active; 'I' for Inactive)
REMARK    1  A    between atoms: C_1  and  C_2
REMARK    2  A    between atoms: C_1  and  N_8
REMARK    3  A    between atoms: C_10  and  C_11
REMARK                            x       y       z     vdW  Elec       q    Type
REMARK                         _______ _______ _______ _____ _____    ______ ____
ROOT
ATOM      1  C   UNL A   1     -27.064  -0.119  28.608  0.00  0.00    -0.002 A 
ATOM      2  C   UNL A   1     -26.876   1.133  28.913  0.00  0.00    -0.024 A 
ATOM      3  C   UNL A   1     -25.688   1.952  28.567  0.00  0.00    -0.009 A 
ATOM      4  C   UNL A   1     -24.639   1.283  27.875  0.00  0.00    -0.022 A 
ATOM      5  C   UNL A   1     -24.807  -0.051  27.604  0.00  0.00    -0.004 A 
ATOM      6  C   UNL A   1     -25.902  -0.767  27.951  0.00  0.00    -0.003 A 
ATOM      7  C   UNL A   1     -23.590   2.178  27.468  0.00  0.00    +0.031 C 
ATOM      8  C   UNL A   1     -27.906   1.931  27.939  0.00  0.00    +0.031 C 
ENDROOT
BRANCH   1   9
ATOM      9  C   UNL A   1     -28.016  -0.814  28.878  0.00  0.00    +0.152 C 
BRANCH   9  10
ATOM     10  N   UNL A   1     -28.709  -0.583  30.050  0.00  0.00    -0.263 NA
ATOM     11  C   UNL A   1     -28.252   0.021  30.877  0.00  0.00    +0.114 C 
BRANCH  11  12
ATOM     12  C   UNL A   1     -27.289   0.690  30.798  0.00  0.00    +0.113 C 
ATOM     13  N   UNL A   1     -27.183   1.387  30.468  0.00  0.00    -0.265 NA
ATOM     14  C   UNL A   1     -27.293   2.800  30.616  0.00  0.00    +0.152 C 
ENDBRANCH  11  12
ENDBRANCH   9  10
ENDBRANCH   1   9
TORSDOF 3
