MODEL 2278
MODEL 1
REMARK VINA RESULT:    -5.637      0.000      0.000
REMARK INTER + INTRA:          -6.028
REMARK INTER:                  -5.967
REMARK INTRA:                  -0.061
REMARK UNBOUND:                -0.061
REMARK  Name = No_2278-gen_results/8p0m/2024-11-26-14-13-15/
REMARK  1 active torsions:
REMARK  status: ('A' for Active; 'I' for Inactive)
REMARK    1  A    between atoms: C_10  and  C_11
REMARK                            x       y       z     vdW  Elec       q    Type
REMARK                         _______ _______ _______ _____ _____    ______ ____
ROOT
ATOM      1  C   UNL A   1     -26.178  -4.546  29.692  0.00  0.00    -0.000 A 
ATOM      2  C   UNL A   1     -25.489  -5.170  29.194  0.00  0.00    -0.000 A 
ATOM      3  C   UNL A   1     -25.843  -3.183  29.843  0.00  0.00    -0.000 A 
ATOM      4  C   UNL A   1     -24.652  -2.667  29.372  0.00  0.00    -0.002 A 
ATOM      5  C   UNL A   1     -23.808  -3.554  28.724  0.00  0.00    -0.000 A 
ATOM      6  C   UNL A   1     -24.193  -4.868  28.568  0.00  0.00    -0.000 A 
ATOM      7  C   UNL A   1     -26.739  -2.183  30.509  0.00  0.00    -0.000 A 
ATOM      8  C   UNL A   1     -26.220  -0.903  30.771  0.00  0.00    -0.000 A 
ATOM      9  C   UNL A   1     -25.055  -0.439  30.198  0.00  0.00    -0.002 A 
ATOM     10  C   UNL A   1     -24.200  -1.344  29.572  0.00  0.00    +0.011 A 
ENDROOT
BRANCH  10  11
ATOM     11  C   UNL A   1     -22.900  -0.795  29.087  0.00  0.00    +0.209 C 
ATOM     12  O   UNL A   1     -22.088  -0.656  29.969  0.00  0.00    -0.215 OA
ENDBRANCH  10  11
TORSDOF 1
ENDMDL
ENDMDL
