MODEL 2279
MODEL 1
REMARK VINA RESULT:    -5.182      0.000      0.000
REMARK INTER + INTRA:          -5.526
REMARK INTER:                  -5.485
REMARK INTRA:                  -0.040
REMARK UNBOUND:                -0.040
REMARK  Name = No_2279-gen_results/8p0m/2024-11-26-14-13-15/
REMARK  1 active torsions:
REMARK  status: ('A' for Active; 'I' for Inactive)
REMARK    1  A    between atoms: C_2  and  C_7
REMARK                            x       y       z     vdW  Elec       q    Type
REMARK                         _______ _______ _______ _____ _____    ______ ____
ROOT
ATOM      1  C   UNL A   1      -8.495 -10.544  18.456  0.00  0.00    +0.007 A 
ATOM      2  C   UNL A   1      -9.460 -10.149  18.301  0.00  0.00    +0.080 A 
ATOM      3  C   UNL A   1      -7.815 -10.155  19.702  0.00  0.00    +0.000 A 
ATOM      4  C   UNL A   1      -8.502  -9.400  20.697  0.00  0.00    +0.000 A 
ATOM      5  C   UNL A   1     -10.401  -9.404  19.181  0.00  0.00    +0.007 A 
ATOM      6  C   UNL A   1      -9.803  -9.017  20.344  0.00  0.00    +0.000 A 
ENDROOT
BRANCH   2   7
ATOM      7  C   UNL A   1     -10.237 -10.561  16.972  0.00  0.00    +0.388 C 
ATOM      8  O   UNL A   1      -9.566 -11.045  16.004  0.00  0.00    -0.241 OA
ATOM      9  O   UNL A   1     -11.473 -10.502  17.024  0.00  0.00    -0.241 OA
ENDBRANCH   2   7
TORSDOF 1
ENDMDL
ENDMDL
