MODEL 227
MODEL 1
REMARK VINA RESULT:    -6.233      0.000      0.000
REMARK INTER + INTRA:          -6.708
REMARK INTER:                  -6.597
REMARK INTRA:                  -0.111
REMARK UNBOUND:                -0.111
REMARK  Name = No_227-gen_results/8p0m/2024-11-26-14-13-15/
REMARK  1 active torsions:
REMARK  status: ('A' for Active; 'I' for Inactive)
REMARK    1  A    between atoms: C_10  and  C_11
REMARK                            x       y       z     vdW  Elec       q    Type
REMARK                         _______ _______ _______ _____ _____    ______ ____
ROOT
ATOM      1  C   UNL A   1     -23.458  -2.056  29.112  0.00  0.00    +0.011 A 
ATOM      2  C   UNL A   1     -24.485  -2.144  28.895  0.00  0.00    +0.058 A 
ATOM      3  C   UNL A   1     -22.801  -0.869  28.721  0.00  0.00    +0.001 A 
ATOM      4  C   UNL A   1     -23.462   0.149  28.063  0.00  0.00    +0.006 A 
ATOM      5  C   UNL A   1     -25.415  -1.220  28.216  0.00  0.00    +0.011 A 
ATOM      6  C   UNL A   1     -24.825  -0.070  27.823  0.00  0.00    +0.001 A 
ATOM      7  C   UNL A   1     -21.351  -0.602  29.004  0.00  0.00    +0.000 A 
ATOM      8  C   UNL A   1     -20.717   0.396  28.233  0.00  0.00    +0.000 A 
ATOM      9  C   UNL A   1     -21.430   1.463  27.722  0.00  0.00    +0.007 A 
ATOM     10  C   UNL A   1     -22.832   1.252  27.469  0.00  0.00    +0.080 A 
ATOM     11 CL   UNL A   1     -25.438  -3.608  29.517  0.00  0.00    -0.082 Cl
ENDROOT
BRANCH  10  12
ATOM     12  C   UNL A   1     -23.528   2.342  26.720  0.00  0.00    +0.388 C 
ATOM     13  O   UNL A   1     -23.281   2.491  25.485  0.00  0.00    -0.241 OA
ATOM     14  O   UNL A   1     -23.973   3.320  27.475  0.00  0.00    -0.241 OA
ENDBRANCH  10  12
TORSDOF 1
ENDMDL
ENDMDL
