REMARK  Name = No_228-gen_results/8p0m/2024-11-26-14-13-15/
REMARK  2 active torsions:
REMARK  status: ('A' for Active; 'I' for Inactive)
REMARK    1  A    between atoms: C_3  and  C_5
REMARK    2  A    between atoms: C_7  and  C_14
REMARK                            x       y       z     vdW  Elec       q    Type
REMARK                         _______ _______ _______ _____ _____    ______ ____
ROOT
ATOM      1  O   UNL A   1     -28.123  -1.335  28.487  0.00  0.00    -0.273 OA
ATOM      2  C   UNL A   1     -27.064  -0.824  28.869  0.00  0.00    +0.245 C 
ATOM      3  C   UNL A   1     -26.959   0.093  29.758  0.00  0.00    +0.101 C 
ATOM      4  N   UNL A   1     -25.801  -1.357  28.397  0.00  0.00    -0.205 NA
ATOM      5  C   UNL A   1     -24.536  -0.936  28.779  0.00  0.00    +0.126 C 
ATOM      6  C   UNL A   1     -24.442   0.108  29.616  0.00  0.00    +0.126 C 
ATOM      7  C   UNL A   1     -25.545   0.667  30.142  0.00  0.00    +0.027 C 
ENDROOT
BRANCH   3   8
ATOM      8  C   UNL A   1     -27.864   0.818  30.281  0.00  0.00    -0.014 A 
ATOM      9  C   UNL A   1     -28.243   0.684  31.475  0.00  0.00    -0.004 A 
ATOM     10  C   UNL A   1     -29.397   1.397  32.146  0.00  0.00    -0.000 A 
ATOM     11  C   UNL A   1     -30.174   2.131  31.248  0.00  0.00    -0.000 A 
ATOM     12  C   UNL A   1     -29.841   2.179  29.923  0.00  0.00    -0.000 A 
ATOM     13  C   UNL A   1     -28.697   1.541  29.391  0.00  0.00    -0.004 A 
ENDBRANCH   3   8
BRANCH   6  14
ATOM     14  C   UNL A   1     -23.048   0.514  30.021  0.00  0.00    +0.366 C 
ATOM     15  O   UNL A   1     -23.035   1.504  30.729  0.00  0.00    -0.246 OA
ATOM     16  O   UNL A   1     -21.986  -0.045  29.702  0.00  0.00    -0.246 OA
ENDBRANCH   6  14
TORSDOF 2
