MODEL 2280
MODEL 1
REMARK VINA RESULT:    -4.141      0.000      0.000
REMARK INTER + INTRA:          -4.687
REMARK INTER:                  -4.625
REMARK INTRA:                  -0.063
REMARK UNBOUND:                -0.063
REMARK  Name = No_2280-gen_results/8p0m/2024-11-26-14-13-15/
REMARK  2 active torsions:
REMARK  status: ('A' for Active; 'I' for Inactive)
REMARK    1  A    between atoms: C_1  and  C_2
REMARK    2  A    between atoms: C_3  and  C_4
REMARK                            x       y       z     vdW  Elec       q    Type
REMARK                         _______ _______ _______ _____ _____    ______ ____
ROOT
ATOM      1  C   UNL A   1      -8.968  -9.239  20.206  0.00  0.00    -0.026 C 
ATOM      2  C   UNL A   1      -9.915  -9.475  19.215  0.00  0.00    -0.005 C 
ENDROOT
BRANCH   1   3
ATOM      3  C   UNL A   1      -7.787  -9.221  19.948  0.00  0.00    +0.026 C 
ATOM      4  C   UNL A   1      -7.029  -8.017  19.739  0.00  0.00    +0.005 C 
ENDBRANCH   1   3
BRANCH   2   5
ATOM      5  C   UNL A   1      -9.521  -9.662  17.843  0.00  0.00    -0.000 C 
ATOM      6  C   UNL A   1      -9.413 -10.865  17.216  0.00  0.00    -0.000 C 
ENDBRANCH   2   5
TORSDOF 2
ENDMDL
ENDMDL
