MODEL 2281
MODEL 1
REMARK VINA RESULT:    -6.342      0.000      0.000
REMARK INTER + INTRA:          -7.590
REMARK INTER:                  -7.454
REMARK INTRA:                  -0.136
REMARK UNBOUND:                -0.136
REMARK  Name = No_2281-gen_results/8p0m/2024-11-26-14-13-15/
REMARK  3 active torsions:
REMARK  status: ('A' for Active; 'I' for Inactive)
REMARK    1  A    between atoms: N_4  and  C_6
REMARK    2  A    between atoms: C_10  and  C_13
REMARK    3  A    between atoms: C_13  and  N_14
REMARK                            x       y       z     vdW  Elec       q    Type
REMARK                         _______ _______ _______ _____ _____    ______ ____
ROOT
ATOM      1  C   UNL A   1     -28.352   1.358  25.751  0.00  0.00    +0.131 A 
ATOM      2  C   UNL A   1     -27.438   2.036  26.159  0.00  0.00    +0.272 C 
ATOM      3  O   UNL A   1     -27.583   3.095  26.852  0.00  0.00    -0.268 OA
ATOM      4  N   UNL A   1     -26.059   1.602  26.056  0.00  0.00    -0.227 N 
ATOM      5  N   UNL A   1     -29.499   2.017  25.477  0.00  0.00    -0.240 NA
ATOM      6  C   UNL A   1     -27.903   0.756  24.387  0.00  0.00    +0.005 A 
ATOM      7  C   UNL A   1     -28.450   0.842  23.491  0.00  0.00    -0.001 A 
ATOM      8  C   UNL A   1     -29.807   1.368  23.310  0.00  0.00    +0.020 A 
ATOM      9  C   UNL A   1     -30.374   1.924  24.458  0.00  0.00    +0.099 A 
ATOM     10  C   UNL A   1     -25.700   0.410  25.352  0.00  0.00    +0.248 C 
ATOM     11  C   UNL A   1     -26.430  -0.062  24.764  0.00  0.00    +0.085 C 
ATOM     12  F   UNL A   1     -24.513   0.014  25.470  0.00  0.00    -0.214 F 
ENDROOT
BRANCH   4  13
ATOM     13  C   UNL A   1     -24.979   2.266  26.746  0.00  0.00    +0.056 A 
ATOM     14  C   UNL A   1     -24.216   3.047  26.064  0.00  0.00    +0.015 A 
ATOM     15  C   UNL A   1     -23.227   2.632  25.774  0.00  0.00    +0.001 A 
ATOM     16  C   UNL A   1     -22.337   1.829  26.626  0.00  0.00    -0.003 A 
ATOM     17  C   UNL A   1     -23.044   1.319  27.788  0.00  0.00    -0.005 A 
ATOM     18  C   UNL A   1     -24.471   1.610  27.845  0.00  0.00    +0.012 A 
BRANCH  17  19
ATOM     19  C   UNL A   1     -22.267   0.604  28.799  0.00  0.00    +0.099 C 
BRANCH  19  20
ATOM     20  N   UNL A   1     -22.555  -0.306  29.398  0.00  0.00    -0.267 NA
ATOM     21  C   UNL A   1     -23.059  -1.458  28.924  0.00  0.00    +0.090 C 
ATOM     22  C   UNL A   1     -23.040  -0.055  30.805  0.00  0.00    +0.090 C 
ENDBRANCH  19  20
ENDBRANCH  17  19
ENDBRANCH   4  13
TORSDOF 3
ENDMDL
ENDMDL
