REMARK  Name = No_2281-gen_results/8p0m/2024-11-26-14-13-15/
REMARK  3 active torsions:
REMARK  status: ('A' for Active; 'I' for Inactive)
REMARK    1  A    between atoms: N_4  and  C_6
REMARK    2  A    between atoms: C_10  and  C_13
REMARK    3  A    between atoms: C_13  and  N_14
REMARK                            x       y       z     vdW  Elec       q    Type
REMARK                         _______ _______ _______ _____ _____    ______ ____
ROOT
ATOM      1  C   UNL A   1     -28.016  -0.814  28.878  0.00  0.00    +0.131 A 
ATOM      2  C   UNL A   1     -27.064  -0.119  28.608  0.00  0.00    +0.272 C 
ATOM      3  O   UNL A   1     -25.859  -0.406  28.904  0.00  0.00    -0.268 OA
ATOM      4  N   UNL A   1     -27.183   1.038  27.743  0.00  0.00    -0.227 N 
ATOM      5  N   UNL A   1     -27.909  -1.550  30.005  0.00  0.00    -0.240 NA
ATOM      6  C   UNL A   1     -29.220   0.139  29.138  0.00  0.00    +0.005 A 
ATOM      7  C   UNL A   1     -29.811   0.125  30.009  0.00  0.00    -0.001 A 
ATOM      8  C   UNL A   1     -29.791  -0.859  31.097  0.00  0.00    +0.020 A 
ATOM      9  C   UNL A   1     -28.778  -1.814  31.000  0.00  0.00    +0.099 A 
ATOM     10  C   UNL A   1     -28.454   1.491  27.270  0.00  0.00    +0.248 C 
ATOM     11  C   UNL A   1     -29.321   1.077  27.692  0.00  0.00    +0.085 C 
ATOM     12  F   UNL A   1     -28.447   2.382  26.384  0.00  0.00    -0.214 F 
ENDROOT
BRANCH   4  13
ATOM     13  C   UNL A   1     -26.036   1.734  27.210  0.00  0.00    +0.056 A 
ATOM     14  C   UNL A   1     -25.777   1.599  25.956  0.00  0.00    +0.015 A 
ATOM     15  C   UNL A   1     -24.953   0.898  25.701  0.00  0.00    +0.001 A 
ATOM     16  C   UNL A   1     -23.667   0.775  26.403  0.00  0.00    -0.003 A 
ATOM     17  C   UNL A   1     -23.716   1.420  27.704  0.00  0.00    -0.005 A 
ATOM     18  C   UNL A   1     -25.008   1.969  28.095  0.00  0.00    +0.012 A 
BRANCH  17  19
ATOM     19  C   UNL A   1     -22.477   1.494  28.475  0.00  0.00    +0.099 C 
BRANCH  19  20
ATOM     20  N   UNL A   1     -21.895   0.659  28.960  0.00  0.00    -0.267 NA
ATOM     21  C   UNL A   1     -21.004  -0.153  28.367  0.00  0.00    +0.090 C 
ATOM     22  C   UNL A   1     -22.570  -0.045  30.111  0.00  0.00    +0.090 C 
ENDBRANCH  19  20
ENDBRANCH  17  19
ENDBRANCH   4  13
TORSDOF 3
