REMARK  Name = No_2282-gen_results/8p0m/2024-11-26-14-13-15/
REMARK  2 active torsions:
REMARK  status: ('A' for Active; 'I' for Inactive)
REMARK    1  A    between atoms: C_5  and  C_12
REMARK    2  A    between atoms: C_9  and  C_10
REMARK                            x       y       z     vdW  Elec       q    Type
REMARK                         _______ _______ _______ _____ _____    ______ ____
ROOT
ATOM      1  C   UNL A   1     -28.016  -0.814  28.878  0.00  0.00    -0.004 A 
ATOM      2  C   UNL A   1     -27.064  -0.119  28.608  0.00  0.00    -0.019 A 
ATOM      3  C   UNL A   1     -26.876   1.133  28.913  0.00  0.00    +0.031 A 
ATOM      4  C   UNL A   1     -25.688   1.952  28.567  0.00  0.00    +0.183 C 
ATOM      5  C   UNL A   1     -24.639   1.283  27.875  0.00  0.00    +0.165 C 
ATOM      6  C   UNL A   1     -24.807  -0.051  27.604  0.00  0.00    +0.024 C 
ATOM      7  C   UNL A   1     -25.902  -0.767  27.951  0.00  0.00    +0.028 C 
ATOM      8  C   UNL A   1     -28.639  -0.512  30.240  0.00  0.00    +0.004 A 
ATOM      9  C   UNL A   1     -28.873   0.822  30.484  0.00  0.00    +0.071 A 
ATOM     10  C   UNL A   1     -27.827   1.673  29.868  0.00  0.00    +0.006 A 
ATOM     11  O   UNL A   1     -25.591   3.210  28.926  0.00  0.00    -0.291 OA
ENDROOT
BRANCH   9  12
ATOM     12  C   UNL A   1     -29.658   1.280  31.504  0.00  0.00    +0.419 C 
ATOM     13  F   UNL A   1     -30.487   0.766  31.813  0.00  0.00    -0.166 F 
ATOM     14  F   UNL A   1     -30.108   2.577  31.076  0.00  0.00    -0.166 F 
ATOM     15  F   UNL A   1     -28.820   1.585  32.574  0.00  0.00    -0.166 F 
ENDBRANCH   9  12
BRANCH   5  16
ATOM     16  C   UNL A   1     -23.461   1.980  27.410  0.00  0.00    +0.372 C 
ATOM     17  O   UNL A   1     -22.326   1.695  27.791  0.00  0.00    -0.245 OA
ATOM     18  O   UNL A   1     -23.682   3.196  26.893  0.00  0.00    -0.245 OA
ENDBRANCH   5  16
TORSDOF 2
