MODEL 2282
MODEL 1
REMARK VINA RESULT:    -6.912      0.000      0.000
REMARK INTER + INTRA:          -7.977
REMARK INTER:                  -7.721
REMARK INTRA:                  -0.256
REMARK UNBOUND:                -0.256
REMARK  Name = No_2282-gen_results/8p0m/2024-11-26-14-13-15/
REMARK  2 active torsions:
REMARK  status: ('A' for Active; 'I' for Inactive)
REMARK    1  A    between atoms: C_5  and  C_12
REMARK    2  A    between atoms: C_9  and  C_10
REMARK                            x       y       z     vdW  Elec       q    Type
REMARK                         _______ _______ _______ _____ _____    ______ ____
ROOT
ATOM      1  C   UNL A   1     -30.948 -10.040  30.081  0.00  0.00    -0.004 A 
ATOM      2  C   UNL A   1     -30.111 -10.386  30.882  0.00  0.00    -0.019 A 
ATOM      3  C   UNL A   1     -29.187 -11.291  30.733  0.00  0.00    +0.031 A 
ATOM      4  C   UNL A   1     -28.172 -11.684  31.741  0.00  0.00    +0.183 C 
ATOM      5  C   UNL A   1     -28.190 -10.965  32.970  0.00  0.00    +0.165 C 
ATOM      6  C   UNL A   1     -29.124  -9.970  33.109  0.00  0.00    +0.024 C 
ATOM      7  C   UNL A   1     -30.024  -9.631  32.157  0.00  0.00    +0.028 C 
ATOM      8  C   UNL A   1     -30.463 -10.053  28.632  0.00  0.00    +0.004 A 
ATOM      9  C   UNL A   1     -29.813 -11.205  28.252  0.00  0.00    +0.071 A 
ATOM     10  C   UNL A   1     -29.025 -11.772  29.372  0.00  0.00    +0.006 A 
ATOM     11  O   UNL A   1     -27.276 -12.609  31.492  0.00  0.00    -0.291 OA
ENDROOT
BRANCH   9  12
ATOM     12  C   UNL A   1     -29.545 -11.531  26.953  0.00  0.00    +0.419 C 
ATOM     13  F   UNL A   1     -29.649 -10.849  26.198  0.00  0.00    -0.166 F 
ATOM     14  F   UNL A   1     -30.431 -12.623  26.652  0.00  0.00    -0.166 F 
ATOM     15  F   UNL A   1     -28.292 -12.137  26.922  0.00  0.00    -0.166 F 
ENDBRANCH   9  12
BRANCH   5  16
ATOM     16  C   UNL A   1     -27.309 -11.298  34.066  0.00  0.00    +0.372 C 
ATOM     17  O   UNL A   1     -27.283 -12.415  34.582  0.00  0.00    -0.245 OA
ATOM     18  O   UNL A   1     -26.842 -10.254  34.763  0.00  0.00    -0.245 OA
ENDBRANCH   5  16
TORSDOF 2
ENDMDL
ENDMDL
