MODEL 2283
MODEL 1
REMARK VINA RESULT:    -6.710      0.000      0.000
REMARK INTER + INTRA:          -7.203
REMARK INTER:                  -7.103
REMARK INTRA:                  -0.100
REMARK UNBOUND:                -0.100
REMARK  Name = No_2283-gen_results/8p0m/2024-11-26-14-13-15/
REMARK  1 active torsions:
REMARK  status: ('A' for Active; 'I' for Inactive)
REMARK    1  A    between atoms: C_3  and  C_12
REMARK                            x       y       z     vdW  Elec       q    Type
REMARK                         _______ _______ _______ _____ _____    ______ ____
ROOT
ATOM      1  O   UNL A   1     -26.732 -13.026  32.692  0.00  0.00    -0.273 OA
ATOM      2  C   UNL A   1     -27.299 -11.972  33.002  0.00  0.00    +0.251 C 
ATOM      3  C   UNL A   1     -28.355 -11.504  32.446  0.00  0.00    +0.105 C 
ATOM      4  N   UNL A   1     -26.848 -11.232  34.164  0.00  0.00    -0.160 NA
ATOM      5  C   UNL A   1     -29.028 -10.265  32.773  0.00  0.00    +0.044 C 
ATOM      6  C   UNL A   1     -27.586 -10.078  34.508  0.00  0.00    +0.154 A 
ATOM      7  C   UNL A   1     -28.583  -9.563  33.892  0.00  0.00    +0.031 A 
ATOM      8  C   UNL A   1     -29.184  -8.327  34.324  0.00  0.00    +0.099 A 
ATOM      9  N   UNL A   1     -28.648  -7.768  35.459  0.00  0.00    -0.223 NA
ATOM     10  N   UNL A   1     -27.113  -9.378  35.647  0.00  0.00    -0.207 NA
ATOM     11  C   UNL A   1     -27.696  -8.268  36.107  0.00  0.00    +0.200 A 
ENDROOT
BRANCH   3  12
ATOM     12  C   UNL A   1     -28.902 -12.296  31.282  0.00  0.00    -0.011 A 
ATOM     13  C   UNL A   1     -29.493 -13.255  31.398  0.00  0.00    -0.004 A 
ATOM     14  C   UNL A   1     -30.070 -14.056  30.275  0.00  0.00    +0.002 A 
ATOM     15  C   UNL A   1     -29.881 -13.486  29.011  0.00  0.00    +0.030 A 
ATOM     16  C   UNL A   1     -29.194 -12.325  28.876  0.00  0.00    +0.140 A 
ATOM     17  C   UNL A   1     -28.729 -11.611  29.983  0.00  0.00    +0.026 A 
ATOM     18  F   UNL A   1     -29.071 -11.762  27.675  0.00  0.00    -0.204 F 
ENDBRANCH   3  12
TORSDOF 1
ENDMDL
ENDMDL
