REMARK  Name = No_2283-gen_results/8p0m/2024-11-26-14-13-15/
REMARK  1 active torsions:
REMARK  status: ('A' for Active; 'I' for Inactive)
REMARK    1  A    between atoms: C_3  and  C_12
REMARK                            x       y       z     vdW  Elec       q    Type
REMARK                         _______ _______ _______ _____ _____    ______ ____
ROOT
ATOM      1  O   UNL A   1     -28.123  -1.335  28.487  0.00  0.00    -0.273 OA
ATOM      2  C   UNL A   1     -27.064  -0.824  28.869  0.00  0.00    +0.251 C 
ATOM      3  C   UNL A   1     -26.959   0.093  29.758  0.00  0.00    +0.105 C 
ATOM      4  N   UNL A   1     -25.801  -1.357  28.397  0.00  0.00    -0.160 NA
ATOM      5  C   UNL A   1     -25.737   0.724  30.210  0.00  0.00    +0.044 C 
ATOM      6  C   UNL A   1     -24.628  -0.779  28.930  0.00  0.00    +0.154 A 
ATOM      7  C   UNL A   1     -24.530   0.202  29.747  0.00  0.00    +0.031 A 
ATOM      8  C   UNL A   1     -23.251   0.736  30.139  0.00  0.00    +0.099 A 
ATOM      9  N   UNL A   1     -22.152   0.097  29.616  0.00  0.00    -0.223 NA
ATOM     10  N   UNL A   1     -23.413  -1.323  28.442  0.00  0.00    -0.207 NA
ATOM     11  C   UNL A   1     -22.215  -0.890  28.843  0.00  0.00    +0.200 A 
ENDROOT
BRANCH   3  12
ATOM     12  C   UNL A   1     -28.254   0.614  30.334  0.00  0.00    -0.011 A 
ATOM     13  C   UNL A   1     -28.883   0.044  31.083  0.00  0.00    -0.004 A 
ATOM     14  C   UNL A   1     -30.157   0.533  31.693  0.00  0.00    +0.002 A 
ATOM     15  C   UNL A   1     -30.511   1.832  31.311  0.00  0.00    +0.030 A 
ATOM     16  C   UNL A   1     -29.744   2.524  30.433  0.00  0.00    +0.140 A 
ATOM     17  C   UNL A   1     -28.538   2.013  29.946  0.00  0.00    +0.026 A 
ATOM     18  F   UNL A   1     -30.059   3.780  30.123  0.00  0.00    -0.204 F 
ENDBRANCH   3  12
TORSDOF 1
