MODEL 2284
MODEL 1
REMARK VINA RESULT:    -6.675      0.000      0.000
REMARK INTER + INTRA:          -7.686
REMARK INTER:                  -7.065
REMARK INTRA:                  -0.622
REMARK UNBOUND:                -0.622
REMARK  Name = No_2284-gen_results/8p0m/2024-11-26-14-13-15/
REMARK  1 active torsions:
REMARK  status: ('A' for Active; 'I' for Inactive)
REMARK    1  A    between atoms: C_3  and  C_7
REMARK                            x       y       z     vdW  Elec       q    Type
REMARK                         _______ _______ _______ _____ _____    ______ ____
ROOT
ATOM      1  C   UNL A   1     -24.231  -1.115  28.962  0.00  0.00    +0.038 A 
ATOM      2  C   UNL A   1     -23.546  -0.557  29.793  0.00  0.00    +0.060 A 
ATOM      3  C   UNL A   1     -23.192   0.871  29.627  0.00  0.00    +0.011 A 
ATOM      4  C   UNL A   1     -24.620  -0.462  27.770  0.00  0.00    +0.141 A 
ATOM      5  C   UNL A   1     -24.152   0.773  27.439  0.00  0.00    +0.030 A 
ATOM      6  C   UNL A   1     -23.438   1.479  28.450  0.00  0.00    +0.003 A 
ATOM      7  F   UNL A   1     -25.285  -1.096  26.789  0.00  0.00    -0.204 F 
ATOM      8 CL   UNL A   1     -23.185  -1.159  31.386  0.00  0.00    -0.082 Cl
ENDROOT
BRANCH   1  11
ATOM      9  C   UNL A   1     -25.997  -2.820  29.698  0.00  0.00    +0.011 A 
ATOM     10  C   UNL A   1     -26.278  -3.834  29.758  0.00  0.00    +0.058 A 
ATOM     11  C   UNL A   1     -24.736  -2.518  29.139  0.00  0.00    +0.004 A 
ATOM     12  C   UNL A   1     -23.880  -3.505  28.692  0.00  0.00    +0.000 A 
ATOM     13  C   UNL A   1     -25.565  -5.062  29.357  0.00  0.00    +0.011 A 
ATOM     14  C   UNL A   1     -24.351  -4.818  28.817  0.00  0.00    +0.001 A 
ATOM     15 CL   UNL A   1     -27.944  -4.124  30.401  0.00  0.00    -0.082 Cl
ENDBRANCH   1  11
TORSDOF 1
ENDMDL
ENDMDL
