REMARK  Name = No_2285-gen_results/8p0m/2024-11-26-14-13-15/
REMARK  1 active torsions:
REMARK  status: ('A' for Active; 'I' for Inactive)
REMARK    1  A    between atoms: C_5  and  C_14
REMARK                            x       y       z     vdW  Elec       q    Type
REMARK                         _______ _______ _______ _____ _____    ______ ____
ROOT
ATOM      1  C   UNL A   1     -28.016  -0.814  28.878  0.00  0.00    -0.000 A 
ATOM      2  C   UNL A   1     -27.064  -0.119  28.608  0.00  0.00    -0.000 A 
ATOM      3  C   UNL A   1     -26.972   0.714  27.506  0.00  0.00    +0.000 A 
ATOM      4  C   UNL A   1     -28.105   0.774  26.642  0.00  0.00    +0.004 A 
ATOM      5  C   UNL A   1     -29.204   0.118  27.048  0.00  0.00    +0.071 A 
ATOM      6  C   UNL A   1     -29.213  -0.609  28.128  0.00  0.00    +0.004 A 
ATOM      7  C   UNL A   1     -25.711   1.452  27.138  0.00  0.00    +0.003 A 
ATOM      8  C   UNL A   1     -24.605   0.925  27.690  0.00  0.00    +0.035 A 
ATOM      9  C   UNL A   1     -24.623   0.060  28.823  0.00  0.00    +0.004 A 
ATOM     10  C   UNL A   1     -25.727  -0.473  29.241  0.00  0.00    +0.000 A 
ATOM     11  C   UNL A   1     -23.272   1.677  27.438  0.00  0.00    +0.170 A 
ATOM     12  N   UNL A   1     -22.387   1.882  27.949  0.00  0.00    -0.226 NA
ATOM     13  N   UNL A   1     -23.267   2.232  26.064  0.00  0.00    -0.107 NA
ATOM     14  C   UNL A   1     -22.063   1.232  29.138  0.00  0.00    +0.100 A 
ATOM     15  C   UNL A   1     -23.406  -0.132  29.646  0.00  0.00    +0.021 A 
ENDROOT
BRANCH   5  16
ATOM     16  C   UNL A   1     -30.421   0.332  26.222  0.00  0.00    +0.419 C 
ATOM     17  F   UNL A   1     -30.330  -0.322  25.111  0.00  0.00    -0.166 F 
ATOM     18  F   UNL A   1     -30.635   1.610  25.935  0.00  0.00    -0.166 F 
ATOM     19  F   UNL A   1     -31.542  -0.115  26.800  0.00  0.00    -0.166 F 
ENDBRANCH   5  16
TORSDOF 1
