MODEL 2285
MODEL 1
REMARK VINA RESULT:    -7.564      0.000      0.000
REMARK INTER + INTRA:          -8.224
REMARK INTER:                  -8.006
REMARK INTRA:                  -0.218
REMARK UNBOUND:                -0.218
REMARK  Name = No_2285-gen_results/8p0m/2024-11-26-14-13-15/
REMARK  1 active torsions:
REMARK  status: ('A' for Active; 'I' for Inactive)
REMARK    1  A    between atoms: C_5  and  C_14
REMARK                            x       y       z     vdW  Elec       q    Type
REMARK                         _______ _______ _______ _____ _____    ______ ____
ROOT
ATOM      1  C   UNL A   1     -30.730  -9.983  29.415  0.00  0.00    -0.000 A 
ATOM      2  C   UNL A   1     -29.894 -10.238  30.250  0.00  0.00    -0.000 A 
ATOM      3  C   UNL A   1     -28.993 -11.287  30.182  0.00  0.00    +0.000 A 
ATOM      4  C   UNL A   1     -29.041 -12.109  29.017  0.00  0.00    +0.004 A 
ATOM      5  C   UNL A   1     -29.867 -11.710  28.036  0.00  0.00    +0.071 A 
ATOM      6  C   UNL A   1     -30.651 -10.679  28.171  0.00  0.00    +0.004 A 
ATOM      7  C   UNL A   1     -28.066 -11.647  31.313  0.00  0.00    +0.003 A 
ATOM      8  C   UNL A   1     -28.465 -11.166  32.503  0.00  0.00    +0.035 A 
ATOM      9  C   UNL A   1     -29.389 -10.091  32.650  0.00  0.00    +0.004 A 
ATOM     10  C   UNL A   1     -30.095  -9.673  31.648  0.00  0.00    +0.000 A 
ATOM     11  C   UNL A   1     -27.520 -11.412  33.708  0.00  0.00    +0.170 A 
ATOM     12  N   UNL A   1     -27.224 -10.918  34.577  0.00  0.00    -0.226 NA
ATOM     13  N   UNL A   1     -26.890 -12.747  33.581  0.00  0.00    -0.107 NA
ATOM     14  C   UNL A   1     -27.891  -9.784  35.035  0.00  0.00    +0.100 A 
ATOM     15  C   UNL A   1     -29.457  -9.321  33.915  0.00  0.00    +0.021 A 
ENDROOT
BRANCH   5  16
ATOM     16  C   UNL A   1     -29.777 -12.481  26.769  0.00  0.00    +0.419 C 
ATOM     17  F   UNL A   1     -29.626 -11.680  25.766  0.00  0.00    -0.166 F 
ATOM     18  F   UNL A   1     -30.847 -13.233  26.542  0.00  0.00    -0.166 F 
ATOM     19  F   UNL A   1     -28.724 -13.305  26.721  0.00  0.00    -0.166 F 
ENDBRANCH   5  16
TORSDOF 1
ENDMDL
ENDMDL
