MODEL 2286
MODEL 1
REMARK VINA RESULT:    -6.407      0.000      0.000
REMARK INTER + INTRA:          -8.028
REMARK INTER:                  -7.531
REMARK INTRA:                  -0.497
REMARK UNBOUND:                -0.497
REMARK  Name = No_2286-gen_results/8p0m/2024-11-26-14-13-15/
REMARK  3 active torsions:
REMARK  status: ('A' for Active; 'I' for Inactive)
REMARK    1  A    between atoms: C_4  and  C_5
REMARK    2  A    between atoms: C_8  and  C_9
REMARK    3  A    between atoms: C_10  and  C_11
REMARK                            x       y       z     vdW  Elec       q    Type
REMARK                         _______ _______ _______ _____ _____    ______ ____
ROOT
ATOM      1  C   UNL A   1     -24.329  -1.341  29.663  0.00  0.00    -0.000 C 
ATOM      2  C   UNL A   1     -23.768  -0.661  28.756  0.00  0.00    -0.000 C 
ENDROOT
BRANCH   1   6
ATOM      3  C   UNL A   1     -24.251  -4.921  28.631  0.00  0.00    +0.000 A 
ATOM      4  C   UNL A   1     -25.182  -5.231  29.015  0.00  0.00    +0.000 A 
ATOM      5  C   UNL A   1     -23.879  -3.561  28.896  0.00  0.00    +0.000 A 
ATOM      6  C   UNL A   1     -24.710  -2.671  29.446  0.00  0.00    +0.000 A 
ATOM      7  C   UNL A   1     -26.257  -4.506  29.645  0.00  0.00    +0.000 A 
ATOM      8  C   UNL A   1     -25.922  -3.158  29.877  0.00  0.00    +0.000 A 
ENDBRANCH   1   6
BRANCH   2   9
ATOM      9  C   UNL A   1     -23.714   0.152  28.161  0.00  0.00    -0.000 C 
ATOM     10  C   UNL A   1     -23.320   1.421  27.751  0.00  0.00    -0.000 C 
BRANCH  10  11
ATOM     11  C   UNL A   1     -22.543   1.671  26.656  0.00  0.00    -0.005 C 
ATOM     12  C   UNL A   1     -23.029   2.423  25.585  0.00  0.00    -0.026 C 
ATOM     13  C   UNL A   1     -24.171   3.197  25.792  0.00  0.00    +0.031 C 
ENDBRANCH  10  11
ENDBRANCH   2   9
TORSDOF 3
ENDMDL
ENDMDL
