REMARK  Name = No_2286-gen_results/8p0m/2024-11-26-14-13-15/
REMARK  3 active torsions:
REMARK  status: ('A' for Active; 'I' for Inactive)
REMARK    1  A    between atoms: C_4  and  C_5
REMARK    2  A    between atoms: C_8  and  C_9
REMARK    3  A    between atoms: C_10  and  C_11
REMARK                            x       y       z     vdW  Elec       q    Type
REMARK                         _______ _______ _______ _____ _____    ______ ____
ROOT
ATOM      1  C   UNL A   1     -29.199   2.457  27.540  0.00  0.00    -0.000 C 
ATOM      2  C   UNL A   1     -28.918   3.628  27.928  0.00  0.00    -0.000 C 
ENDROOT
BRANCH   1   6
ATOM      3  C   UNL A   1     -28.016  -0.814  28.878  0.00  0.00    +0.000 A 
ATOM      4  C   UNL A   1     -28.469  -0.785  29.829  0.00  0.00    +0.000 A 
ATOM      5  C   UNL A   1     -28.196   0.348  28.055  0.00  0.00    +0.000 A 
ATOM      6  C   UNL A   1     -29.019   1.350  28.378  0.00  0.00    +0.000 A 
ATOM      7  C   UNL A   1     -29.383   0.151  30.435  0.00  0.00    +0.000 A 
ATOM      8  C   UNL A   1     -29.601   1.280  29.623  0.00  0.00    +0.000 A 
ENDBRANCH   1   6
BRANCH   2   9
ATOM      9  C   UNL A   1     -28.431   4.505  27.821  0.00  0.00    -0.000 C 
ATOM     10  C   UNL A   1     -27.576   5.550  28.154  0.00  0.00    -0.000 C 
BRANCH  10  11
ATOM     11  C   UNL A   1     -26.427   5.851  27.480  0.00  0.00    -0.005 C 
ATOM     12  C   UNL A   1     -25.769   4.888  26.714  0.00  0.00    -0.026 C 
ATOM     13  C   UNL A   1     -26.471   3.734  26.366  0.00  0.00    +0.031 C 
ENDBRANCH  10  11
ENDBRANCH   2   9
TORSDOF 3
