MODEL 2287
MODEL 1
REMARK VINA RESULT:    -4.960      0.000      0.000
REMARK INTER + INTRA:          -5.373
REMARK INTER:                  -5.250
REMARK INTRA:                  -0.123
REMARK UNBOUND:                -0.123
REMARK  Name = No_2287-gen_results/8p0m/2024-11-26-14-13-15/
REMARK  1 active torsions:
REMARK  status: ('A' for Active; 'I' for Inactive)
REMARK    1  A    between atoms: C_2  and  C_7
REMARK                            x       y       z     vdW  Elec       q    Type
REMARK                         _______ _______ _______ _____ _____    ______ ____
ROOT
ATOM      1  C   UNL A   1     -25.682  -2.529  29.609  0.00  0.00    -0.000 A 
ATOM      2  C   UNL A   1     -24.543  -2.564  29.203  0.00  0.00    -0.000 A 
ATOM      3  C   UNL A   1     -23.941  -3.768  28.855  0.00  0.00    -0.000 A 
ATOM      4  C   UNL A   1     -24.639  -5.018  29.012  0.00  0.00    -0.000 A 
ATOM      5  C   UNL A   1     -25.942  -4.888  29.510  0.00  0.00    -0.000 A 
ATOM      6  C   UNL A   1     -26.460  -3.727  29.840  0.00  0.00    -0.000 A 
ENDROOT
BRANCH   2   7
ATOM      7  C   UNL A   1     -23.532  -1.470  28.863  0.00  0.00    -0.005 C 
ATOM      8  C   UNL A   1     -22.775  -0.889  29.633  0.00  0.00    -0.026 C 
ATOM      9  C   UNL A   1     -23.069  -0.896  31.097  0.00  0.00    +0.031 C 
ENDBRANCH   2   7
TORSDOF 1
ENDMDL
ENDMDL
