REMARK  Name = No_2288-gen_results/8p0m/2024-11-26-14-13-15/
REMARK  6 active torsions:
REMARK  status: ('A' for Active; 'I' for Inactive)
REMARK    1  A    between atoms: N_5  and  C_8
REMARK    2  A    between atoms: C_7  and  N_34
REMARK    3  A    between atoms: C_11  and  C_22
REMARK    4  A    between atoms: C_14  and  C_15
REMARK    5  A    between atoms: N_25  and  C_26
REMARK    6  A    between atoms: C_26  and  C_27
REMARK                            x       y       z     vdW  Elec       q    Type
REMARK                         _______ _______ _______ _____ _____    ______ ____
ROOT
ATOM      1  N   UNL A   1     -28.054  -1.050  28.725  0.00  0.00    -0.197 NA
ATOM      2  C   UNL A   1     -28.654  -0.567  29.508  0.00  0.00    +0.147 A 
ATOM      3  C   UNL A   1     -26.695  -1.322  29.024  0.00  0.00    +0.241 A 
ATOM      4  N   UNL A   1     -26.317  -1.062  30.312  0.00  0.00    -0.196 NA
ATOM      5  N   UNL A   1     -30.052  -0.283  29.192  0.00  0.00    -0.218 N 
ATOM      6  C   UNL A   1     -28.227  -0.292  30.878  0.00  0.00    +0.071 A 
ATOM      7  C   UNL A   1     -27.027  -0.512  31.218  0.00  0.00    +0.153 A 
ATOM      8  C   UNL A   1     -30.179   1.113  28.883  0.00  0.00    +0.258 C 
ATOM      9  O   UNL A   1     -30.356   2.082  29.624  0.00  0.00    -0.269 OA
ATOM     10  N   UNL A   1     -25.773  -1.761  28.166  0.00  0.00    -0.167 NA
ENDROOT
BRANCH   5  11
ATOM     11  C   UNL A   1     -31.072  -0.909  29.752  0.00  0.00    +0.060 A 
ATOM     12  C   UNL A   1     -31.099  -1.580  30.613  0.00  0.00    +0.015 A 
ATOM     13  C   UNL A   1     -32.273  -2.350  31.158  0.00  0.00    +0.008 A 
ATOM     14  C   UNL A   1     -33.438  -2.080  30.453  0.00  0.00    +0.080 A 
ATOM     15  C   UNL A   1     -32.363  -0.752  29.044  0.00  0.00    +0.015 A 
ATOM     16  C   UNL A   1     -33.461  -1.317  29.404  0.00  0.00    +0.008 A 
BRANCH  14  17
ATOM     17  C   UNL A   1     -34.709  -2.812  30.923  0.00  0.00    +0.388 C 
ATOM     18  O   UNL A   1     -35.605  -3.031  30.400  0.00  0.00    -0.241 OA
ATOM     19  O   UNL A   1     -34.761  -2.852  32.332  0.00  0.00    -0.241 OA
ENDBRANCH  14  17
ENDBRANCH   5  11
BRANCH   8  20
ATOM     20  C   UNL A   1     -30.253   1.325  27.462  0.00  0.00    +0.054 A 
ATOM     21  C   UNL A   1     -29.552   1.925  26.890  0.00  0.00    +0.004 A 
ATOM     22  C   UNL A   1     -29.503   1.976  25.444  0.00  0.00    +0.000 A 
ATOM     23  C   UNL A   1     -30.390   1.199  24.702  0.00  0.00    +0.000 A 
ATOM     24  C   UNL A   1     -31.018   0.406  26.541  0.00  0.00    +0.004 A 
ATOM     25  C   UNL A   1     -31.116   0.411  25.322  0.00  0.00    +0.000 A 
ENDBRANCH   8  20
BRANCH  10  26
ATOM     26  C   UNL A   1     -24.527  -2.110  28.679  0.00  0.00    +0.279 C 
ATOM     27  F   UNL A   1     -24.401  -3.392  28.842  0.00  0.00    -0.208 F 
BRANCH  26  28
ATOM     28  C   UNL A   1     -23.524  -1.304  28.754  0.00  0.00    +0.031 A 
ATOM     29  C   UNL A   1     -23.606   0.054  28.388  0.00  0.00    +0.000 A 
ATOM     30  C   UNL A   1     -22.431   0.897  28.434  0.00  0.00    -0.000 A 
ATOM     31  C   UNL A   1     -21.242   0.324  28.782  0.00  0.00    -0.000 A 
ATOM     32  C   UNL A   1     -21.129  -1.020  29.123  0.00  0.00    -0.000 A 
ATOM     33  C   UNL A   1     -22.211  -1.786  29.122  0.00  0.00    +0.000 A 
ENDBRANCH  26  28
ENDBRANCH  10  26
BRANCH   7  34
ATOM     34  N   UNL A   1     -26.538  -0.344  32.473  0.00  0.00    -0.218 NA
ATOM     35  C   UNL A   1     -25.988   0.849  32.927  0.00  0.00    +0.137 C 
ENDBRANCH   7  34
TORSDOF 6
