MODEL 2288
MODEL 1
REMARK VINA RESULT:    -7.586      0.000      0.000
REMARK INTER + INTRA:         -11.699
REMARK INTER:                 -10.247
REMARK INTRA:                  -1.452
REMARK UNBOUND:                -1.452
REMARK  Name = No_2288-gen_results/8p0m/2024-11-26-14-13-15/
REMARK  6 active torsions:
REMARK  status: ('A' for Active; 'I' for Inactive)
REMARK    1  A    between atoms: N_5  and  C_8
REMARK    2  A    between atoms: C_7  and  N_34
REMARK    3  A    between atoms: C_11  and  C_22
REMARK    4  A    between atoms: C_14  and  C_15
REMARK    5  A    between atoms: N_25  and  C_26
REMARK    6  A    between atoms: C_26  and  C_27
REMARK                            x       y       z     vdW  Elec       q    Type
REMARK                         _______ _______ _______ _____ _____    ______ ____
ROOT
ATOM      1  N   UNL A   1     -25.173 -16.660   6.840  0.00  0.00    -0.197 NA
ATOM      2  C   UNL A   1     -24.941 -17.319   5.992  0.00  0.00    +0.147 A 
ATOM      3  C   UNL A   1     -26.334 -16.962   7.597  0.00  0.00    +0.241 A 
ATOM      4  N   UNL A   1     -26.967 -18.125   7.256  0.00  0.00    -0.196 NA
ATOM      5  N   UNL A   1     -23.747 -16.999   5.212  0.00  0.00    -0.218 N 
ATOM      6  C   UNL A   1     -25.636 -18.555   5.642  0.00  0.00    +0.071 A 
ATOM      7  C   UNL A   1     -26.680 -18.890   6.276  0.00  0.00    +0.153 A 
ATOM      8  C   UNL A   1     -24.152 -16.351   3.997  0.00  0.00    +0.258 C 
ATOM      9  O   UNL A   1     -24.492 -16.827   2.913  0.00  0.00    -0.269 OA
ATOM     10  N   UNL A   1     -26.864 -16.207   8.560  0.00  0.00    -0.167 NA
ENDROOT
BRANCH   5  11
ATOM     11  C   UNL A   1     -22.654 -17.742   5.206  0.00  0.00    +0.060 A 
ATOM     12  C   UNL A   1     -22.363 -18.559   4.544  0.00  0.00    +0.015 A 
ATOM     13  C   UNL A   1     -21.148 -19.445   4.635  0.00  0.00    +0.008 A 
ATOM     14  C   UNL A   1     -20.322 -19.079   5.690  0.00  0.00    +0.080 A 
ATOM     15  C   UNL A   1     -21.725 -17.490   6.331  0.00  0.00    +0.015 A 
ATOM     16  C   UNL A   1     -20.631 -18.138   6.527  0.00  0.00    +0.008 A 
BRANCH  14  17
ATOM     17  C   UNL A   1     -19.043 -19.916   5.881  0.00  0.00    +0.388 C 
ATOM     18  O   UNL A   1     -18.029 -19.611   5.938  0.00  0.00    -0.241 OA
ATOM     19  O   UNL A   1     -19.292 -21.271   5.577  0.00  0.00    -0.241 OA
ENDBRANCH  14  17
ENDBRANCH   5  11
BRANCH   8  20
ATOM     20  C   UNL A   1     -23.965 -14.927   4.082  0.00  0.00    +0.054 A 
ATOM     21  C   UNL A   1     -24.765 -14.195   4.034  0.00  0.00    +0.004 A 
ATOM     22  C   UNL A   1     -24.607 -12.785   4.320  0.00  0.00    +0.000 A 
ATOM     23  C   UNL A   1     -23.359 -12.301   4.707  0.00  0.00    +0.000 A 
ATOM     24  C   UNL A   1     -22.730 -14.303   4.686  0.00  0.00    +0.004 A 
ATOM     25  C   UNL A   1     -22.458 -13.129   4.893  0.00  0.00    +0.000 A 
ENDBRANCH   8  20
BRANCH  10  26
ATOM     26  C   UNL A   1     -27.922 -16.740   9.290  0.00  0.00    +0.279 C 
ATOM     27  F   UNL A   1     -27.535 -17.654  10.126  0.00  0.00    -0.208 F 
BRANCH  26  28
ATOM     28  C   UNL A   1     -29.105 -16.230   9.326  0.00  0.00    +0.031 A 
ATOM     29  C   UNL A   1     -29.713 -15.794  10.520  0.00  0.00    +0.000 A 
ATOM     30  C   UNL A   1     -31.069 -15.287  10.509  0.00  0.00    -0.000 A 
ATOM     31  C   UNL A   1     -31.750 -15.301   9.327  0.00  0.00    -0.000 A 
ATOM     32  C   UNL A   1     -31.182 -15.750   8.139  0.00  0.00    -0.000 A 
ATOM     33  C   UNL A   1     -29.927 -16.176   8.137  0.00  0.00    +0.000 A 
ENDBRANCH  26  28
ENDBRANCH  10  26
BRANCH   7  34
ATOM     34  N   UNL A   1     -27.372 -20.039   6.070  0.00  0.00    -0.218 NA
ATOM     35  C   UNL A   1     -28.056 -20.712   7.076  0.00  0.00    +0.137 C 
ENDBRANCH   7  34
TORSDOF 6
ENDMDL
ENDMDL
