REMARK  Name = No_2289-gen_results/8p0m/2024-11-26-14-13-15/
REMARK  4 active torsions:
REMARK  status: ('A' for Active; 'I' for Inactive)
REMARK    1  A    between atoms: C_1  and  C_2
REMARK    2  A    between atoms: C_1  and  C_8
REMARK    3  A    between atoms: C_5  and  C_11
REMARK    4  A    between atoms: N_16  and  C_18
REMARK                            x       y       z     vdW  Elec       q    Type
REMARK                         _______ _______ _______ _____ _____    ______ ____
ROOT
ATOM      1  C   UNL A   1     -28.016  -0.814  28.878  0.00  0.00    +0.051 C 
ENDROOT
BRANCH   1   2
ATOM      2  C   UNL A   1     -29.225  -0.047  29.280  0.00  0.00    +0.100 C 
ATOM      3  C   UNL A   1     -30.313  -0.827  29.761  0.00  0.00    -0.006 C 
ATOM      4  C   UNL A   1     -30.525  -0.879  30.975  0.00  0.00    -0.003 C 
ATOM      5  C   UNL A   1     -30.098   0.212  31.842  0.00  0.00    -0.003 C 
ATOM      6  C   UNL A   1     -29.377   1.229  31.301  0.00  0.00    -0.005 C 
ATOM      7  N   UNL A   1     -29.487   1.157  28.752  0.00  0.00    -0.300 N 
ATOM      8  C   UNL A   1     -29.244   1.836  30.158  0.00  0.00    +0.118 C 
BRANCH   7   9
ATOM      9  C   UNL A   1     -29.927   1.627  27.725  0.00  0.00    +0.062 C 
ATOM     10  C   UNL A   1     -29.787   2.963  27.648  0.00  0.00    +0.017 C 
ENDBRANCH   7   9
ENDBRANCH   1   2
BRANCH   1  11
ATOM     11  C   UNL A   1     -27.064  -0.119  28.608  0.00  0.00    -0.020 A 
ATOM     12  C   UNL A   1     -27.001   0.691  27.491  0.00  0.00    -0.004 A 
ATOM     13  C   UNL A   1     -25.855   1.482  27.083  0.00  0.00    +0.004 A 
ATOM     14  C   UNL A   1     -24.690   1.453  27.881  0.00  0.00    +0.057 A 
ATOM     15  C   UNL A   1     -24.738   0.601  29.042  0.00  0.00    +0.004 A 
ATOM     16  C   UNL A   1     -25.823  -0.169  29.389  0.00  0.00    -0.004 A 
BRANCH  14  17
ATOM     17  C   UNL A   1     -23.515   2.203  27.544  0.00  0.00    +0.284 C 
ATOM     18  N   UNL A   1     -22.501   2.175  28.354  0.00  0.00    -0.084 NA
ATOM     19  O   UNL A   1     -23.317   2.592  26.320  0.00  0.00    -0.267 OA
ENDBRANCH  14  17
ENDBRANCH   1  11
TORSDOF 4
