MODEL 2289
MODEL 1
REMARK VINA RESULT:    -5.500      0.000      0.000
REMARK INTER + INTRA:          -7.814
REMARK INTER:                  -6.786
REMARK INTRA:                  -1.028
REMARK UNBOUND:                -1.028
REMARK  Name = No_2289-gen_results/8p0m/2024-11-26-14-13-15/
REMARK  4 active torsions:
REMARK  status: ('A' for Active; 'I' for Inactive)
REMARK    1  A    between atoms: C_1  and  C_2
REMARK    2  A    between atoms: C_1  and  C_8
REMARK    3  A    between atoms: C_5  and  C_11
REMARK    4  A    between atoms: N_16  and  C_18
REMARK                            x       y       z     vdW  Elec       q    Type
REMARK                         _______ _______ _______ _____ _____    ______ ____
ROOT
ATOM      1  C   UNL A   1     -16.994 -22.937   5.624  0.00  0.00    +0.051 C 
ENDROOT
BRANCH   1   2
ATOM      2  C   UNL A   1     -16.642 -23.692   6.856  0.00  0.00    +0.100 C 
ATOM      3  C   UNL A   1     -15.286 -23.587   7.272  0.00  0.00    -0.006 C 
ATOM      4  C   UNL A   1     -15.002 -22.847   8.217  0.00  0.00    -0.003 C 
ATOM      5  C   UNL A   1     -16.000 -22.538   9.233  0.00  0.00    -0.003 C 
ATOM      6  C   UNL A   1     -17.267 -22.999   9.062  0.00  0.00    -0.005 C 
ATOM      7  N   UNL A   1     -17.342 -24.773   7.228  0.00  0.00    -0.300 N 
ATOM      8  C   UNL A   1     -17.878 -24.000   8.498  0.00  0.00    +0.118 C 
BRANCH   7   9
ATOM      9  C   UNL A   1     -17.442 -25.943   6.929  0.00  0.00    +0.062 C 
ATOM     10  C   UNL A   1     -18.563 -26.223   6.240  0.00  0.00    +0.017 C 
ENDBRANCH   7   9
ENDBRANCH   1   2
BRANCH   1  11
ATOM     11  C   UNL A   1     -17.789 -22.045   5.808  0.00  0.00    -0.020 A 
ATOM     12  C   UNL A   1     -19.129 -22.137   5.486  0.00  0.00    -0.004 A 
ATOM     13  C   UNL A   1     -20.106 -21.072   5.614  0.00  0.00    +0.004 A 
ATOM     14  C   UNL A   1     -19.685 -19.822   6.121  0.00  0.00    +0.057 A 
ATOM     15  C   UNL A   1     -18.287 -19.709   6.448  0.00  0.00    +0.004 A 
ATOM     16  C   UNL A   1     -17.372 -20.721   6.283  0.00  0.00    -0.004 A 
BRANCH  14  17
ATOM     17  C   UNL A   1     -20.588 -18.718   6.275  0.00  0.00    +0.284 C 
ATOM     18  N   UNL A   1     -21.514 -18.789   7.181  0.00  0.00    -0.084 NA
ATOM     19  O   UNL A   1     -20.278 -17.550   5.799  0.00  0.00    -0.267 OA
ENDBRANCH  14  17
ENDBRANCH   1  11
TORSDOF 4
ENDMDL
ENDMDL
