MODEL 228
MODEL 1
REMARK VINA RESULT:    -6.574      0.000      0.000
REMARK INTER + INTRA:          -7.613
REMARK INTER:                  -7.343
REMARK INTRA:                  -0.270
REMARK UNBOUND:                -0.270
REMARK  Name = No_228-gen_results/8p0m/2024-11-26-14-13-15/
REMARK  2 active torsions:
REMARK  status: ('A' for Active; 'I' for Inactive)
REMARK    1  A    between atoms: C_3  and  C_5
REMARK    2  A    between atoms: C_7  and  C_14
REMARK                            x       y       z     vdW  Elec       q    Type
REMARK                         _______ _______ _______ _____ _____    ______ ____
ROOT
ATOM      1  O   UNL A   1     -30.918  -9.822  30.053  0.00  0.00    -0.273 OA
ATOM      2  C   UNL A   1     -30.075 -10.321  30.808  0.00  0.00    +0.245 C 
ATOM      3  C   UNL A   1     -29.254 -11.252  30.493  0.00  0.00    +0.101 C 
ATOM      4  N   UNL A   1     -29.874  -9.756  32.128  0.00  0.00    -0.205 NA
ATOM      5  C   UNL A   1     -28.931 -10.160  33.061  0.00  0.00    +0.126 C 
ATOM      6  C   UNL A   1     -28.161 -11.218  32.765  0.00  0.00    +0.126 C 
ATOM      7  C   UNL A   1     -28.238 -11.807  31.560  0.00  0.00    +0.027 C 
ENDROOT
BRANCH   3   8
ATOM      8  C   UNL A   1     -29.239 -12.003  29.467  0.00  0.00    -0.014 A 
ATOM      9  C   UNL A   1     -28.935 -11.586  28.318  0.00  0.00    -0.004 A 
ATOM     10  C   UNL A   1     -29.020 -12.359  27.020  0.00  0.00    -0.000 A 
ATOM     11  C   UNL A   1     -29.663 -13.590  27.165  0.00  0.00    -0.000 A 
ATOM     12  C   UNL A   1     -30.110 -13.996  28.391  0.00  0.00    -0.000 A 
ATOM     13  C   UNL A   1     -29.922 -13.241  29.571  0.00  0.00    -0.004 A 
ENDBRANCH   3   8
BRANCH   6  14
ATOM     14  C   UNL A   1     -27.136 -11.606  33.800  0.00  0.00    +0.366 C 
ATOM     15  O   UNL A   1     -26.737 -12.748  33.660  0.00  0.00    -0.246 OA
ATOM     16  O   UNL A   1     -26.703 -10.898  34.723  0.00  0.00    -0.246 OA
ENDBRANCH   6  14
TORSDOF 2
ENDMDL
ENDMDL
