REMARK  Name = No_229-gen_results/8p0m/2024-11-26-14-13-15/
REMARK  9 active torsions:
REMARK  status: ('A' for Active; 'I' for Inactive)
REMARK    1  A    between atoms: C_1  and  O_15
REMARK    2  A    between atoms: C_10  and  C_12
REMARK    3  A    between atoms: O_15  and  C_16
REMARK    4  A    between atoms: C_16  and  C_17
REMARK    5  A    between atoms: C_17  and  C_18
REMARK    6  A    between atoms: C_20  and  C_29
REMARK    7  A    between atoms: C_22  and  C_24
REMARK    8  A    between atoms: C_29  and  O_31
REMARK    9  A    between atoms: O_31  and  C_32
REMARK                            x       y       z     vdW  Elec       q    Type
REMARK                         _______ _______ _______ _____ _____    ______ ____
ROOT
ATOM      1  C   UNL A   1     -28.977  -2.942  31.659  0.00  0.00    +0.218 C 
ATOM      2  O   UNL A   1     -28.504  -4.265  31.899  0.00  0.00    -0.214 OA
ENDROOT
BRANCH   1   3
ATOM      3  C   UNL A   1     -30.301  -2.679  32.140  0.00  0.00    +0.018 A 
ATOM      4  C   UNL A   1     -31.105  -3.562  32.097  0.00  0.00    +0.005 A 
ATOM      5  C   UNL A   1     -32.509  -3.405  32.538  0.00  0.00    +0.076 A 
ATOM      6  C   UNL A   1     -32.805  -2.161  33.154  0.00  0.00    +0.013 A 
ATOM      7  C   UNL A   1     -31.861  -1.183  33.246  0.00  0.00    +0.086 A 
ATOM      8  C   UNL A   1     -30.559  -1.402  32.787  0.00  0.00    +0.039 A 
ATOM      9 BR   UNL A   1     -29.075  -0.296  33.102  0.00  0.00    -0.049 Br
BRANCH   7  10
ATOM     10  C   UNL A   1     -32.172   0.132  33.886  0.00  0.00    +0.388 C 
ATOM     11  O   UNL A   1     -31.896   1.056  33.541  0.00  0.00    -0.240 OA
ATOM     12  O   UNL A   1     -32.859  -0.056  35.039  0.00  0.00    -0.240 OA
ENDBRANCH   7  10
BRANCH   5  13
ATOM     13  C   UNL A   1     -33.494  -4.400  32.345  0.00  0.00    +0.346 C 
ATOM     14  O   UNL A   1     -34.474  -4.579  32.724  0.00  0.00    -0.244 OA
BRANCH  13  15
ATOM     15  O   UNL A   1     -32.966  -5.465  31.689  0.00  0.00    -0.418 OA
BRANCH  15  16
ATOM     16  C   UNL A   1     -33.604  -6.015  30.645  0.00  0.00    +0.178 C 
ATOM     17  C   UNL A   1     -33.987  -5.764  29.694  0.00  0.00    +0.015 C 
ATOM     18  C   UNL A   1     -34.566  -6.519  28.649  0.00  0.00    +0.034 C 
ENDBRANCH  15  16
ENDBRANCH  13  15
ENDBRANCH   5  13
ENDBRANCH   1   3
BRANCH   1  19
ATOM     19  C   UNL A   1     -28.891  -2.648  30.182  0.00  0.00    +0.243 C 
BRANCH  19  20
ATOM     20  O   UNL A   1     -28.040  -1.603  30.014  0.00  0.00    -0.472 OA
BRANCH  20  21
ATOM     21  C   UNL A   1     -28.016  -0.814  28.878  0.00  0.00    +0.139 A 
ATOM     22  C   UNL A   1     -27.064  -0.119  28.608  0.00  0.00    +0.034 A 
ATOM     23  C   UNL A   1     -27.001   0.691  27.491  0.00  0.00    +0.004 A 
ATOM     24  C   UNL A   1     -28.137   0.736  26.635  0.00  0.00    +0.012 A 
ATOM     25  C   UNL A   1     -29.236   0.076  27.069  0.00  0.00    +0.061 A 
ATOM     26  C   UNL A   1     -29.218  -0.643  28.175  0.00  0.00    +0.048 A 
ATOM     27 CL   UNL A   1     -30.612   0.165  26.071  0.00  0.00    -0.082 Cl
ATOM     28  C   UNL A   1     -25.620  -0.121  29.233  0.00  0.00    +0.003 A 
ATOM     29  C   UNL A   1     -24.626   0.518  28.834  0.00  0.00    +0.005 A 
ATOM     30  C   UNL A   1     -24.705   1.358  27.676  0.00  0.00    +0.057 A 
ATOM     31  C   UNL A   1     -25.807   1.413  26.975  0.00  0.00    +0.005 A 
BRANCH  30  32
ATOM     32  C   UNL A   1     -23.477   2.129  27.290  0.00  0.00    +0.284 C 
ATOM     33  N   UNL A   1     -22.746   2.622  28.244  0.00  0.00    -0.084 NA
ATOM     34  O   UNL A   1     -23.283   2.470  26.090  0.00  0.00    -0.267 OA
ENDBRANCH  30  32
ENDBRANCH  20  21
ENDBRANCH  19  20
ENDBRANCH   1  19
TORSDOF 9
