MODEL 2290
MODEL 1
REMARK VINA RESULT:    -5.511      0.000      0.000
REMARK INTER + INTRA:          -7.800
REMARK INTER:                  -7.122
REMARK INTRA:                  -0.678
REMARK UNBOUND:                -0.678
REMARK  Name = No_2290-gen_results/8p0m/2024-11-26-14-13-15/
REMARK  5 active torsions:
REMARK  status: ('A' for Active; 'I' for Inactive)
REMARK    1  A    between atoms: C_1  and  C_2
REMARK    2  A    between atoms: C_1  and  N_8
REMARK    3  A    between atoms: C_5  and  C_12
REMARK    4  A    between atoms: C_9  and  C_10
REMARK    5  A    between atoms: C_15  and  N_16
REMARK                            x       y       z     vdW  Elec       q    Type
REMARK                         _______ _______ _______ _____ _____    ______ ____
ROOT
ATOM      1  C   UNL A   1     -18.535 -20.979   6.389  0.00  0.00    -0.001 A 
ATOM      2  C   UNL A   1     -17.152 -20.840   6.415  0.00  0.00    -0.002 A 
ATOM      3  C   UNL A   1     -16.227 -21.431   7.425  0.00  0.00    +0.006 A 
ATOM      4  C   UNL A   1     -16.846 -22.062   8.544  0.00  0.00    +0.080 A 
ATOM      5  C   UNL A   1     -18.253 -22.140   8.527  0.00  0.00    +0.006 A 
ATOM      6  C   UNL A   1     -19.031 -21.633   7.559  0.00  0.00    -0.002 A 
ENDROOT
BRANCH   4   7
ATOM      7  C   UNL A   1     -15.976 -22.606   9.563  0.00  0.00    +0.388 C 
ATOM      8  O   UNL A   1     -16.364 -23.292  10.536  0.00  0.00    -0.241 OA
ATOM      9  O   UNL A   1     -14.706 -22.296   9.470  0.00  0.00    -0.241 OA
ENDBRANCH   4   7
BRANCH   1  10
ATOM     10  C   UNL A   1     -19.198 -20.465   5.518  0.00  0.00    +0.142 C 
BRANCH  10  11
ATOM     11  N   UNL A   1     -19.558 -19.125   5.712  0.00  0.00    -0.197 NA
ATOM     12  C   UNL A   1     -20.353 -18.522   5.859  0.00  0.00    +0.267 C 
ATOM     13  O   UNL A   1     -20.460 -17.193   6.078  0.00  0.00    -0.268 OA
BRANCH  12  14
ATOM     14  C   UNL A   1     -21.657 -19.088   5.747  0.00  0.00    +0.077 C 
ATOM     15  C   UNL A   1     -22.372 -19.302   6.887  0.00  0.00    +0.085 C 
BRANCH  15  16
ATOM     16  N   UNL A   1     -22.168 -19.523   7.921  0.00  0.00    -0.234 NA
ATOM     17  C   UNL A   1     -22.436 -20.619   8.724  0.00  0.00    +0.136 C 
ENDBRANCH  15  16
ENDBRANCH  12  14
ENDBRANCH  10  11
ENDBRANCH   1  10
TORSDOF 5
ENDMDL
ENDMDL
