REMARK  Name = No_2290-gen_results/8p0m/2024-11-26-14-13-15/
REMARK  5 active torsions:
REMARK  status: ('A' for Active; 'I' for Inactive)
REMARK    1  A    between atoms: C_1  and  C_2
REMARK    2  A    between atoms: C_1  and  N_8
REMARK    3  A    between atoms: C_5  and  C_12
REMARK    4  A    between atoms: C_9  and  C_10
REMARK    5  A    between atoms: C_15  and  N_16
REMARK                            x       y       z     vdW  Elec       q    Type
REMARK                         _______ _______ _______ _____ _____    ______ ____
ROOT
ATOM      1  C   UNL A   1     -27.064  -0.119  28.608  0.00  0.00    -0.001 A 
ATOM      2  C   UNL A   1     -25.792  -0.430  29.076  0.00  0.00    -0.002 A 
ATOM      3  C   UNL A   1     -24.546   0.349  28.823  0.00  0.00    +0.006 A 
ATOM      4  C   UNL A   1     -24.659   1.420  27.888  0.00  0.00    +0.080 A 
ATOM      5  C   UNL A   1     -25.947   1.681  27.379  0.00  0.00    +0.006 A 
ATOM      6  C   UNL A   1     -27.044   0.974  27.687  0.00  0.00    -0.002 A 
ENDROOT
BRANCH   4   7
ATOM      7  C   UNL A   1     -23.458   2.167  27.588  0.00  0.00    +0.388 C 
ATOM      8  O   UNL A   1     -22.323   1.901  28.045  0.00  0.00    -0.241 OA
ATOM      9  O   UNL A   1     -23.605   3.226  26.830  0.00  0.00    -0.241 OA
ENDBRANCH   4   7
BRANCH   1  10
ATOM     10  C   UNL A   1     -28.016  -0.814  28.878  0.00  0.00    +0.142 C 
BRANCH  10  11
ATOM     11  N   UNL A   1     -28.657  -0.553  30.096  0.00  0.00    -0.197 NA
ATOM     12  C   UNL A   1     -29.565  -0.526  30.535  0.00  0.00    +0.267 C 
ATOM     13  O   UNL A   1     -29.957  -0.278  31.804  0.00  0.00    -0.268 OA
BRANCH  12  14
ATOM     14  C   UNL A   1     -30.716  -0.689  29.709  0.00  0.00    +0.077 C 
ATOM     15  C   UNL A   1     -31.712  -1.515  30.138  0.00  0.00    +0.085 C 
BRANCH  15  16
ATOM     16  N   UNL A   1     -31.801  -2.398  30.748  0.00  0.00    -0.234 NA
ATOM     17  C   UNL A   1     -32.868  -3.218  31.074  0.00  0.00    +0.136 C 
ENDBRANCH  15  16
ENDBRANCH  12  14
ENDBRANCH  10  11
ENDBRANCH   1  10
TORSDOF 5
