MODEL 2291
MODEL 1
REMARK VINA RESULT:    -4.287      0.000      0.000
REMARK INTER + INTRA:          -4.287
REMARK INTER:                  -4.287
REMARK INTRA:                   0.000
REMARK UNBOUND:                 0.000
REMARK  Name = No_2291-gen_results/8p0m/2024-11-26-14-13-15/
REMARK  0 active torsions:
REMARK  status: ('A' for Active; 'I' for Inactive)
REMARK                            x       y       z     vdW  Elec       q    Type
REMARK                         _______ _______ _______ _____ _____    ______ ____
ROOT
ATOM      1  C   UNL A   1     -24.993  -5.422  29.002  0.00  0.00    +0.000 A 
ATOM      2  C   UNL A   1     -24.208  -4.767  28.747  0.00  0.00    +0.000 A 
ATOM      3  C   UNL A   1     -26.138  -4.751  29.617  0.00  0.00    +0.000 A 
ATOM      4  C   UNL A   1     -26.169  -3.392  29.814  0.00  0.00    +0.000 A 
ATOM      5  C   UNL A   1     -23.970  -3.326  28.830  0.00  0.00    +0.000 A 
ATOM      6  C   UNL A   1     -25.072  -2.667  29.424  0.00  0.00    +0.000 A 
ENDROOT
TORSDOF 0
ENDMDL
ENDMDL
