MODEL 2292
MODEL 1
REMARK VINA RESULT:    -5.164      0.000      0.000
REMARK INTER + INTRA:          -5.577
REMARK INTER:                  -5.466
REMARK INTRA:                  -0.111
REMARK UNBOUND:                -0.111
REMARK  Name = No_2292-gen_results/8p0m/2024-11-26-14-13-15/
REMARK  1 active torsions:
REMARK  status: ('A' for Active; 'I' for Inactive)
REMARK    1  A    between atoms: C_2  and  N_7
REMARK                            x       y       z     vdW  Elec       q    Type
REMARK                         _______ _______ _______ _____ _____    ______ ____
ROOT
ATOM      1  C   UNL A   1     -25.228  -2.547  29.692  0.00  0.00    +0.019 A 
ATOM      2  C   UNL A   1     -24.175  -2.902  29.216  0.00  0.00    +0.081 A 
ATOM      3  C   UNL A   1     -23.981  -4.214  28.800  0.00  0.00    +0.019 A 
ATOM      4  C   UNL A   1     -25.014  -5.204  28.965  0.00  0.00    +0.002 A 
ATOM      5  C   UNL A   1     -26.190  -4.714  29.546  0.00  0.00    +0.000 A 
ATOM      6  C   UNL A   1     -26.317  -3.466  29.938  0.00  0.00    +0.002 A 
ENDROOT
BRANCH   2   7
ATOM      7  N   UNL A   1     -23.062  -2.080  29.020  0.00  0.00    -0.248 NA
ATOM      8  C   UNL A   1     -22.807  -1.120  29.238  0.00  0.00    +0.073 C 
ATOM      9  C   UNL A   1     -21.562  -0.373  28.794  0.00  0.00    +0.053 C 
ENDBRANCH   2   7
TORSDOF 1
ENDMDL
ENDMDL
