MODEL 2293
MODEL 1
REMARK VINA RESULT:    -4.283      0.000      0.000
REMARK INTER + INTRA:          -4.283
REMARK INTER:                  -4.283
REMARK INTRA:                   0.000
REMARK UNBOUND:                 0.000
REMARK  Name = No_2293-gen_results/8p0m/2024-11-26-14-13-15/
REMARK  0 active torsions:
REMARK  status: ('A' for Active; 'I' for Inactive)
REMARK                            x       y       z     vdW  Elec       q    Type
REMARK                         _______ _______ _______ _____ _____    ______ ____
ROOT
ATOM      1  C   UNL A   1     -24.189  -4.974  28.665  0.00  0.00    +0.000 A 
ATOM      2  C   UNL A   1     -25.103  -5.305  29.072  0.00  0.00    +0.000 A 
ATOM      3  C   UNL A   1     -24.022  -3.521  28.705  0.00  0.00    +0.000 A 
ATOM      4  C   UNL A   1     -24.973  -2.692  29.246  0.00  0.00    +0.000 A 
ATOM      5  C   UNL A   1     -26.264  -4.676  29.701  0.00  0.00    +0.000 A 
ATOM      6  C   UNL A   1     -26.112  -3.269  29.745  0.00  0.00    +0.000 A 
ENDROOT
TORSDOF 0
ENDMDL
ENDMDL
