REMARK  Name = No_2294-gen_results/8p0m/2024-11-26-14-13-15/
REMARK  1 active torsions:
REMARK  status: ('A' for Active; 'I' for Inactive)
REMARK    1  A    between atoms: C_2  and  C_3
REMARK                            x       y       z     vdW  Elec       q    Type
REMARK                         _______ _______ _______ _____ _____    ______ ____
ROOT
ATOM      1  O   UNL A   1     -28.123  -1.335  28.487  0.00  0.00    -0.269 OA
ATOM      2  C   UNL A   1     -27.481  -0.404  28.709  0.00  0.00    +0.257 C 
ATOM      3  N   UNL A   1     -27.666   0.447  29.899  0.00  0.00    -0.231 N 
ATOM      4  C   UNL A   1     -28.786   0.153  30.787  0.00  0.00    +0.072 C 
ATOM      5  C   UNL A   1     -29.571   0.949  30.885  0.00  0.00    +0.017 C 
ATOM      6  C   UNL A   1     -29.495   2.266  30.336  0.00  0.00    +0.001 C 
ATOM      7  C   UNL A   1     -28.253   2.624  29.830  0.00  0.00    +0.001 C 
ATOM      8  C   UNL A   1     -26.677   1.199  30.385  0.00  0.00    +0.072 C 
ATOM      9  C   UNL A   1     -26.916   2.370  30.841  0.00  0.00    +0.017 C 
ENDROOT
BRANCH   2  10
ATOM     10  C   UNL A   1     -26.380  -0.087  27.939  0.00  0.00    +0.054 A 
ATOM     11  C   UNL A   1     -26.409   0.857  26.880  0.00  0.00    +0.000 A 
ATOM     12  C   UNL A   1     -25.247   1.120  26.110  0.00  0.00    -0.022 A 
ATOM     13  C   UNL A   1     -25.261   1.970  25.063  0.00  0.00    +0.031 C 
ATOM     14  C   UNL A   1     -25.060  -0.716  28.166  0.00  0.00    +0.004 A 
ATOM     15  C   UNL A   1     -23.902  -0.322  27.472  0.00  0.00    -0.000 A 
ATOM     16  C   UNL A   1     -23.954   0.527  26.489  0.00  0.00    -0.004 A 
ENDBRANCH   2  10
TORSDOF 1
