MODEL 2294
MODEL 1
REMARK VINA RESULT:    -6.536      0.000      0.000
REMARK INTER + INTRA:          -7.114
REMARK INTER:                  -6.918
REMARK INTRA:                  -0.196
REMARK UNBOUND:                -0.196
REMARK  Name = No_2294-gen_results/8p0m/2024-11-26-14-13-15/
REMARK  1 active torsions:
REMARK  status: ('A' for Active; 'I' for Inactive)
REMARK    1  A    between atoms: C_2  and  C_3
REMARK                            x       y       z     vdW  Elec       q    Type
REMARK                         _______ _______ _______ _____ _____    ______ ____
ROOT
ATOM      1  O   UNL A   1     -21.728  -1.192  29.039  0.00  0.00    -0.269 OA
ATOM      2  C   UNL A   1     -22.545  -0.384  29.131  0.00  0.00    +0.257 C 
ATOM      3  N   UNL A   1     -23.096   0.073  30.420  0.00  0.00    -0.231 N 
ATOM      4  C   UNL A   1     -22.657  -0.607  31.634  0.00  0.00    +0.072 C 
ATOM      5  C   UNL A   1     -23.447  -1.150  32.218  0.00  0.00    +0.017 C 
ATOM      6  C   UNL A   1     -24.851  -1.113  31.956  0.00  0.00    +0.001 C 
ATOM      7  C   UNL A   1     -25.254  -0.156  31.036  0.00  0.00    +0.001 C 
ATOM      8  C   UNL A   1     -23.658   1.275  30.557  0.00  0.00    +0.072 C 
ATOM      9  C   UNL A   1     -24.698   1.426  31.287  0.00  0.00    +0.017 C 
ENDROOT
BRANCH   2  10
ATOM     10  C   UNL A   1     -22.979   0.330  28.032  0.00  0.00    +0.054 A 
ATOM     11  C   UNL A   1     -24.184   0.047  27.338  0.00  0.00    +0.000 A 
ATOM     12  C   UNL A   1     -24.562   0.806  26.200  0.00  0.00    -0.022 A 
ATOM     13  C   UNL A   1     -25.672   0.522  25.490  0.00  0.00    +0.031 C 
ATOM     14  C   UNL A   1     -22.209   1.470  27.487  0.00  0.00    +0.004 A 
ATOM     15  C   UNL A   1     -22.690   2.283  26.445  0.00  0.00    -0.000 A 
ATOM     16  C   UNL A   1     -23.785   1.992  25.806  0.00  0.00    -0.004 A 
ENDBRANCH   2  10
TORSDOF 1
ENDMDL
ENDMDL
