REMARK  Name = No_2295-gen_results/8p0m/2024-11-26-14-13-15/
REMARK  5 active torsions:
REMARK  status: ('A' for Active; 'I' for Inactive)
REMARK    1  A    between atoms: C_2  and  C_3
REMARK    2  A    between atoms: N_4  and  C_10
REMARK    3  A    between atoms: C_10  and  C_15
REMARK    4  A    between atoms: C_15  and  C_16
REMARK    5  A    between atoms: C_16  and  N_17
REMARK                            x       y       z     vdW  Elec       q    Type
REMARK                         _______ _______ _______ _____ _____    ______ ____
ROOT
ATOM      1  C   UNL A   1     -26.380  -0.087  27.939  0.00  0.00    +0.055 A 
ATOM      2  C   UNL A   1     -25.124  -0.532  28.371  0.00  0.00    +0.005 A 
ATOM      3  C   UNL A   1     -23.913   0.283  28.324  0.00  0.00    +0.003 A 
ATOM      4  C   UNL A   1     -23.902   1.402  27.449  0.00  0.00    +0.019 A 
ATOM      5  C   UNL A   1     -25.177   1.797  26.900  0.00  0.00    +0.002 A 
ATOM      6  C   UNL A   1     -26.299   1.181  27.172  0.00  0.00    +0.005 A 
ATOM      7  C   UNL A   1     -22.628   2.068  27.268  0.00  0.00    +0.099 A 
ATOM      8  N   UNL A   1     -21.515   1.440  27.734  0.00  0.00    -0.242 NA
ATOM      9  C   UNL A   1     -22.570  -0.113  28.770  0.00  0.00    +0.021 A 
ATOM     10  C   UNL A   1     -21.439   0.499  28.551  0.00  0.00    +0.099 A 
ENDROOT
BRANCH   1  12
ATOM     11  O   UNL A   1     -28.123  -1.335  28.487  0.00  0.00    -0.268 OA
ATOM     12  C   UNL A   1     -27.481  -0.404  28.709  0.00  0.00    +0.265 C 
ATOM     13  N   UNL A   1     -27.899   0.646  29.632  0.00  0.00    -0.202 NA
BRANCH  13  14
ATOM     14  C   UNL A   1     -29.082   0.349  30.412  0.00  0.00    +0.117 C 
BRANCH  14  15
ATOM     15  C   UNL A   1     -30.298   0.548  29.779  0.00  0.00    +0.050 C 
BRANCH  15  16
ATOM     16  C   UNL A   1     -30.410   1.521  28.963  0.00  0.00    +0.127 C 
BRANCH  16  17
ATOM     17  N   UNL A   1     -30.019   2.621  29.382  0.00  0.00    -0.274 NA
ATOM     18  C   UNL A   1     -30.271   3.763  28.869  0.00  0.00    +0.067 C 
ATOM     19  C   UNL A   1     -29.664   5.009  29.357  0.00  0.00    +0.053 C 
ENDBRANCH  16  17
ENDBRANCH  15  16
ENDBRANCH  14  15
ENDBRANCH  13  14
ENDBRANCH   1  12
TORSDOF 5
