MODEL 2295
MODEL 1
REMARK VINA RESULT:    -6.288      0.000      0.000
REMARK INTER + INTRA:          -8.615
REMARK INTER:                  -8.127
REMARK INTRA:                  -0.489
REMARK UNBOUND:                -0.489
REMARK  Name = No_2295-gen_results/8p0m/2024-11-26-14-13-15/
REMARK  5 active torsions:
REMARK  status: ('A' for Active; 'I' for Inactive)
REMARK    1  A    between atoms: C_2  and  C_3
REMARK    2  A    between atoms: N_4  and  C_10
REMARK    3  A    between atoms: C_10  and  C_15
REMARK    4  A    between atoms: C_15  and  C_16
REMARK    5  A    between atoms: C_16  and  N_17
REMARK                            x       y       z     vdW  Elec       q    Type
REMARK                         _______ _______ _______ _____ _____    ______ ____
ROOT
ATOM      1  C   UNL A   1     -23.922  -0.371  30.252  0.00  0.00    +0.055 A 
ATOM      2  C   UNL A   1     -23.492  -1.599  29.733  0.00  0.00    +0.005 A 
ATOM      3  C   UNL A   1     -24.385  -2.718  29.447  0.00  0.00    +0.003 A 
ATOM      4  C   UNL A   1     -25.655  -2.730  30.083  0.00  0.00    +0.019 A 
ATOM      5  C   UNL A   1     -26.059  -1.503  30.728  0.00  0.00    +0.002 A 
ATOM      6  C   UNL A   1     -25.321  -0.423  30.745  0.00  0.00    +0.005 A 
ATOM      7  C   UNL A   1     -26.435  -3.943  29.947  0.00  0.00    +0.099 A 
ATOM      8  N   UNL A   1     -25.809  -5.044  29.450  0.00  0.00    -0.242 NA
ATOM      9  C   UNL A   1     -24.007  -4.025  28.892  0.00  0.00    +0.021 A 
ATOM     10  C   UNL A   1     -24.731  -5.108  28.824  0.00  0.00    +0.099 A 
ENDROOT
BRANCH   1  12
ATOM     11  O   UNL A   1     -23.483   1.797  30.261  0.00  0.00    -0.268 OA
ATOM     12  C   UNL A   1     -23.377   0.783  29.725  0.00  0.00    +0.265 C 
ATOM     13  N   UNL A   1     -22.899   0.657  28.352  0.00  0.00    -0.202 NA
BRANCH  13  14
ATOM     14  C   UNL A   1     -22.370   1.871  27.768  0.00  0.00    +0.117 C 
BRANCH  14  15
ATOM     15  C   UNL A   1     -22.570   2.032  26.407  0.00  0.00    +0.050 C 
BRANCH  15  16
ATOM     16  C   UNL A   1     -23.627   2.624  26.010  0.00  0.00    +0.127 C 
BRANCH  16  17
ATOM     17  N   UNL A   1     -24.590   1.887  25.752  0.00  0.00    -0.274 NA
ATOM     18  C   UNL A   1     -24.544   0.752  25.168  0.00  0.00    +0.067 C 
ATOM     19  C   UNL A   1     -25.748   0.000  24.788  0.00  0.00    +0.053 C 
ENDBRANCH  16  17
ENDBRANCH  15  16
ENDBRANCH  14  15
ENDBRANCH  13  14
ENDBRANCH   1  12
TORSDOF 5
ENDMDL
ENDMDL
