MODEL 2296
MODEL 1
REMARK VINA RESULT:    -7.435      0.000      0.000
REMARK INTER + INTRA:         -10.220
REMARK INTER:                  -9.174
REMARK INTRA:                  -1.046
REMARK UNBOUND:                -1.046
REMARK  Name = No_2296-gen_results/8p0m/2024-11-26-14-13-15/
REMARK  4 active torsions:
REMARK  status: ('A' for Active; 'I' for Inactive)
REMARK    1  A    between atoms: C_1  and  N_7
REMARK    2  A    between atoms: N_7  and  C_8
REMARK    3  A    between atoms: N_7  and  C_9
REMARK    4  A    between atoms: C_15  and  C_16
REMARK                            x       y       z     vdW  Elec       q    Type
REMARK                         _______ _______ _______ _____ _____    ______ ____
ROOT
ATOM      1  N   UNL A   1     -23.781  -1.568  29.773  0.00  0.00    -0.265 N 
ENDROOT
BRANCH   1   2
ATOM      2  C   UNL A   1     -24.336  -2.846  29.543  0.00  0.00    +0.056 A 
ATOM      3  C   UNL A   1     -23.750  -3.650  28.855  0.00  0.00    +0.015 A 
ATOM      4  C   UNL A   1     -24.235  -4.912  28.571  0.00  0.00    +0.001 A 
ATOM      5  C   UNL A   1     -25.513  -5.267  29.087  0.00  0.00    +0.000 A 
ATOM      6  C   UNL A   1     -26.201  -4.278  29.704  0.00  0.00    +0.001 A 
ATOM      7  C   UNL A   1     -25.673  -3.084  29.896  0.00  0.00    +0.015 A 
ENDBRANCH   1   2
BRANCH   1   8
ATOM      8  C   UNL A   1     -23.504  -0.699  29.051  0.00  0.00    +0.056 A 
ATOM      9  C   UNL A   1     -22.250  -0.220  29.022  0.00  0.00    +0.015 A 
ATOM     10  C   UNL A   1     -24.502  -0.036  28.185  0.00  0.00    +0.015 A 
ATOM     11  C   UNL A   1     -21.826   0.799  28.098  0.00  0.00    +0.001 A 
ATOM     12  C   UNL A   1     -24.116   0.965  27.296  0.00  0.00    +0.001 A 
ATOM     13  C   UNL A   1     -22.781   1.421  27.312  0.00  0.00    +0.000 A 
ENDBRANCH   1   8
BRANCH   1  14
ATOM     14  C   UNL A   1     -23.762  -1.221  31.250  0.00  0.00    +0.066 C 
ATOM     15  C   UNL A   1     -24.337  -0.331  31.874  0.00  0.00    -0.001 C 
BRANCH  15  16
ATOM     16  C   UNL A   1     -24.700  -0.316  33.255  0.00  0.00    +0.067 C 
ATOM     17  C   UNL A   1     -25.945  -0.002  33.719  0.00  0.00    -0.018 C 
ATOM     18  C   UNL A   1     -26.039  -0.247  35.048  0.00  0.00    -0.004 C 
ATOM     19  C   UNL A   1     -24.965  -1.022  35.451  0.00  0.00    -0.004 C 
ATOM     20  C   UNL A   1     -24.087  -1.163  34.264  0.00  0.00    -0.018 C 
ENDBRANCH  15  16
ENDBRANCH   1  14
TORSDOF 4
ENDMDL
ENDMDL
