REMARK  Name = No_2296-gen_results/8p0m/2024-11-26-14-13-15/
REMARK  4 active torsions:
REMARK  status: ('A' for Active; 'I' for Inactive)
REMARK    1  A    between atoms: C_1  and  N_7
REMARK    2  A    between atoms: N_7  and  C_8
REMARK    3  A    between atoms: N_7  and  C_9
REMARK    4  A    between atoms: C_15  and  C_16
REMARK                            x       y       z     vdW  Elec       q    Type
REMARK                         _______ _______ _______ _____ _____    ______ ____
ROOT
ATOM      1  N   UNL A   1     -28.010  -1.603  30.050  0.00  0.00    -0.265 N 
ENDROOT
BRANCH   1   2
ATOM      2  C   UNL A   1     -28.016  -0.814  28.878  0.00  0.00    +0.056 A 
ATOM      3  C   UNL A   1     -27.064  -0.119  28.608  0.00  0.00    +0.015 A 
ATOM      4  C   UNL A   1     -27.001   0.691  27.491  0.00  0.00    +0.001 A 
ATOM      5  C   UNL A   1     -28.137   0.736  26.635  0.00  0.00    +0.000 A 
ATOM      6  C   UNL A   1     -29.236   0.076  27.069  0.00  0.00    +0.001 A 
ATOM      7  C   UNL A   1     -29.218  -0.643  28.175  0.00  0.00    +0.015 A 
ENDBRANCH   1   2
BRANCH   1   8
ATOM      8  C   UNL A   1     -28.813  -1.780  30.872  0.00  0.00    +0.056 A 
ATOM      9  C   UNL A   1     -28.817  -1.027  31.984  0.00  0.00    +0.015 A 
ATOM     10  C   UNL A   1     -29.819  -2.860  30.782  0.00  0.00    +0.015 A 
ATOM     11  C   UNL A   1     -29.829  -1.144  33.001  0.00  0.00    +0.001 A 
ATOM     12  C   UNL A   1     -30.797  -3.002  31.765  0.00  0.00    +0.001 A 
ATOM     13  C   UNL A   1     -30.748  -2.176  32.908  0.00  0.00    +0.000 A 
ENDBRANCH   1   8
BRANCH   1  14
ATOM     14  C   UNL A   1     -26.816  -2.538  30.091  0.00  0.00    +0.066 C 
ATOM     15  C   UNL A   1     -26.394  -3.341  29.261  0.00  0.00    -0.001 C 
BRANCH  15  16
ATOM     16  C   UNL A   1     -25.060  -3.824  29.100  0.00  0.00    +0.067 C 
ATOM     17  C   UNL A   1     -24.707  -4.840  28.260  0.00  0.00    -0.018 C 
ATOM     18  C   UNL A   1     -23.359  -4.956  28.185  0.00  0.00    -0.004 C 
ATOM     19  C   UNL A   1     -22.769  -3.826  28.724  0.00  0.00    -0.004 C 
ATOM     20  C   UNL A   1     -23.874  -3.003  29.274  0.00  0.00    -0.018 C 
ENDBRANCH  15  16
ENDBRANCH   1  14
TORSDOF 4
