REMARK  Name = No_2297-gen_results/8p0m/2024-11-26-14-13-15/
REMARK  1 active torsions:
REMARK  status: ('A' for Active; 'I' for Inactive)
REMARK    1  A    between atoms: C_1  and  C_2
REMARK                            x       y       z     vdW  Elec       q    Type
REMARK                         _______ _______ _______ _____ _____    ______ ____
ROOT
ATOM      1  C   UNL A   1     -28.016  -0.814  28.878  0.00  0.00    +0.055 A 
ATOM      2  C   UNL A   1     -28.182   0.428  28.113  0.00  0.00    +0.005 A 
ATOM      3  C   UNL A   1     -27.450   0.643  26.850  0.00  0.00    +0.000 A 
ATOM      4  C   UNL A   1     -26.181   0.036  26.715  0.00  0.00    +0.000 A 
ATOM      5  C   UNL A   1     -25.780  -0.933  27.694  0.00  0.00    +0.000 A 
ATOM      6  C   UNL A   1     -26.557  -1.213  28.741  0.00  0.00    +0.005 A 
ENDROOT
BRANCH   1   7
ATOM      7  C   UNL A   1     -28.469  -0.785  29.829  0.00  0.00    +0.265 C 
ATOM      8  N   UNL A   1     -29.592  -0.315  30.205  0.00  0.00    -0.200 NA
ATOM      9  O   UNL A   1     -28.013  -1.642  30.865  0.00  0.00    -0.268 OA
ATOM     10  C   UNL A   1     -30.446  -0.579  31.407  0.00  0.00    +0.139 C 
ENDBRANCH   1   7
TORSDOF 1
