MODEL 2297
MODEL 1
REMARK VINA RESULT:    -5.261      0.000      0.000
REMARK INTER + INTRA:          -5.666
REMARK INTER:                  -5.569
REMARK INTRA:                  -0.097
REMARK UNBOUND:                -0.097
REMARK  Name = No_2297-gen_results/8p0m/2024-11-26-14-13-15/
REMARK  1 active torsions:
REMARK  status: ('A' for Active; 'I' for Inactive)
REMARK    1  A    between atoms: C_1  and  C_2
REMARK                            x       y       z     vdW  Elec       q    Type
REMARK                         _______ _______ _______ _____ _____    ______ ____
ROOT
ATOM      1  C   UNL A   1     -24.128  -2.653  29.294  0.00  0.00    +0.055 A 
ATOM      2  C   UNL A   1     -25.564  -2.405  29.476  0.00  0.00    +0.005 A 
ATOM      3  C   UNL A   1     -26.466  -3.478  29.937  0.00  0.00    +0.000 A 
ATOM      4  C   UNL A   1     -26.141  -4.806  29.582  0.00  0.00    +0.000 A 
ATOM      5  C   UNL A   1     -24.852  -5.064  29.007  0.00  0.00    +0.000 A 
ATOM      6  C   UNL A   1     -24.001  -4.068  28.757  0.00  0.00    +0.005 A 
ENDROOT
BRANCH   1   7
ATOM      7  C   UNL A   1     -23.622  -1.860  28.819  0.00  0.00    +0.265 C 
ATOM      8  N   UNL A   1     -24.063  -0.810  28.249  0.00  0.00    -0.200 NA
ATOM      9  O   UNL A   1     -22.239  -1.647  29.062  0.00  0.00    -0.268 OA
ATOM     10  C   UNL A   1     -23.425   0.505  27.919  0.00  0.00    +0.139 C 
ENDBRANCH   1   7
TORSDOF 1
ENDMDL
ENDMDL
