REMARK  Name = No_2298-gen_results/8p0m/2024-11-26-14-13-15/
REMARK  4 active torsions:
REMARK  status: ('A' for Active; 'I' for Inactive)
REMARK    1  A    between atoms: C_2  and  C_7
REMARK    2  A    between atoms: C_9  and  N_13
REMARK    3  A    between atoms: C_11  and  C_19
REMARK    4  A    between atoms: C_19  and  C_21
REMARK                            x       y       z     vdW  Elec       q    Type
REMARK                         _______ _______ _______ _____ _____    ______ ____
ROOT
ATOM      1  C   UNL A   1     -30.061  -0.737  29.902  0.00  0.00    +0.013 A 
ATOM      2  C   UNL A   1     -30.581   0.136  28.974  0.00  0.00    +0.001 A 
ATOM      3  C   UNL A   1     -30.700  -2.085  29.918  0.00  0.00    +0.045 A 
ATOM      4  C   UNL A   1     -31.548   0.496  28.856  0.00  0.00    -0.000 A 
ATOM      5  C   UNL A   1     -32.167  -1.942  29.733  0.00  0.00    +0.006 A 
ATOM      6  C   UNL A   1     -32.591  -0.807  28.910  0.00  0.00    -0.002 A 
ENDROOT
BRANCH   1   8
ATOM      7  C   UNL A   1     -28.016  -0.814  28.878  0.00  0.00    +0.000 A 
ATOM      8  C   UNL A   1     -28.469  -0.785  29.829  0.00  0.00    +0.001 A 
ATOM      9  C   UNL A   1     -26.546  -0.876  28.850  0.00  0.00    +0.000 A 
ATOM     10  C   UNL A   1     -25.804  -1.032  30.057  0.00  0.00    +0.000 A 
ATOM     11  C   UNL A   1     -27.944  -0.987  31.207  0.00  0.00    +0.000 A 
ATOM     12  C   UNL A   1     -26.582  -1.039  31.223  0.00  0.00    +0.000 A 
ENDBRANCH   1   8
BRANCH   3  13
ATOM     13  N   UNL A   1     -30.446  -2.877  31.012  0.00  0.00    -0.308 N 
ATOM     14  C   UNL A   1     -30.639  -2.629  32.237  0.00  0.00    +0.091 C 
ATOM     15  C   UNL A   1     -29.729  -4.154  30.676  0.00  0.00    +0.091 C 
ATOM     16  C   UNL A   1     -29.099  -4.877  31.636  0.00  0.00    +0.021 C 
ATOM     17  C   UNL A   1     -30.143  -3.432  33.324  0.00  0.00    +0.021 C 
ATOM     18  C   UNL A   1     -29.465  -4.563  33.028  0.00  0.00    +0.004 C 
ENDBRANCH   3  13
BRANCH   5  19
ATOM     19  C   UNL A   1     -33.046  -3.010  29.869  0.00  0.00    +0.103 C 
ATOM     20 CL   UNL A   1     -33.052  -3.917  30.416  0.00  0.00    -0.110 Cl
BRANCH  19  21
ATOM     21  C   UNL A   1     -34.285  -2.635  28.950  0.00  0.00    +0.021 C 
ATOM     22  C   UNL A   1     -35.265  -3.596  29.128  0.00  0.00    +0.002 C 
ENDBRANCH  19  21
ENDBRANCH   5  19
TORSDOF 4
