MODEL 2298
MODEL 1
REMARK VINA RESULT:    -7.463      0.000      0.000
REMARK INTER + INTRA:         -10.735
REMARK INTER:                  -9.208
REMARK INTRA:                  -1.527
REMARK UNBOUND:                -1.527
REMARK  Name = No_2298-gen_results/8p0m/2024-11-26-14-13-15/
REMARK  4 active torsions:
REMARK  status: ('A' for Active; 'I' for Inactive)
REMARK    1  A    between atoms: C_2  and  C_7
REMARK    2  A    between atoms: C_9  and  N_13
REMARK    3  A    between atoms: C_11  and  C_19
REMARK    4  A    between atoms: C_19  and  C_21
REMARK                            x       y       z     vdW  Elec       q    Type
REMARK                         _______ _______ _______ _____ _____    ______ ____
ROOT
ATOM      1  C   UNL A   1     -24.636  -0.987  29.446  0.00  0.00    +0.013 A 
ATOM      2  C   UNL A   1     -23.787  -0.762  30.506  0.00  0.00    +0.001 A 
ATOM      3  C   UNL A   1     -24.204  -0.370  28.158  0.00  0.00    +0.045 A 
ATOM      4  C   UNL A   1     -23.470   0.127  30.937  0.00  0.00    -0.000 A 
ATOM      5  C   UNL A   1     -23.637   0.978  28.419  0.00  0.00    +0.006 A 
ATOM      6  C   UNL A   1     -22.966   1.142  29.710  0.00  0.00    -0.002 A 
ENDROOT
BRANCH   1   8
ATOM      7  C   UNL A   1     -25.911  -2.860  29.766  0.00  0.00    +0.000 A 
ATOM      8  C   UNL A   1     -25.015  -2.531  29.320  0.00  0.00    +0.001 A 
ATOM      9  C   UNL A   1     -26.219  -4.294  29.645  0.00  0.00    +0.000 A 
ATOM     10  C   UNL A   1     -25.271  -5.194  29.075  0.00  0.00    +0.000 A 
ATOM     11  C   UNL A   1     -23.852  -3.251  28.732  0.00  0.00    +0.000 A 
ATOM     12  C   UNL A   1     -24.104  -4.583  28.594  0.00  0.00    +0.000 A 
ENDBRANCH   1   8
BRANCH   3  13
ATOM     13  N   UNL A   1     -25.148  -0.292  27.162  0.00  0.00    -0.308 N 
ATOM     14  C   UNL A   1     -25.012  -0.482  25.920  0.00  0.00    +0.091 C 
ATOM     15  C   UNL A   1     -26.482   0.209  27.637  0.00  0.00    +0.091 C 
ATOM     16  C   UNL A   1     -27.408   0.673  26.761  0.00  0.00    +0.021 C 
ATOM     17  C   UNL A   1     -26.007  -0.168  24.928  0.00  0.00    +0.021 C 
ATOM     18  C   UNL A   1     -27.197   0.318  25.347  0.00  0.00    +0.004 C 
ENDBRANCH   3  13
BRANCH   5  19
ATOM     19  C   UNL A   1     -23.304   1.859  27.397  0.00  0.00    +0.103 C 
ATOM     20 CL   UNL A   1     -22.542   1.909  26.662  0.00  0.00    -0.110 Cl
BRANCH  19  21
ATOM     21  C   UNL A   1     -24.417   2.989  27.456  0.00  0.00    +0.021 C 
ATOM     22  C   UNL A   1     -24.713   3.377  26.161  0.00  0.00    +0.002 C 
ENDBRANCH  19  21
ENDBRANCH   5  19
TORSDOF 4
ENDMDL
ENDMDL
