MODEL 2299
MODEL 1
REMARK VINA RESULT:    -7.763      0.000      0.000
REMARK INTER + INTRA:          -8.475
REMARK INTER:                  -8.217
REMARK INTRA:                  -0.258
REMARK UNBOUND:                -0.258
REMARK  Name = No_2299-gen_results/8p0m/2024-11-26-14-13-15/
REMARK  1 active torsions:
REMARK  status: ('A' for Active; 'I' for Inactive)
REMARK    1  A    between atoms: C_2  and  C_7
REMARK                            x       y       z     vdW  Elec       q    Type
REMARK                         _______ _______ _______ _____ _____    ______ ____
ROOT
ATOM      1  C   UNL A   1     -23.611  -1.452  28.953  0.00  0.00    +0.000 A 
ATOM      2  C   UNL A   1     -22.783  -1.135  29.461  0.00  0.00    +0.000 A 
ATOM      3  C   UNL A   1     -21.889   0.061  29.234  0.00  0.00    +0.000 A 
ATOM      4  C   UNL A   1     -22.244   0.927  28.218  0.00  0.00    +0.000 A 
ATOM      5  C   UNL A   1     -23.403   0.665  27.485  0.00  0.00    +0.000 A 
ATOM      6  C   UNL A   1     -24.118  -0.464  27.757  0.00  0.00    +0.000 A 
ATOM      7  C   UNL A   1     -23.770   1.540  26.380  0.00  0.00    +0.000 A 
ATOM      8  C   UNL A   1     -25.173   1.368  25.944  0.00  0.00    +0.000 A 
ATOM      9  C   UNL A   1     -25.796   0.130  26.261  0.00  0.00    +0.000 A 
ATOM     10  C   UNL A   1     -25.351  -0.709  27.159  0.00  0.00    +0.000 A 
ENDROOT
BRANCH   1  12
ATOM     11  C   UNL A   1     -25.658  -2.449  29.707  0.00  0.00    +0.000 A 
ATOM     12  C   UNL A   1     -24.565  -2.566  29.202  0.00  0.00    +0.000 A 
ATOM     13  C   UNL A   1     -24.099  -3.806  28.778  0.00  0.00    +0.000 A 
ATOM     14  C   UNL A   1     -24.885  -4.998  28.969  0.00  0.00    +0.000 A 
ATOM     15  C   UNL A   1     -26.125  -4.775  29.582  0.00  0.00    +0.000 A 
ATOM     16  C   UNL A   1     -26.512  -3.584  29.980  0.00  0.00    +0.000 A 
ENDBRANCH   1  12
TORSDOF 1
ENDMDL
ENDMDL
