MODEL 229
MODEL 1
REMARK VINA RESULT:    -7.550      0.000      0.000
REMARK INTER + INTRA:         -13.645
REMARK INTER:                 -11.522
REMARK INTRA:                  -2.123
REMARK UNBOUND:                -2.123
REMARK  Name = No_229-gen_results/8p0m/2024-11-26-14-13-15/
REMARK  9 active torsions:
REMARK  status: ('A' for Active; 'I' for Inactive)
REMARK    1  A    between atoms: C_1  and  O_15
REMARK    2  A    between atoms: C_10  and  C_12
REMARK    3  A    between atoms: O_15  and  C_16
REMARK    4  A    between atoms: C_16  and  C_17
REMARK    5  A    between atoms: C_17  and  C_18
REMARK    6  A    between atoms: C_20  and  C_29
REMARK    7  A    between atoms: C_22  and  C_24
REMARK    8  A    between atoms: C_29  and  O_31
REMARK    9  A    between atoms: O_31  and  C_32
REMARK                            x       y       z     vdW  Elec       q    Type
REMARK                         _______ _______ _______ _____ _____    ______ ____
ROOT
ATOM      1  C   UNL A   1     -32.197  -6.612  29.571  0.00  0.00    +0.218 C 
ATOM      2  O   UNL A   1     -32.745  -5.627  28.699  0.00  0.00    -0.214 OA
ENDROOT
BRANCH   1   3
ATOM      3  C   UNL A   1     -31.222  -6.120  30.499  0.00  0.00    +0.018 A 
ATOM      4  C   UNL A   1     -30.334  -5.440  30.080  0.00  0.00    +0.005 A 
ATOM      5  C   UNL A   1     -29.254  -4.897  30.934  0.00  0.00    +0.076 A 
ATOM      6  C   UNL A   1     -29.423  -5.123  32.325  0.00  0.00    +0.013 A 
ATOM      7  C   UNL A   1     -30.474  -5.853  32.794  0.00  0.00    +0.086 A 
ATOM      8  C   UNL A   1     -31.444  -6.351  31.919  0.00  0.00    +0.039 A 
ATOM      9 BR   UNL A   1     -33.091  -7.106  32.408  0.00  0.00    -0.049 Br
BRANCH   7  10
ATOM     10  C   UNL A   1     -30.650  -6.101  34.257  0.00  0.00    +0.388 C 
ATOM     11  O   UNL A   1     -30.881  -5.401  34.969  0.00  0.00    -0.240 OA
ATOM     12  O   UNL A   1     -30.424  -7.406  34.545  0.00  0.00    -0.240 OA
ENDBRANCH   7  10
BRANCH   5  13
ATOM     13  C   UNL A   1     -28.125  -4.224  30.415  0.00  0.00    +0.346 C 
ATOM     14  O   UNL A   1     -27.936  -3.249  30.028  0.00  0.00    -0.244 OA
BRANCH  13  15
ATOM     15  O   UNL A   1     -27.122  -5.106  30.170  0.00  0.00    -0.418 OA
BRANCH  15  16
ATOM     16  C   UNL A   1     -25.983  -4.707  29.584  0.00  0.00    +0.178 C 
ATOM     17  C   UNL A   1     -25.047  -5.081  29.273  0.00  0.00    +0.015 C 
ATOM     18  C   UNL A   1     -23.964  -4.521  28.559  0.00  0.00    +0.034 C 
ENDBRANCH  15  16
ENDBRANCH  13  15
ENDBRANCH   5  13
ENDBRANCH   1   3
BRANCH   1  19
ATOM     19  C   UNL A   1     -31.612  -7.731  28.745  0.00  0.00    +0.243 C 
BRANCH  19  20
ATOM     20  O   UNL A   1     -31.665  -8.868  29.485  0.00  0.00    -0.472 OA
BRANCH  20  21
ATOM     21  C   UNL A   1     -30.760  -9.906  29.356  0.00  0.00    +0.139 A 
ATOM     22  C   UNL A   1     -29.992 -10.192  30.245  0.00  0.00    +0.034 A 
ATOM     23  C   UNL A   1     -29.065 -11.212  30.156  0.00  0.00    +0.004 A 
ATOM     24  C   UNL A   1     -28.988 -11.938  28.935  0.00  0.00    +0.012 A 
ATOM     25  C   UNL A   1     -29.747 -11.471  27.916  0.00  0.00    +0.061 A 
ATOM     26  C   UNL A   1     -30.577 -10.460  28.081  0.00  0.00    +0.048 A 
ATOM     27 CL   UNL A   1     -29.623 -12.308  26.439  0.00  0.00    -0.082 Cl
ATOM     28  C   UNL A   1     -29.985  -9.720  31.747  0.00  0.00    +0.003 A 
ATOM     29  C   UNL A   1     -29.257 -10.145  32.666  0.00  0.00    +0.005 A 
ATOM     30  C   UNL A   1     -28.303 -11.188  32.430  0.00  0.00    +0.057 A 
ATOM     31  C   UNL A   1     -28.231 -11.763  31.258  0.00  0.00    +0.005 A 
BRANCH  30  32
ATOM     32  C   UNL A   1     -27.433 -11.608  33.578  0.00  0.00    +0.284 C 
ATOM     33  N   UNL A   1     -26.730 -12.692  33.440  0.00  0.00    -0.084 NA
ATOM     34  O   UNL A   1     -27.547 -11.055  34.707  0.00  0.00    -0.267 OA
ENDBRANCH  30  32
ENDBRANCH  20  21
ENDBRANCH  19  20
ENDBRANCH   1  19
TORSDOF 9
ENDMDL
ENDMDL
