MODEL 22
MODEL 1
REMARK VINA RESULT:    -7.019      0.000      0.000
REMARK INTER + INTRA:          -7.019
REMARK INTER:                  -7.019
REMARK INTRA:                   0.000
REMARK UNBOUND:                 0.000
REMARK  Name = No_22-gen_results/8p0m/2024-11-26-14-13-15/
REMARK  0 active torsions:
REMARK  status: ('A' for Active; 'I' for Inactive)
REMARK                            x       y       z     vdW  Elec       q    Type
REMARK                         _______ _______ _______ _____ _____    ______ ____
ROOT
ATOM      1  C   UNL A   1     -23.873  -3.822  28.672  0.00  0.00    +0.003 A 
ATOM      2  C   UNL A   1     -24.308  -2.882  29.296  0.00  0.00    +0.035 A 
ATOM      3  C   UNL A   1     -23.600  -1.698  29.500  0.00  0.00    +0.195 C 
ATOM      4  C   UNL A   1     -24.046  -0.511  30.254  0.00  0.00    +0.035 A 
ATOM      5  C   UNL A   1     -25.421  -0.501  30.641  0.00  0.00    -0.015 A 
ATOM      6  C   UNL A   1     -25.923   0.607  31.324  0.00  0.00    -0.004 A 
ATOM      7  C   UNL A   1     -25.106   1.736  31.469  0.00  0.00    -0.000 A 
ATOM      8  C   UNL A   1     -23.788   1.740  31.081  0.00  0.00    +0.000 A 
ATOM      9  C   UNL A   1     -23.273   0.601  30.425  0.00  0.00    +0.003 A 
ATOM     10  C   UNL A   1     -24.479  -5.109  28.787  0.00  0.00    +0.000 A 
ATOM     11  C   UNL A   1     -25.776  -5.155  29.274  0.00  0.00    -0.000 A 
ATOM     12  C   UNL A   1     -26.355  -4.044  29.810  0.00  0.00    -0.004 A 
ATOM     13  C   UNL A   1     -25.658  -2.857  29.931  0.00  0.00    -0.015 A 
ATOM     14  C   UNL A   1     -26.177  -1.697  30.532  0.00  0.00    +0.045 C 
ATOM     15  O   UNL A   1     -22.412  -1.559  28.943  0.00  0.00    -0.287 OA
ATOM     16  C   UNL A   1     -27.528  -1.711  31.132  0.00  0.00    +0.009 C 
ENDROOT
TORSDOF 0
ENDMDL
ENDMDL
