REMARK  Name = No_230-gen_results/8p0m/2024-11-26-14-13-15/
REMARK  6 active torsions:
REMARK  status: ('A' for Active; 'I' for Inactive)
REMARK    1  A    between atoms: C_2  and  C_12
REMARK    2  A    between atoms: C_4  and  C_5
REMARK    3  A    between atoms: C_12  and  N_13
REMARK    4  A    between atoms: N_13  and  C_15
REMARK    5  A    between atoms: C_16  and  C_17
REMARK    6  A    between atoms: C_18  and  C_19
REMARK                            x       y       z     vdW  Elec       q    Type
REMARK                         _______ _______ _______ _____ _____    ______ ____
ROOT
ATOM      1  C   UNL A   1     -28.016  -0.814  28.878  0.00  0.00    +0.055 A 
ATOM      2  C   UNL A   1     -27.064  -0.119  28.608  0.00  0.00    +0.008 A 
ATOM      3  C   UNL A   1     -26.972   0.714  27.506  0.00  0.00    +0.002 A 
ATOM      4  C   UNL A   1     -28.105   0.774  26.642  0.00  0.00    +0.071 A 
ATOM      5  C   UNL A   1     -29.269  -0.533  28.224  0.00  0.00    +0.011 A 
ATOM      6  C   UNL A   1     -29.223   0.136  27.033  0.00  0.00    +0.005 A 
ATOM      7 CL   UNL A   1     -28.060  -1.776  30.349  0.00  0.00    -0.083 Cl
ENDROOT
BRANCH   4   8
ATOM      8  C   UNL A   1     -28.068   1.487  25.512  0.00  0.00    +0.419 C 
ATOM      9  F   UNL A   1     -28.608   2.367  25.167  0.00  0.00    -0.166 F 
ATOM     10  F   UNL A   1     -26.686   1.971  25.246  0.00  0.00    -0.166 F 
ATOM     11  F   UNL A   1     -28.050   0.530  24.359  0.00  0.00    -0.166 F 
ENDBRANCH   4   8
BRANCH   2  12
ATOM     12  C   UNL A   1     -25.686  -0.220  29.411  0.00  0.00    +0.119 C 
BRANCH  12  13
ATOM     13  N   UNL A   1     -25.518   0.520  30.430  0.00  0.00    -0.301 N 
ATOM     14  C   UNL A   1     -24.338   0.611  31.033  0.00  0.00    +0.113 C 
BRANCH  13  15
ATOM     15  C   UNL A   1     -26.433   1.564  30.837  0.00  0.00    +0.062 C 
ATOM     16  C   UNL A   1     -26.103   2.785  30.601  0.00  0.00    +0.016 C 
BRANCH  16  17
ATOM     17  C   UNL A   1     -27.092   3.740  31.052  0.00  0.00    +0.001 C 
ATOM     18  C   UNL A   1     -26.919   5.095  30.716  0.00  0.00    +0.000 C 
BRANCH  18  19
ATOM     19  C   UNL A   1     -25.834   5.468  29.905  0.00  0.00    +0.000 C 
ATOM     20  C   UNL A   1     -25.110   4.505  29.221  0.00  0.00    +0.000 C 
ENDBRANCH  18  19
ENDBRANCH  16  17
ENDBRANCH  13  15
ENDBRANCH  12  13
ENDBRANCH   2  12
TORSDOF 6
