MODEL 2300
MODEL 1
REMARK VINA RESULT:    -5.970      0.000      0.000
REMARK INTER + INTRA:          -6.243
REMARK INTER:                  -6.319
REMARK INTRA:                   0.075
REMARK UNBOUND:                 0.075
REMARK  Name = No_2300-gen_results/8p0m/2024-11-26-14-13-15/
REMARK  1 active torsions:
REMARK  status: ('A' for Active; 'I' for Inactive)
REMARK    1  A    between atoms: C_3  and  C_12
REMARK                            x       y       z     vdW  Elec       q    Type
REMARK                         _______ _______ _______ _____ _____    ______ ____
ROOT
ATOM      1  O   UNL A   1     -29.567 -10.123  34.007  0.00  0.00    -0.272 OA
ATOM      2  C   UNL A   1     -29.178 -10.558  33.014  0.00  0.00    +0.258 C 
ATOM      3  C   UNL A   1     -28.539 -11.346  32.630  0.00  0.00    +0.186 C 
ATOM      4  N   UNL A   1     -29.987 -10.004  31.914  0.00  0.00    -0.160 NA
ATOM      5  C   UNL A   1     -29.790 -10.417  30.639  0.00  0.00    +0.152 A 
ATOM      6  C   UNL A   1     -28.171 -11.958  31.328  0.00  0.00    +0.050 C 
ATOM      7  C   UNL A   1     -28.904 -11.388  30.295  0.00  0.00    +0.012 A 
ATOM      8  N   UNL A   1     -30.530  -9.846  29.607  0.00  0.00    -0.211 NA
ATOM      9  C   UNL A   1     -30.748 -10.292  28.585  0.00  0.00    +0.171 A 
ATOM     10  C   UNL A   1     -29.845 -11.415  28.077  0.00  0.00    +0.037 A 
ATOM     11  C   UNL A   1     -28.989 -11.908  28.938  0.00  0.00    +0.002 A 
ATOM     12  N   UNL A   1     -31.431  -9.777  27.518  0.00  0.00    -0.107 NA
ENDROOT
BRANCH   3  13
ATOM     13  C   UNL A   1     -27.614 -12.065  33.801  0.00  0.00    +0.373 C 
ATOM     14  O   UNL A   1     -28.163 -12.627  34.646  0.00  0.00    -0.245 OA
ATOM     15  O   UNL A   1     -26.414 -12.186  33.468  0.00  0.00    -0.245 OA
ENDBRANCH   3  13
TORSDOF 1
ENDMDL
ENDMDL
