REMARK  Name = No_2300-gen_results/8p0m/2024-11-26-14-13-15/
REMARK  1 active torsions:
REMARK  status: ('A' for Active; 'I' for Inactive)
REMARK    1  A    between atoms: C_3  and  C_12
REMARK                            x       y       z     vdW  Elec       q    Type
REMARK                         _______ _______ _______ _____ _____    ______ ____
ROOT
ATOM      1  O   UNL A   1     -28.123  -1.335  28.487  0.00  0.00    -0.272 OA
ATOM      2  C   UNL A   1     -27.481  -0.404  28.709  0.00  0.00    +0.258 C 
ATOM      3  C   UNL A   1     -27.190   0.246  29.527  0.00  0.00    +0.186 C 
ATOM      4  N   UNL A   1     -26.602  -0.158  27.552  0.00  0.00    -0.160 NA
ATOM      5  C   UNL A   1     -25.682   0.836  27.585  0.00  0.00    +0.152 A 
ATOM      6  C   UNL A   1     -26.247   1.361  29.794  0.00  0.00    +0.050 C 
ATOM      7  C   UNL A   1     -25.462   1.616  28.676  0.00  0.00    +0.012 A 
ATOM      8  N   UNL A   1     -24.895   1.085  26.464  0.00  0.00    -0.211 NA
ATOM      9  C   UNL A   1     -23.885   1.604  26.432  0.00  0.00    +0.171 A 
ATOM     10  C   UNL A   1     -23.491   2.497  27.607  0.00  0.00    +0.037 A 
ATOM     11  C   UNL A   1     -24.274   2.457  28.656  0.00  0.00    +0.002 A 
ATOM     12  N   UNL A   1     -23.079   1.913  25.371  0.00  0.00    -0.107 NA
ENDROOT
BRANCH   3  13
ATOM     13  C   UNL A   1     -28.095   0.017  30.895  0.00  0.00    +0.373 C 
ATOM     14  O   UNL A   1     -27.551  -0.361  31.840  0.00  0.00    -0.245 OA
ATOM     15  O   UNL A   1     -29.212   0.579  30.840  0.00  0.00    -0.245 OA
ENDBRANCH   3  13
TORSDOF 1
