REMARK  Name = No_2301-gen_results/8p0m/2024-11-26-14-13-15/
REMARK  0 active torsions:
REMARK  status: ('A' for Active; 'I' for Inactive)
REMARK                            x       y       z     vdW  Elec       q    Type
REMARK                         _______ _______ _______ _____ _____    ______ ____
ROOT
ATOM      1  C   UNL A   1     -28.016  -0.814  28.878  0.00  0.00    +0.030 A 
ATOM      2  C   UNL A   1     -28.469  -0.785  29.829  0.00  0.00    +0.014 A 
ATOM      3  C   UNL A   1     -28.196   0.348  28.055  0.00  0.00    +0.140 A 
ATOM      4  C   UNL A   1     -29.019   1.350  28.378  0.00  0.00    +0.030 A 
ATOM      5  C   UNL A   1     -29.411   0.180  30.378  0.00  0.00    +0.058 A 
ATOM      6  C   UNL A   1     -29.606   1.250  29.619  0.00  0.00    +0.014 A 
ATOM      7  F   UNL A   1     -27.540   0.337  26.842  0.00  0.00    -0.204 F 
ATOM      8 CL   UNL A   1     -30.113  -0.042  31.959  0.00  0.00    -0.082 Cl
ENDROOT
TORSDOF 0
