MODEL 2301
MODEL 1
REMARK VINA RESULT:    -4.616      0.000      0.000
REMARK INTER + INTRA:          -4.616
REMARK INTER:                  -4.616
REMARK INTRA:                   0.000
REMARK UNBOUND:                 0.000
REMARK  Name = No_2301-gen_results/8p0m/2024-11-26-14-13-15/
REMARK  0 active torsions:
REMARK  status: ('A' for Active; 'I' for Inactive)
REMARK                            x       y       z     vdW  Elec       q    Type
REMARK                         _______ _______ _______ _____ _____    ______ ____
ROOT
ATOM      1  C   UNL A   1     -26.194  -4.623  29.572  0.00  0.00    +0.030 A 
ATOM      2  C   UNL A   1     -26.251  -3.628  29.913  0.00  0.00    +0.014 A 
ATOM      3  C   UNL A   1     -24.952  -5.018  28.973  0.00  0.00    +0.140 A 
ATOM      4  C   UNL A   1     -23.968  -4.156  28.698  0.00  0.00    +0.030 A 
ATOM      5  C   UNL A   1     -25.324  -2.524  29.706  0.00  0.00    +0.058 A 
ATOM      6  C   UNL A   1     -24.179  -2.868  29.133  0.00  0.00    +0.014 A 
ATOM      7  F   UNL A   1     -24.856  -6.342  28.596  0.00  0.00    -0.204 F 
ATOM      8 CL   UNL A   1     -25.688  -0.919  30.286  0.00  0.00    -0.082 Cl
ENDROOT
TORSDOF 0
ENDMDL
ENDMDL
