MODEL 2302
MODEL 1
REMARK VINA RESULT:    -5.310      0.000      0.000
REMARK INTER + INTRA:          -5.310
REMARK INTER:                  -5.310
REMARK INTRA:                   0.000
REMARK UNBOUND:                 0.000
REMARK  Name = No_2302-gen_results/8p0m/2024-11-26-14-13-15/
REMARK  0 active torsions:
REMARK  status: ('A' for Active; 'I' for Inactive)
REMARK                            x       y       z     vdW  Elec       q    Type
REMARK                         _______ _______ _______ _____ _____    ______ ____
ROOT
ATOM      1  C   UNL A   1     -25.423  -2.486  30.047  0.00  0.00    +0.000 A 
ATOM      2  C   UNL A   1     -25.756  -1.487  30.083  0.00  0.00    +0.000 A 
ATOM      3  C   UNL A   1     -26.440  -3.488  29.900  0.00  0.00    +0.000 A 
ATOM      4  C   UNL A   1     -26.084  -4.897  29.631  0.00  0.00    +0.000 A 
ATOM      5  C   UNL A   1     -24.897  -5.181  28.930  0.00  0.00    +0.000 A 
ATOM      6  C   UNL A   1     -23.990  -4.133  28.671  0.00  0.00    +0.000 A 
ATOM      7  C   UNL A   1     -24.260  -2.875  29.066  0.00  0.00    +0.000 A 
ATOM      8  C   UNL A   1     -24.729  -0.339  30.259  0.00  0.00    +0.000 A 
ATOM      9  C   UNL A   1     -23.480  -0.576  29.625  0.00  0.00    +0.000 A 
ATOM     10  C   UNL A   1     -23.163  -1.864  29.012  0.00  0.00    +0.000 A 
ENDROOT
TORSDOF 0
ENDMDL
ENDMDL
