REMARK  Name = No_2303-gen_results/8p0m/2024-11-26-14-13-15/
REMARK  1 active torsions:
REMARK  status: ('A' for Active; 'I' for Inactive)
REMARK    1  A    between atoms: C_5  and  C_7
REMARK                            x       y       z     vdW  Elec       q    Type
REMARK                         _______ _______ _______ _____ _____    ______ ____
ROOT
ATOM      1  C   UNL A   1     -28.016  -0.814  28.878  0.00  0.00    +0.030 A 
ATOM      2  C   UNL A   1     -27.064  -0.119  28.608  0.00  0.00    +0.140 A 
ATOM      3  C   UNL A   1     -26.972   0.714  27.506  0.00  0.00    +0.030 A 
ATOM      4  C   UNL A   1     -28.105   0.774  26.642  0.00  0.00    +0.009 A 
ATOM      5  C   UNL A   1     -29.201   0.104  27.053  0.00  0.00    +0.080 A 
ATOM      6  C   UNL A   1     -29.210  -0.603  28.185  0.00  0.00    +0.009 A 
ATOM      7  F   UNL A   1     -25.865  -0.189  29.384  0.00  0.00    -0.204 F 
ENDROOT
BRANCH   5   8
ATOM      8  C   UNL A   1     -30.285   0.292  26.003  0.00  0.00    +0.388 C 
ATOM      9  O   UNL A   1     -30.201   0.492  24.878  0.00  0.00    -0.241 OA
ATOM     10  O   UNL A   1     -31.535  -0.060  26.500  0.00  0.00    -0.241 OA
ENDBRANCH   5   8
TORSDOF 1
