MODEL 2303
MODEL 1
REMARK VINA RESULT:    -5.137      0.000      0.000
REMARK INTER + INTRA:          -5.476
REMARK INTER:                  -5.438
REMARK INTRA:                  -0.038
REMARK UNBOUND:                -0.038
REMARK  Name = No_2303-gen_results/8p0m/2024-11-26-14-13-15/
REMARK  1 active torsions:
REMARK  status: ('A' for Active; 'I' for Inactive)
REMARK    1  A    between atoms: C_5  and  C_7
REMARK                            x       y       z     vdW  Elec       q    Type
REMARK                         _______ _______ _______ _____ _____    ______ ____
ROOT
ATOM      1  C   UNL A   1     -29.769 -10.028  31.445  0.00  0.00    +0.030 A 
ATOM      2  C   UNL A   1     -29.585 -10.677  30.441  0.00  0.00    +0.140 A 
ATOM      3  C   UNL A   1     -28.667 -11.706  30.314  0.00  0.00    +0.030 A 
ATOM      4  C   UNL A   1     -27.903 -12.040  31.471  0.00  0.00    +0.009 A 
ATOM      5  C   UNL A   1     -28.239 -11.399  32.609  0.00  0.00    +0.080 A 
ATOM      6  C   UNL A   1     -29.206 -10.480  32.640  0.00  0.00    +0.009 A 
ATOM      7  F   UNL A   1     -30.257 -10.345  29.223  0.00  0.00    -0.204 F 
ENDROOT
BRANCH   5   8
ATOM      8  C   UNL A   1     -27.315 -11.892  33.713  0.00  0.00    +0.388 C 
ATOM      9  O   UNL A   1     -26.735 -12.875  33.811  0.00  0.00    -0.241 OA
ATOM     10  O   UNL A   1     -26.994 -10.867  34.596  0.00  0.00    -0.241 OA
ENDBRANCH   5   8
TORSDOF 1
ENDMDL
ENDMDL
