REMARK  Name = No_2304-gen_results/8p0m/2024-11-26-14-13-15/
REMARK  6 active torsions:
REMARK  status: ('A' for Active; 'I' for Inactive)
REMARK    1  A    between atoms: C_1  and  C_2
REMARK    2  A    between atoms: C_1  and  C_8
REMARK    3  A    between atoms: C_5  and  C_10
REMARK    4  A    between atoms: C_8  and  C_9
REMARK    5  A    between atoms: C_8  and  C_18
REMARK    6  A    between atoms: C_20  and  C_23
REMARK                            x       y       z     vdW  Elec       q    Type
REMARK                         _______ _______ _______ _____ _____    ______ ____
ROOT
ATOM      1  C   UNL A   1     -28.618  -0.469  30.221  0.00  0.00    +0.047 C 
ENDROOT
BRANCH   1   2
ATOM      2  C   UNL A   1     -29.730  -1.277  30.721  0.00  0.00    -0.021 A 
ATOM      3  C   UNL A   1     -30.117  -2.194  29.923  0.00  0.00    -0.004 A 
ATOM      4  C   UNL A   1     -31.267  -2.945  30.477  0.00  0.00    -0.000 A 
ATOM      5  C   UNL A   1     -31.784  -2.686  31.588  0.00  0.00    -0.000 A 
ATOM      6  C   UNL A   1     -31.335  -1.705  32.439  0.00  0.00    -0.000 A 
ATOM      7  C   UNL A   1     -30.266  -0.933  31.998  0.00  0.00    -0.004 A 
ENDBRANCH   1   2
BRANCH   1   8
ATOM      8  C   UNL A   1     -28.067   0.593  31.066  0.00  0.00    +0.101 C 
ATOM      9  N   UNL A   1     -27.175   1.294  30.747  0.00  0.00    -0.234 NA
ATOM     10  C   UNL A   1     -26.722   2.201  31.796  0.00  0.00    +0.129 C 
ATOM     11  C   UNL A   1     -27.245   2.154  32.827  0.00  0.00    -0.003 C 
ATOM     12  C   UNL A   1     -28.395   0.785  32.473  0.00  0.00    +0.049 C 
BRANCH  10  13
ATOM     13  C   UNL A   1     -25.619   3.182  31.520  0.00  0.00    +0.348 C 
ATOM     14  O   UNL A   1     -24.870   3.010  30.615  0.00  0.00    -0.253 OA
ATOM     15  F   UNL A   1     -25.445   4.064  32.397  0.00  0.00    -0.157 F 
ENDBRANCH  10  13
ENDBRANCH   1   8
BRANCH   1  16
ATOM     16  C   UNL A   1     -28.016  -0.814  28.878  0.00  0.00    +0.032 C 
BRANCH  16  17
ATOM     17  C   UNL A   1     -27.064  -0.119  28.608  0.00  0.00    -0.022 A 
ATOM     18  C   UNL A   1     -25.765  -0.390  29.036  0.00  0.00    -0.004 A 
ATOM     19  C   UNL A   1     -24.552   0.406  28.765  0.00  0.00    +0.006 A 
ATOM     20  C   UNL A   1     -24.696   1.448  27.799  0.00  0.00    +0.080 A 
ATOM     21  C   UNL A   1     -25.976   1.725  27.308  0.00  0.00    +0.006 A 
ATOM     22  C   UNL A   1     -27.072   1.013  27.654  0.00  0.00    -0.004 A 
BRANCH  20  23
ATOM     23  C   UNL A   1     -23.486   2.190  27.484  0.00  0.00    +0.388 C 
ATOM     24  O   UNL A   1     -23.562   3.151  26.708  0.00  0.00    -0.241 OA
ATOM     25  O   UNL A   1     -22.289   1.810  27.855  0.00  0.00    -0.241 OA
ENDBRANCH  20  23
ENDBRANCH  16  17
ENDBRANCH   1  16
TORSDOF 6
