MODEL 2304
MODEL 1
REMARK VINA RESULT:    -7.979      0.000      0.000
REMARK INTER + INTRA:         -12.094
REMARK INTER:                 -10.778
REMARK INTRA:                  -1.315
REMARK UNBOUND:                -1.315
REMARK  Name = No_2304-gen_results/8p0m/2024-11-26-14-13-15/
REMARK  6 active torsions:
REMARK  status: ('A' for Active; 'I' for Inactive)
REMARK    1  A    between atoms: C_1  and  C_2
REMARK    2  A    between atoms: C_1  and  C_8
REMARK    3  A    between atoms: C_5  and  C_10
REMARK    4  A    between atoms: C_8  and  C_9
REMARK    5  A    between atoms: C_8  and  C_18
REMARK    6  A    between atoms: C_20  and  C_23
REMARK                            x       y       z     vdW  Elec       q    Type
REMARK                         _______ _______ _______ _____ _____    ______ ____
ROOT
ATOM      1  C   UNL A   1     -23.800  -1.240  29.120  0.00  0.00    +0.047 C 
ENDROOT
BRANCH   1   2
ATOM      2  C   UNL A   1     -24.439  -2.550  29.242  0.00  0.00    -0.021 A 
ATOM      3  C   UNL A   1     -23.730  -3.524  28.821  0.00  0.00    -0.004 A 
ATOM      4  C   UNL A   1     -24.452  -4.811  28.940  0.00  0.00    -0.000 A 
ATOM      5  C   UNL A   1     -25.617  -4.905  29.389  0.00  0.00    -0.000 A 
ATOM      6  C   UNL A   1     -26.353  -3.842  29.856  0.00  0.00    -0.000 A 
ATOM      7  C   UNL A   1     -25.764  -2.586  29.770  0.00  0.00    -0.004 A 
ENDBRANCH   1   2
BRANCH   1   8
ATOM      8  C   UNL A   1     -24.088  -0.408  27.949  0.00  0.00    +0.101 C 
ATOM      9  N   UNL A   1     -23.415   0.493  27.598  0.00  0.00    -0.234 NA
ATOM     10  C   UNL A   1     -23.961   1.247  26.475  0.00  0.00    +0.129 C 
ATOM     11  C   UNL A   1     -24.983   0.922  26.040  0.00  0.00    -0.003 C 
ATOM     12  C   UNL A   1     -25.336  -0.442  27.197  0.00  0.00    +0.049 C 
BRANCH  10  13
ATOM     13  C   UNL A   1     -23.192   2.398  25.894  0.00  0.00    +0.348 C 
ATOM     14  O   UNL A   1     -23.755   3.375  25.524  0.00  0.00    -0.253 OA
ATOM     15  F   UNL A   1     -21.976   2.180  25.670  0.00  0.00    -0.157 F 
ENDBRANCH  10  13
ENDBRANCH   1   8
BRANCH   1  16
ATOM     16  C   UNL A   1     -22.928  -0.749  30.253  0.00  0.00    +0.032 C 
BRANCH  16  17
ATOM     17  C   UNL A   1     -23.514  -0.730  31.310  0.00  0.00    -0.022 A 
ATOM     18  C   UNL A   1     -23.083  -1.417  32.444  0.00  0.00    -0.004 A 
ATOM     19  C   UNL A   1     -23.739  -1.459  33.766  0.00  0.00    +0.006 A 
ATOM     20  C   UNL A   1     -24.815  -0.540  33.954  0.00  0.00    +0.080 A 
ATOM     21  C   UNL A   1     -25.252   0.205  32.853  0.00  0.00    +0.006 A 
ATOM     22  C   UNL A   1     -24.664   0.144  31.638  0.00  0.00    -0.004 A 
BRANCH  20  23
ATOM     23  C   UNL A   1     -25.419  -0.536  35.276  0.00  0.00    +0.388 C 
ATOM     24  O   UNL A   1     -24.712  -0.806  36.255  0.00  0.00    -0.241 OA
ATOM     25  O   UNL A   1     -26.707  -0.409  35.482  0.00  0.00    -0.241 OA
ENDBRANCH  20  23
ENDBRANCH  16  17
ENDBRANCH   1  16
TORSDOF 6
ENDMDL
ENDMDL
