MODEL 2305
MODEL 1
REMARK VINA RESULT:    -5.082      0.000      0.000
REMARK INTER + INTRA:          -5.924
REMARK INTER:                  -5.676
REMARK INTRA:                  -0.248
REMARK UNBOUND:                -0.248
REMARK  Name = No_2305-gen_results/8p0m/2024-11-26-14-13-15/
REMARK  2 active torsions:
REMARK  status: ('A' for Active; 'I' for Inactive)
REMARK    1  A    between atoms: C_2  and  C_5
REMARK    2  A    between atoms: C_5  and  C_9
REMARK                            x       y       z     vdW  Elec       q    Type
REMARK                         _______ _______ _______ _____ _____    ______ ____
ROOT
ATOM      1  C   UNL A   1     -23.957  -3.818  28.803  0.00  0.00    +0.001 A 
ATOM      2  C   UNL A   1     -24.314  -2.882  29.130  0.00  0.00    +0.015 A 
ATOM      3  C   UNL A   1     -24.802  -4.938  28.961  0.00  0.00    +0.000 A 
ATOM      4  C   UNL A   1     -26.053  -4.834  29.536  0.00  0.00    +0.000 A 
ATOM      5  C   UNL A   1     -26.427  -3.540  29.923  0.00  0.00    +0.000 A 
ATOM      6  C   UNL A   1     -25.597  -2.461  29.685  0.00  0.00    +0.001 A 
ENDROOT
BRANCH   2   7
ATOM      7  C   UNL A   1     -23.467  -1.614  28.938  0.00  0.00    +0.081 C 
ATOM      8  N   UNL A   1     -22.225  -1.424  29.074  0.00  0.00    -0.153 NA
BRANCH   7   9
ATOM      9  C   UNL A   1     -24.120  -0.303  28.637  0.00  0.00    +0.048 C 
ATOM     10  C   UNL A   1     -24.218   0.125  27.363  0.00  0.00    +0.007 C 
ENDBRANCH   7   9
ENDBRANCH   2   7
TORSDOF 2
ENDMDL
ENDMDL
