MODEL 2306
MODEL 1
REMARK VINA RESULT:    -5.979      0.000      0.000
REMARK INTER + INTRA:          -6.632
REMARK INTER:                  -6.329
REMARK INTRA:                  -0.303
REMARK UNBOUND:                -0.303
REMARK  Name = No_2306-gen_results/8p0m/2024-11-26-14-13-15/
REMARK  1 active torsions:
REMARK  status: ('A' for Active; 'I' for Inactive)
REMARK    1  A    between atoms: C_3  and  C_7
REMARK                            x       y       z     vdW  Elec       q    Type
REMARK                         _______ _______ _______ _____ _____    ______ ____
ROOT
ATOM      1  C   UNL A   1     -26.410  -3.668  29.865  0.00  0.00    -0.000 A 
ATOM      2  C   UNL A   1     -25.845  -2.616  29.677  0.00  0.00    -0.003 A 
ATOM      3  C   UNL A   1     -24.614  -2.506  29.030  0.00  0.00    -0.012 A 
ATOM      4  C   UNL A   1     -23.931  -3.712  28.604  0.00  0.00    -0.003 A 
ATOM      5  C   UNL A   1     -24.646  -4.903  28.865  0.00  0.00    -0.000 A 
ATOM      6  C   UNL A   1     -25.798  -4.907  29.486  0.00  0.00    -0.000 A 
ENDROOT
BRANCH   3   7
ATOM      7  C   UNL A   1     -23.870  -1.246  28.756  0.00  0.00    +0.078 C 
ATOM      8  S   UNL A   1     -22.554  -0.836  29.482  0.00  0.00    -0.110 S 
ATOM      9  C   UNL A   1     -22.239   0.528  28.519  0.00  0.00    +0.027 C 
ATOM     10  C   UNL A   1     -24.357  -0.369  27.718  0.00  0.00    +0.037 C 
ATOM     11  C   UNL A   1     -25.430  -0.411  26.938  0.00  0.00    +0.006 C 
ATOM     12  C   UNL A   1     -23.335   0.752  27.623  0.00  0.00    -0.019 C 
ENDBRANCH   3   7
TORSDOF 1
ENDMDL
ENDMDL
