REMARK  Name = No_2306-gen_results/8p0m/2024-11-26-14-13-15/
REMARK  1 active torsions:
REMARK  status: ('A' for Active; 'I' for Inactive)
REMARK    1  A    between atoms: C_3  and  C_7
REMARK                            x       y       z     vdW  Elec       q    Type
REMARK                         _______ _______ _______ _____ _____    ______ ____
ROOT
ATOM      1  C   UNL A   1     -28.016  -0.814  28.878  0.00  0.00    -0.000 A 
ATOM      2  C   UNL A   1     -27.064  -0.119  28.608  0.00  0.00    -0.003 A 
ATOM      3  C   UNL A   1     -25.765  -0.390  29.036  0.00  0.00    -0.012 A 
ATOM      4  C   UNL A   1     -25.530  -1.530  29.901  0.00  0.00    -0.003 A 
ATOM      5  C   UNL A   1     -26.689  -2.289  30.181  0.00  0.00    -0.000 A 
ATOM      6  C   UNL A   1     -27.873  -1.951  29.737  0.00  0.00    -0.000 A 
ENDROOT
BRANCH   3   7
ATOM      7  C   UNL A   1     -24.549   0.414  28.731  0.00  0.00    +0.078 C 
ATOM      8  S   UNL A   1     -23.124   0.070  29.258  0.00  0.00    -0.110 S 
ATOM      9  C   UNL A   1     -22.311   1.256  28.353  0.00  0.00    +0.027 C 
ATOM     10  C   UNL A   1     -24.675   1.549  27.850  0.00  0.00    +0.037 C 
ATOM     11  C   UNL A   1     -25.720   2.112  27.255  0.00  0.00    +0.006 C 
ATOM     12  C   UNL A   1     -23.262   2.079  27.666  0.00  0.00    -0.019 C 
ENDBRANCH   3   7
TORSDOF 1
