REMARK  Name = No_2307-gen_results/8p0m/2024-11-26-14-13-15/
REMARK  1 active torsions:
REMARK  status: ('A' for Active; 'I' for Inactive)
REMARK    1  A    between atoms: C_3  and  C_4
REMARK                            x       y       z     vdW  Elec       q    Type
REMARK                         _______ _______ _______ _____ _____    ______ ____
ROOT
ATOM      1  C   UNL A   1     -28.016  -0.814  28.878  0.00  0.00    -0.004 A 
ATOM      2  C   UNL A   1     -28.469  -0.785  29.829  0.00  0.00    -0.022 A 
ATOM      3  C   UNL A   1     -27.087   0.290  28.638  0.00  0.00    -0.001 A 
ATOM      4  C   UNL A   1     -29.607  -1.627  30.134  0.00  0.00    +0.031 C 
ATOM      5  C   UNL A   1     -28.000   0.009  31.082  0.00  0.00    -0.004 A 
ATOM      6  C   UNL A   1     -27.109   0.999  30.904  0.00  0.00    -0.000 A 
ATOM      7  C   UNL A   1     -27.011   1.422  29.518  0.00  0.00    -0.000 A 
ENDROOT
BRANCH   3   8
ATOM      8  C   UNL A   1     -26.910   0.849  27.420  0.00  0.00    -0.005 C 
ATOM      9  C   UNL A   1     -25.723   1.321  27.041  0.00  0.00    -0.026 C 
ATOM     10  C   UNL A   1     -25.419   1.825  25.769  0.00  0.00    +0.031 C 
ENDBRANCH   3   8
TORSDOF 1
