MODEL 2307
MODEL 1
REMARK VINA RESULT:    -5.315      0.000      0.000
REMARK INTER + INTRA:          -5.890
REMARK INTER:                  -5.626
REMARK INTRA:                  -0.264
REMARK UNBOUND:                -0.264
REMARK  Name = No_2307-gen_results/8p0m/2024-11-26-14-13-15/
REMARK  1 active torsions:
REMARK  status: ('A' for Active; 'I' for Inactive)
REMARK    1  A    between atoms: C_3  and  C_4
REMARK                            x       y       z     vdW  Elec       q    Type
REMARK                         _______ _______ _______ _____ _____    ______ ____
ROOT
ATOM      1  C   UNL A   1     -24.650  -0.240  27.628  0.00  0.00    -0.004 A 
ATOM      2  C   UNL A   1     -23.846   0.411  27.426  0.00  0.00    -0.022 A 
ATOM      3  C   UNL A   1     -24.334  -1.273  28.614  0.00  0.00    -0.001 A 
ATOM      4  C   UNL A   1     -23.887   1.310  26.291  0.00  0.00    +0.031 C 
ATOM      5  C   UNL A   1     -22.571   0.643  28.287  0.00  0.00    -0.004 A 
ATOM      6  C   UNL A   1     -22.277  -0.263  29.235  0.00  0.00    -0.000 A 
ATOM      7  C   UNL A   1     -22.988  -1.516  29.053  0.00  0.00    -0.000 A 
ENDROOT
BRANCH   3   8
ATOM      8  C   UNL A   1     -24.859  -2.518  28.566  0.00  0.00    -0.005 C 
ATOM      9  C   UNL A   1     -24.131  -3.589  28.880  0.00  0.00    -0.026 C 
ATOM     10  C   UNL A   1     -24.612  -4.903  28.956  0.00  0.00    +0.031 C 
ENDBRANCH   3   8
TORSDOF 1
ENDMDL
ENDMDL
