MODEL 2308
MODEL 1
REMARK VINA RESULT:    -6.074      0.000      0.000
REMARK INTER + INTRA:          -7.014
REMARK INTER:                  -6.784
REMARK INTRA:                  -0.230
REMARK UNBOUND:                -0.230
REMARK  Name = No_2308-gen_results/8p0m/2024-11-26-14-13-15/
REMARK  2 active torsions:
REMARK  status: ('A' for Active; 'I' for Inactive)
REMARK    1  A    between atoms: C_4  and  C_7
REMARK    2  A    between atoms: N_8  and  C_9
REMARK                            x       y       z     vdW  Elec       q    Type
REMARK                         _______ _______ _______ _____ _____    ______ ____
ROOT
ATOM      1  N   UNL A   1      -7.917   1.382   9.531  0.00  0.00    -0.228 NA
ATOM      2  C   UNL A   1      -8.013   0.916  10.521  0.00  0.00    +0.146 A 
ATOM      3  C   UNL A   1      -7.073   0.742   8.670  0.00  0.00    +0.105 A 
ATOM      4  C   UNL A   1      -6.421  -0.415   9.131  0.00  0.00    +0.075 A 
ATOM      5  C   UNL A   1      -7.518  -0.192  11.216  0.00  0.00    +0.036 A 
ATOM      6  C   UNL A   1      -6.629  -0.891  10.395  0.00  0.00    +0.009 A 
ATOM      7  N   UNL A   1      -9.006   1.679  11.348  0.00  0.00    -0.221 N 
ATOM      8  C   UNL A   1      -9.469   1.512  12.391  0.00  0.00    +0.112 C 
ATOM      9  C   UNL A   1     -10.338   2.310  13.002  0.00  0.00    +0.025 C 
ATOM     10  C   UNL A   1     -10.689   3.443  12.314  0.00  0.00    +0.023 C 
ATOM     11  C   UNL A   1     -10.123   3.788  11.153  0.00  0.00    +0.112 C 
ATOM     12  N   UNL A   1      -9.275   2.843  10.662  0.00  0.00    -0.129 NA
ENDROOT
BRANCH   4  13
ATOM     13  C   UNL A   1      -5.478  -1.134   8.205  0.00  0.00    +0.270 C 
ATOM     14  N   UNL A   1      -4.341  -1.431   8.381  0.00  0.00    -0.180 NA
ATOM     15  O   UNL A   1      -6.102  -1.400   7.011  0.00  0.00    -0.268 OA
BRANCH  14  16
ATOM     16  C   UNL A   1      -3.481  -2.075   7.571  0.00  0.00    +0.052 C 
ATOM     17  C   UNL A   1      -2.592  -1.408   6.739  0.00  0.00    +0.013 C 
ATOM     18  C   UNL A   1      -2.495  -2.977   8.443  0.00  0.00    +0.049 C 
ENDBRANCH  14  16
ENDBRANCH   4  13
TORSDOF 2
ENDMDL
ENDMDL
