REMARK  Name = No_2308-gen_results/8p0m/2024-11-26-14-13-15/
REMARK  2 active torsions:
REMARK  status: ('A' for Active; 'I' for Inactive)
REMARK    1  A    between atoms: C_4  and  C_7
REMARK    2  A    between atoms: N_8  and  C_9
REMARK                            x       y       z     vdW  Elec       q    Type
REMARK                         _______ _______ _______ _____ _____    ______ ____
ROOT
ATOM      1  N   UNL A   1     -28.054  -1.050  28.725  0.00  0.00    -0.228 NA
ATOM      2  C   UNL A   1     -28.654  -0.567  29.508  0.00  0.00    +0.146 A 
ATOM      3  C   UNL A   1     -26.778  -0.581  28.603  0.00  0.00    +0.105 A 
ATOM      4  C   UNL A   1     -26.375   0.454  29.465  0.00  0.00    +0.075 A 
ATOM      5  C   UNL A   1     -28.514   0.431  30.478  0.00  0.00    +0.036 A 
ATOM      6  C   UNL A   1     -27.227   0.970  30.401  0.00  0.00    +0.009 A 
ATOM      7  N   UNL A   1     -30.010  -1.207  29.577  0.00  0.00    -0.221 N 
ATOM      8  C   UNL A   1     -30.915  -1.082  30.281  0.00  0.00    +0.112 C 
ATOM      9  C   UNL A   1     -32.074  -1.724  30.192  0.00  0.00    +0.025 C 
ATOM     10  C   UNL A   1     -32.188  -2.601  29.144  0.00  0.00    +0.023 C 
ATOM     11  C   UNL A   1     -31.245  -2.733  28.206  0.00  0.00    +0.112 C 
ATOM     12  N   UNL A   1     -30.116  -2.020  28.470  0.00  0.00    -0.129 NA
ENDROOT
BRANCH   4  13
ATOM     13  C   UNL A   1     -24.976   0.995  29.345  0.00  0.00    +0.270 C 
ATOM     14  N   UNL A   1     -24.076   0.595  28.680  0.00  0.00    -0.180 NA
ATOM     15  O   UNL A   1     -24.812   2.067  30.188  0.00  0.00    -0.268 OA
BRANCH  14  16
ATOM     16  C   UNL A   1     -22.821   1.062  28.555  0.00  0.00    +0.052 C 
ATOM     17  C   UNL A   1     -21.732   0.234  28.317  0.00  0.00    +0.013 C 
ATOM     18  C   UNL A   1     -22.743   2.065  27.316  0.00  0.00    +0.049 C 
ENDBRANCH  14  16
ENDBRANCH   4  13
TORSDOF 2
