REMARK  Name = No_2309-gen_results/8p0m/2024-11-26-14-13-15/
REMARK  1 active torsions:
REMARK  status: ('A' for Active; 'I' for Inactive)
REMARK    1  A    between atoms: C_5  and  C_10
REMARK                            x       y       z     vdW  Elec       q    Type
REMARK                         _______ _______ _______ _____ _____    ______ ____
ROOT
ATOM      1  C   UNL A   1     -28.016  -0.814  28.878  0.00  0.00    +0.271 C 
ATOM      2  C   UNL A   1     -27.064  -0.119  28.608  0.00  0.00    +0.012 C 
ATOM      3  C   UNL A   1     -26.972   0.714  27.506  0.00  0.00    +0.027 C 
ATOM      4  C   UNL A   1     -25.820   1.491  27.116  0.00  0.00    +0.016 C 
ATOM      5  C   UNL A   1     -24.656   1.424  27.918  0.00  0.00    +0.104 C 
ATOM      6  C   UNL A   1     -24.685   0.590  29.066  0.00  0.00    +0.016 C 
ATOM      7  C   UNL A   1     -25.810  -0.127  29.334  0.00  0.00    +0.027 C 
ATOM      8  F   UNL A   1     -27.868  -1.997  29.285  0.00  0.00    -0.173 F 
ATOM      9  F   UNL A   1     -28.803  -0.190  29.873  0.00  0.00    -0.173 F 
ENDROOT
BRANCH   5  10
ATOM     10  C   UNL A   1     -23.473   2.218  27.615  0.00  0.00    +0.364 C 
ATOM     11  O   UNL A   1     -23.516   3.243  27.110  0.00  0.00    -0.246 OA
ATOM     12  O   UNL A   1     -22.190   1.664  27.817  0.00  0.00    -0.246 OA
ENDBRANCH   5  10
TORSDOF 1
