MODEL 2309
MODEL 1
REMARK VINA RESULT:    -5.753      0.000      0.000
REMARK INTER + INTRA:          -6.142
REMARK INTER:                  -6.089
REMARK INTRA:                  -0.053
REMARK UNBOUND:                -0.053
REMARK  Name = No_2309-gen_results/8p0m/2024-11-26-14-13-15/
REMARK  1 active torsions:
REMARK  status: ('A' for Active; 'I' for Inactive)
REMARK    1  A    between atoms: C_5  and  C_10
REMARK                            x       y       z     vdW  Elec       q    Type
REMARK                         _______ _______ _______ _____ _____    ______ ____
ROOT
ATOM      1  C   UNL A   1     -30.380 -10.515  29.220  0.00  0.00    +0.271 C 
ATOM      2  C   UNL A   1     -29.743 -10.780  30.213  0.00  0.00    +0.012 C 
ATOM      3  C   UNL A   1     -29.833 -10.109  31.421  0.00  0.00    +0.027 C 
ATOM      4  C   UNL A   1     -29.029 -10.351  32.595  0.00  0.00    +0.016 C 
ATOM      5  C   UNL A   1     -28.047 -11.368  32.544  0.00  0.00    +0.104 C 
ATOM      6  C   UNL A   1     -27.905 -12.097  31.334  0.00  0.00    +0.016 C 
ATOM      7  C   UNL A   1     -28.691 -11.775  30.272  0.00  0.00    +0.027 C 
ATOM      8  F   UNL A   1     -29.843 -10.508  28.080  0.00  0.00    -0.173 F 
ATOM      9  F   UNL A   1     -31.472 -11.405  29.095  0.00  0.00    -0.173 F 
ENDROOT
BRANCH   5  10
ATOM     10  C   UNL A   1     -27.233 -11.702  33.704  0.00  0.00    +0.364 C 
ATOM     11  O   UNL A   1     -26.828 -12.752  33.907  0.00  0.00    -0.246 OA
ATOM     12  O   UNL A   1     -27.031 -10.738  34.716  0.00  0.00    -0.246 OA
ENDBRANCH   5  10
TORSDOF 1
ENDMDL
ENDMDL
