MODEL 230
MODEL 1
REMARK VINA RESULT:    -5.926      0.000      0.000
REMARK INTER + INTRA:          -9.257
REMARK INTER:                  -8.005
REMARK INTRA:                  -1.252
REMARK UNBOUND:                -1.252
REMARK  Name = No_230-gen_results/8p0m/2024-11-26-14-13-15/
REMARK  6 active torsions:
REMARK  status: ('A' for Active; 'I' for Inactive)
REMARK    1  A    between atoms: C_2  and  C_12
REMARK    2  A    between atoms: C_4  and  C_5
REMARK    3  A    between atoms: C_12  and  N_13
REMARK    4  A    between atoms: N_13  and  C_15
REMARK    5  A    between atoms: C_16  and  C_17
REMARK    6  A    between atoms: C_18  and  C_19
REMARK                            x       y       z     vdW  Elec       q    Type
REMARK                         _______ _______ _______ _____ _____    ______ ____
ROOT
ATOM      1  C   UNL A   1     -22.750  -0.215  30.790  0.00  0.00    +0.055 A 
ATOM      2  C   UNL A   1     -23.615   0.608  30.602  0.00  0.00    +0.008 A 
ATOM      3  C   UNL A   1     -23.747   1.381  29.461  0.00  0.00    +0.002 A 
ATOM      4  C   UNL A   1     -22.801   1.162  28.417  0.00  0.00    +0.071 A 
ATOM      5  C   UNL A   1     -21.997  -0.681  29.652  0.00  0.00    +0.011 A 
ATOM      6  C   UNL A   1     -21.946   0.132  28.554  0.00  0.00    +0.005 A 
ATOM      7 CL   UNL A   1     -22.722  -1.200  32.246  0.00  0.00    -0.083 Cl
ENDROOT
BRANCH   4   8
ATOM      8  C   UNL A   1     -22.805   1.922  27.318  0.00  0.00    +0.419 C 
ATOM      9  F   UNL A   1     -23.068   2.962  27.131  0.00  0.00    -0.166 F 
ATOM     10  F   UNL A   1     -21.458   1.929  26.683  0.00  0.00    -0.166 F 
ATOM     11  F   UNL A   1     -23.422   1.129  26.206  0.00  0.00    -0.166 F 
ENDBRANCH   4   8
BRANCH   2  12
ATOM     12  C   UNL A   1     -24.631   1.048  31.755  0.00  0.00    +0.119 C 
BRANCH  12  13
ATOM     13  N   UNL A   1     -25.879   0.944  31.541  0.00  0.00    -0.301 N 
ATOM     14  C   UNL A   1     -26.694   1.983  31.679  0.00  0.00    +0.113 C 
BRANCH  13  15
ATOM     15  C   UNL A   1     -26.493  -0.155  30.829  0.00  0.00    +0.062 C 
ATOM     16  C   UNL A   1     -26.357  -1.341  31.310  0.00  0.00    +0.016 C 
BRANCH  16  17
ATOM     17  C   UNL A   1     -27.011  -2.357  30.514  0.00  0.00    +0.001 C 
ATOM     18  C   UNL A   1     -26.217  -3.188  29.702  0.00  0.00    +0.000 C 
BRANCH  18  19
ATOM     19  C   UNL A   1     -24.820  -3.049  29.737  0.00  0.00    +0.000 C 
ATOM     20  C   UNL A   1     -24.029  -3.717  28.817  0.00  0.00    +0.000 C 
ENDBRANCH  18  19
ENDBRANCH  16  17
ENDBRANCH  13  15
ENDBRANCH  12  13
ENDBRANCH   2  12
TORSDOF 6
ENDMDL
ENDMDL
