REMARK  Name = No_231-gen_results/8p0m/2024-11-26-14-13-15/
REMARK  2 active torsions:
REMARK  status: ('A' for Active; 'I' for Inactive)
REMARK    1  A    between atoms: C_5  and  C_7
REMARK    2  A    between atoms: CA_19  and  C_20
REMARK                            x       y       z     vdW  Elec       q    Type
REMARK                         _______ _______ _______ _____ _____    ______ ____
ROOT
ATOM      1  C   UNL A   1     -28.016  -0.814  28.878  0.00  0.00    +0.021 A 
ATOM      2  C   UNL A   1     -27.064  -0.119  28.608  0.00  0.00    -0.002 A 
ATOM      3  C   UNL A   1     -26.972   0.714  27.506  0.00  0.00    -0.020 A 
ATOM      4  C   UNL A   1     -28.105   0.774  26.642  0.00  0.00    +0.002 A 
ATOM      5  C   UNL A   1     -29.204   0.118  27.048  0.00  0.00    +0.080 A 
ATOM      6  C   UNL A   1     -29.213  -0.609  28.128  0.00  0.00    +0.008 A 
ATOM      7  C   UNL A   1     -25.659   1.403  27.133  0.00  0.00    +0.055 C 
ATOM      8  C   UNL A   1     -24.532   1.032  27.747  0.00  0.00    +0.015 A 
ATOM      9  C   UNL A   1     -24.311   0.096  28.705  0.00  0.00    +0.008 A 
ATOM     10  C   UNL A   1     -25.009  -0.505  29.224  0.00  0.00    +0.057 C 
ATOM     11  C   UNL A   1     -25.919  -0.593  29.202  0.00  0.00    +0.130 C 
ATOM     12  C   UNL A   1     -23.294   1.840  27.252  0.00  0.00    +0.166 A 
ATOM     13  N   UNL A   1     -23.309   2.844  26.429  0.00  0.00    -0.107 NA
ATOM     14  N   UNL A   1     -22.003   1.480  27.683  0.00  0.00    -0.224 NA
ATOM     15  N   UNL A   1     -26.460  -1.660  30.161  0.00  0.00    -0.261 NA
ATOM     16  CA  UNL A   1     -27.798  -1.627  29.953  0.00  0.00    +0.156 C 
ATOM     17  C   UNL A   1     -21.763   0.649  28.696  0.00  0.00    +0.130 A 
ATOM     18  C   UNL A   1     -22.795  -0.204  29.164  0.00  0.00    +0.155 A 
ATOM     19  F   UNL A   1     -22.558  -1.016  30.076  0.00  0.00    -0.203 F 
ENDROOT
BRANCH   5  20
ATOM     20  C   UNL A   1     -30.371   0.233  26.138  0.00  0.00    +0.388 C 
ATOM     21  O   UNL A   1     -31.252  -0.404  26.304  0.00  0.00    -0.241 OA
ATOM     22  O   UNL A   1     -30.312   1.018  25.072  0.00  0.00    -0.241 OA
ENDBRANCH   5  20
BRANCH  16  23
ATOM     23  C   UNL A   1     -28.699  -2.480  30.675  0.00  0.00    +0.405 C 
ATOM     24  O   UNL A   1     -29.573  -2.096  31.279  0.00  0.00    -0.239 OA
ATOM     25  OXT UNL A   1     -28.557  -3.829  30.305  0.00  0.00    -0.239 OA
ENDBRANCH  16  23
TORSDOF 2
