MODEL 2310
MODEL 1
REMARK VINA RESULT:    -4.346      0.000      0.000
REMARK INTER + INTRA:          -4.346
REMARK INTER:                  -4.346
REMARK INTRA:                   0.000
REMARK UNBOUND:                 0.000
REMARK  Name = No_2310-gen_results/8p0m/2024-11-26-14-13-15/
REMARK  0 active torsions:
REMARK  status: ('A' for Active; 'I' for Inactive)
REMARK                            x       y       z     vdW  Elec       q    Type
REMARK                         _______ _______ _______ _____ _____    ______ ____
ROOT
ATOM      1  C   UNL A   1     -24.975  -5.426  29.008  0.00  0.00    +0.000 A 
ATOM      2  C   UNL A   1     -24.223  -4.756  28.698  0.00  0.00    +0.000 A 
ATOM      3  C   UNL A   1     -26.157  -4.760  29.569  0.00  0.00    +0.000 A 
ATOM      4  C   UNL A   1     -26.188  -3.451  29.826  0.00  0.00    +0.000 A 
ATOM      5  C   UNL A   1     -24.025  -3.339  28.884  0.00  0.00    +0.000 A 
ATOM      6  C   UNL A   1     -25.124  -2.742  29.428  0.00  0.00    +0.000 A 
ENDROOT
TORSDOF 0
ENDMDL
ENDMDL
