REMARK  Name = No_2311-gen_results/8p0m/2024-11-26-14-13-15/
REMARK  3 active torsions:
REMARK  status: ('A' for Active; 'I' for Inactive)
REMARK    1  A    between atoms: C_1  and  O_7
REMARK    2  A    between atoms: C_5  and  N_8
REMARK    3  A    between atoms: O_7  and  C_11
REMARK                            x       y       z     vdW  Elec       q    Type
REMARK                         _______ _______ _______ _____ _____    ______ ____
ROOT
ATOM      1  C   UNL A   1     -28.016  -0.814  28.878  0.00  0.00    +0.147 A 
ATOM      2  C   UNL A   1     -27.064  -0.119  28.608  0.00  0.00    +0.038 A 
ATOM      3  C   UNL A   1     -27.001   0.691  27.491  0.00  0.00    +0.004 A 
ATOM      4  C   UNL A   1     -28.137   0.736  26.635  0.00  0.00    +0.015 A 
ATOM      5  C   UNL A   1     -29.236   0.076  27.069  0.00  0.00    +0.051 A 
ATOM      6  C   UNL A   1     -29.218  -0.643  28.175  0.00  0.00    +0.052 A 
ENDROOT
BRANCH   5   7
ATOM      7  N   UNL A   1     -30.361   0.149  26.262  0.00  0.00    -0.304 N 
ATOM      8  C   UNL A   1     -30.343   0.192  24.928  0.00  0.00    +0.112 C 
ATOM      9  C   UNL A   1     -31.660  -0.048  26.834  0.00  0.00    +0.112 C 
ENDBRANCH   5   7
BRANCH   1  10
ATOM     10  O   UNL A   1     -27.787  -1.584  30.023  0.00  0.00    -0.451 OA
BRANCH  10  11
ATOM     11  C   UNL A   1     -26.676  -2.309  30.024  0.00  0.00    +0.175 C 
ATOM     12  C   UNL A   1     -26.427  -3.469  30.209  0.00  0.00    +0.015 C 
ATOM     13  C   UNL A   1     -27.679  -4.310  30.147  0.00  0.00    +0.034 C 
ENDBRANCH  10  11
ENDBRANCH   1  10
TORSDOF 3
