MODEL 2311
MODEL 1
REMARK VINA RESULT:    -5.593      0.000      0.000
REMARK INTER + INTRA:          -6.881
REMARK INTER:                  -6.574
REMARK INTRA:                  -0.307
REMARK UNBOUND:                -0.307
REMARK  Name = No_2311-gen_results/8p0m/2024-11-26-14-13-15/
REMARK  3 active torsions:
REMARK  status: ('A' for Active; 'I' for Inactive)
REMARK    1  A    between atoms: C_1  and  O_7
REMARK    2  A    between atoms: C_5  and  N_8
REMARK    3  A    between atoms: O_7  and  C_11
REMARK                            x       y       z     vdW  Elec       q    Type
REMARK                         _______ _______ _______ _____ _____    ______ ____
ROOT
ATOM      1  C   UNL A   1     -24.120  -3.049  29.144  0.00  0.00    +0.147 A 
ATOM      2  C   UNL A   1     -23.949  -4.185  28.764  0.00  0.00    +0.038 A 
ATOM      3  C   UNL A   1     -24.863  -5.202  28.961  0.00  0.00    +0.004 A 
ATOM      4  C   UNL A   1     -26.087  -4.882  29.613  0.00  0.00    +0.015 A 
ATOM      5  C   UNL A   1     -26.303  -3.570  29.864  0.00  0.00    +0.051 A 
ATOM      6  C   UNL A   1     -25.386  -2.657  29.604  0.00  0.00    +0.052 A 
ENDROOT
BRANCH   5   7
ATOM      7  N   UNL A   1     -27.511  -3.244  30.460  0.00  0.00    -0.304 N 
ATOM      8  C   UNL A   1     -27.928  -2.002  30.715  0.00  0.00    +0.112 C 
ATOM      9  C   UNL A   1     -28.510  -4.256  30.641  0.00  0.00    +0.112 C 
ENDBRANCH   5   7
BRANCH   1  10
ATOM     10  O   UNL A   1     -23.010  -2.241  28.877  0.00  0.00    -0.451 OA
BRANCH  10  11
ATOM     11  C   UNL A   1     -23.107  -0.975  29.260  0.00  0.00    +0.175 C 
ATOM     12  C   UNL A   1     -22.327  -0.070  29.384  0.00  0.00    +0.015 C 
ATOM     13  C   UNL A   1     -21.023  -0.378  28.688  0.00  0.00    +0.034 C 
ENDBRANCH  10  11
ENDBRANCH   1  10
TORSDOF 3
ENDMDL
ENDMDL
