MODEL 2312
MODEL 1
REMARK VINA RESULT:    -6.269      0.000      0.000
REMARK INTER + INTRA:         -10.688
REMARK INTER:                  -8.101
REMARK INTRA:                  -2.587
REMARK UNBOUND:                -2.587
REMARK  Name = No_2312-gen_results/8p0m/2024-11-26-14-13-15/
REMARK  5 active torsions:
REMARK  status: ('A' for Active; 'I' for Inactive)
REMARK    1  A    between atoms: C_1  and  C_2
REMARK    2  A    between atoms: C_1  and  C_8
REMARK    3  A    between atoms: C_8  and  C_9
REMARK    4  A    between atoms: C_15  and  N_16
REMARK    5  A    between atoms: C_20  and  N_21
REMARK                            x       y       z     vdW  Elec       q    Type
REMARK                         _______ _______ _______ _____ _____    ______ ____
ROOT
ATOM      1  C   UNL A   1     -25.887  -2.881  29.704  0.00  0.00    +0.093 C 
ATOM      2  C   UNL A   1     -26.411  -4.128  29.696  0.00  0.00    +0.242 C 
ATOM      3  O   UNL A   1     -27.395  -4.413  30.375  0.00  0.00    -0.273 OA
ATOM      4  N   UNL A   1     -25.593  -5.237  29.349  0.00  0.00    -0.205 NA
ATOM      5  C   UNL A   1     -24.344  -5.069  28.701  0.00  0.00    +0.117 C 
ATOM      6  C   UNL A   1     -24.532  -2.769  29.527  0.00  0.00    +0.070 C 
ATOM      7  C   UNL A   1     -23.830  -3.776  28.848  0.00  0.00    +0.040 C 
ENDROOT
BRANCH   6   8
ATOM      8  N   UNL A   1     -24.004  -1.479  29.413  0.00  0.00    -0.256 NA
ATOM      9  C   UNL A   1     -24.235  -0.828  28.175  0.00  0.00    +0.074 C 
ATOM     10  C   UNL A   1     -23.970   0.233  27.963  0.00  0.00    +0.016 C 
ATOM     11  C   UNL A   1     -23.288  -0.737  30.310  0.00  0.00    +0.162 C 
ATOM     12  C   UNL A   1     -24.155   0.872  26.676  0.00  0.00    +0.001 C 
ATOM     13  C   UNL A   1     -22.792   0.497  30.035  0.00  0.00    +0.041 C 
ATOM     14  C   UNL A   1     -23.048   1.055  28.839  0.00  0.00    +0.005 C 
BRANCH  11  15
ATOM     15  N   UNL A   1     -22.965  -1.265  31.590  0.00  0.00    -0.259 NA
ATOM     16  C   UNL A   1     -23.565  -0.898  32.680  0.00  0.00    +0.069 C 
ATOM     17  C   UNL A   1     -24.694  -0.075  32.562  0.00  0.00    +0.053 C 
ENDBRANCH  11  15
ENDBRANCH   6   8
BRANCH   1  18
ATOM     18  C   UNL A   1     -26.637  -1.880  30.367  0.00  0.00    +0.015 C 
BRANCH  18  19
ATOM     19  C   UNL A   1     -27.761  -1.086  29.662  0.00  0.00    +0.027 C 
BRANCH  19  20
ATOM     20  C   UNL A   1     -27.515   0.020  29.240  0.00  0.00    -0.022 A 
ATOM     21  C   UNL A   1     -27.867   0.455  28.003  0.00  0.00    -0.003 A 
ATOM     22  C   UNL A   1     -27.575   1.806  27.472  0.00  0.00    +0.011 A 
ATOM     23  C   UNL A   1     -26.892   2.713  28.347  0.00  0.00    +0.058 A 
ATOM     24  C   UNL A   1     -26.609   2.247  29.651  0.00  0.00    +0.011 A 
ATOM     25  C   UNL A   1     -26.910   0.978  30.074  0.00  0.00    -0.003 A 
ATOM     26 CL   UNL A   1     -26.514   4.278  27.876  0.00  0.00    -0.082 Cl
ENDBRANCH  19  20
ENDBRANCH  18  19
ENDBRANCH   1  18
TORSDOF 5
ENDMDL
ENDMDL
