REMARK  Name = No_2312-gen_results/8p0m/2024-11-26-14-13-15/
REMARK  5 active torsions:
REMARK  status: ('A' for Active; 'I' for Inactive)
REMARK    1  A    between atoms: C_1  and  C_2
REMARK    2  A    between atoms: C_1  and  C_8
REMARK    3  A    between atoms: C_8  and  C_9
REMARK    4  A    between atoms: C_15  and  N_16
REMARK    5  A    between atoms: C_20  and  N_21
REMARK                            x       y       z     vdW  Elec       q    Type
REMARK                         _______ _______ _______ _____ _____    ______ ____
ROOT
ATOM      1  C   UNL A   1     -29.064  -2.458  30.592  0.00  0.00    +0.093 C 
ATOM      2  C   UNL A   1     -28.703  -3.756  30.712  0.00  0.00    +0.242 C 
ATOM      3  O   UNL A   1     -27.589  -4.145  30.366  0.00  0.00    -0.273 OA
ATOM      4  N   UNL A   1     -29.700  -4.768  30.736  0.00  0.00    -0.205 NA
ATOM      5  C   UNL A   1     -31.065  -4.465  30.964  0.00  0.00    +0.117 C 
ATOM      6  C   UNL A   1     -30.385  -2.195  30.338  0.00  0.00    +0.070 C 
ATOM      7  C   UNL A   1     -31.368  -3.122  30.717  0.00  0.00    +0.040 C 
ENDROOT
BRANCH   6   8
ATOM      8  N   UNL A   1     -30.784  -0.855  30.334  0.00  0.00    -0.256 NA
ATOM      9  C   UNL A   1     -31.419  -0.407  29.148  0.00  0.00    +0.074 C 
ATOM     10  C   UNL A   1     -31.883   0.598  29.025  0.00  0.00    +0.016 C 
ATOM     11  C   UNL A   1     -30.655   0.107  31.297  0.00  0.00    +0.162 C 
ATOM     12  C   UNL A   1     -32.477   1.069  27.790  0.00  0.00    +0.001 C 
ATOM     13  C   UNL A   1     -31.050   1.395  31.127  0.00  0.00    +0.041 C 
ATOM     14  C   UNL A   1     -31.645   1.752  29.976  0.00  0.00    +0.005 C 
BRANCH  11  15
ATOM     15  N   UNL A   1     -30.023  -0.191  32.535  0.00  0.00    -0.259 NA
ATOM     16  C   UNL A   1     -29.728   0.715  33.416  0.00  0.00    +0.069 C 
ATOM     17  C   UNL A   1     -30.211   2.014  33.207  0.00  0.00    +0.053 C 
ENDBRANCH  11  15
ENDBRANCH   6   8
BRANCH   1  18
ATOM     18  C   UNL A   1     -28.042  -1.543  30.242  0.00  0.00    +0.015 C 
BRANCH  18  19
ATOM     19  C   UNL A   1     -28.016  -0.814  28.878  0.00  0.00    +0.027 C 
BRANCH  19  20
ATOM     20  C   UNL A   1     -27.064  -0.119  28.608  0.00  0.00    -0.022 A 
ATOM     21  C   UNL A   1     -26.929   1.171  29.008  0.00  0.00    -0.003 A 
ATOM     22  C   UNL A   1     -25.770   2.034  28.688  0.00  0.00    +0.011 A 
ATOM     23  C   UNL A   1     -24.714   1.443  27.919  0.00  0.00    +0.058 A 
ATOM     24  C   UNL A   1     -24.859   0.078  27.584  0.00  0.00    +0.011 A 
ATOM     25  C   UNL A   1     -25.965  -0.661  27.916  0.00  0.00    -0.003 A 
ATOM     26 CL   UNL A   1     -23.338   2.306  27.500  0.00  0.00    -0.082 Cl
ENDBRANCH  19  20
ENDBRANCH  18  19
ENDBRANCH   1  18
TORSDOF 5
