REMARK  Name = No_2313-gen_results/8p0m/2024-11-26-14-13-15/
REMARK  3 active torsions:
REMARK  status: ('A' for Active; 'I' for Inactive)
REMARK    1  A    between atoms: C_1  and  C_2
REMARK    2  A    between atoms: C_1  and  C_8
REMARK    3  A    between atoms: C_5  and  C_14
REMARK                            x       y       z     vdW  Elec       q    Type
REMARK                         _______ _______ _______ _____ _____    ______ ____
ROOT
ATOM      1  C   UNL A   1     -28.016  -0.814  28.878  0.00  0.00    +0.053 C 
ENDROOT
BRANCH   1   2
ATOM      2  C   UNL A   1     -29.245  -0.068  29.194  0.00  0.00    -0.018 A 
ATOM      3  C   UNL A   1     -29.594   0.118  30.425  0.00  0.00    -0.004 A 
ATOM      4  C   UNL A   1     -30.905   0.581  30.698  0.00  0.00    -0.000 A 
ATOM      5  C   UNL A   1     -31.717   0.858  29.593  0.00  0.00    +0.002 A 
ATOM      6  C   UNL A   1     -30.400  -0.096  28.296  0.00  0.00    -0.001 A 
ATOM      7  C   UNL A   1     -31.482   0.476  28.428  0.00  0.00    +0.019 A 
ATOM      8  C   UNL A   1     -32.416   0.566  27.297  0.00  0.00    +0.099 A 
ATOM      9  N   UNL A   1     -32.474  -0.042  26.359  0.00  0.00    -0.242 NA
ATOM     10  C   UNL A   1     -31.580  -1.013  26.221  0.00  0.00    +0.099 A 
ATOM     11  C   UNL A   1     -30.352  -0.951  26.987  0.00  0.00    +0.020 A 
ENDBRANCH   1   2
BRANCH   1  12
ATOM     12  C   UNL A   1     -27.064  -0.119  28.608  0.00  0.00    -0.018 A 
ATOM     13  C   UNL A   1     -27.001   0.691  27.491  0.00  0.00    -0.004 A 
ATOM     14  C   UNL A   1     -25.855   1.482  27.083  0.00  0.00    +0.004 A 
ATOM     15  C   UNL A   1     -24.690   1.453  27.881  0.00  0.00    +0.048 A 
ATOM     16  C   UNL A   1     -24.738   0.601  29.042  0.00  0.00    +0.004 A 
ATOM     17  C   UNL A   1     -25.823  -0.169  29.389  0.00  0.00    -0.004 A 
BRANCH  15  18
ATOM     18  C   UNL A   1     -23.500   2.175  27.564  0.00  0.00    +0.242 C 
ATOM     19  N   UNL A   1     -22.352   1.863  28.171  0.00  0.00    -0.116 NA
ATOM     20  F   UNL A   1     -23.512   2.930  26.572  0.00  0.00    -0.181 F 
ENDBRANCH  15  18
ENDBRANCH   1  12
TORSDOF 3
