REMARK  Name = No_2314-gen_results/8p0m/2024-11-26-14-13-15/
REMARK  0 active torsions:
REMARK  status: ('A' for Active; 'I' for Inactive)
REMARK                            x       y       z     vdW  Elec       q    Type
REMARK                         _______ _______ _______ _____ _____    ______ ____
ROOT
ATOM      1  C   UNL A   1     -28.016  -0.814  28.878  0.00  0.00    +0.032 C 
ATOM      2  C   UNL A   1     -27.064  -0.119  28.608  0.00  0.00    -0.007 A 
ATOM      3  C   UNL A   1     -25.765  -0.390  29.036  0.00  0.00    +0.067 A 
ATOM      4  C   UNL A   1     -24.552   0.406  28.765  0.00  0.00    +0.016 A 
ATOM      5  C   UNL A   1     -24.696   1.448  27.799  0.00  0.00    +0.001 A 
ATOM      6  C   UNL A   1     -25.976   1.725  27.308  0.00  0.00    -0.000 A 
ATOM      7  C   UNL A   1     -27.072   1.013  27.654  0.00  0.00    -0.003 A 
ATOM      8  C   UNL A   1     -28.618  -0.469  30.221  0.00  0.00    +0.032 C 
ATOM      9  C   UNL A   1     -28.311   0.506  30.787  0.00  0.00    -0.007 A 
ATOM     10  C   UNL A   1     -28.612   1.097  31.814  0.00  0.00    -0.003 A 
ATOM     11  C   UNL A   1     -28.123   2.366  32.421  0.00  0.00    -0.000 A 
ATOM     12  C   UNL A   1     -27.066   2.983  31.660  0.00  0.00    +0.001 A 
ATOM     13  C   UNL A   1     -26.569   2.330  30.566  0.00  0.00    +0.016 A 
ATOM     14  C   UNL A   1     -27.063   1.186  30.197  0.00  0.00    +0.067 A 
ATOM     15  N   UNL A   1     -26.340   0.687  29.571  0.00  0.00    -0.213 NA
ENDROOT
TORSDOF 0
