REMARK  Name = No_2315-gen_results/8p0m/2024-11-26-14-13-15/
REMARK  5 active torsions:
REMARK  status: ('A' for Active; 'I' for Inactive)
REMARK    1  A    between atoms: C_3  and  C_4
REMARK    2  A    between atoms: C_11  and  C_13
REMARK    3  A    between atoms: C_13  and  O_15
REMARK    4  A    between atoms: O_15  and  C_16
REMARK    5  A    between atoms: C_16  and  C_17
REMARK                            x       y       z     vdW  Elec       q    Type
REMARK                         _______ _______ _______ _____ _____    ______ ____
ROOT
ATOM      1  C   UNL A   1     -26.252   0.411  27.422  0.00  0.00    +0.006 A 
ATOM      2  C   UNL A   1     -24.953   0.351  27.669  0.00  0.00    +0.000 A 
ATOM      3  C   UNL A   1     -24.041   0.525  26.544  0.00  0.00    +0.000 A 
ATOM      4  C   UNL A   1     -24.601   0.904  25.326  0.00  0.00    +0.000 A 
ATOM      5  C   UNL A   1     -26.679   0.671  26.166  0.00  0.00    +0.076 A 
ATOM      6  C   UNL A   1     -25.930   0.842  25.119  0.00  0.00    +0.006 A 
ENDROOT
BRANCH   1   9
ATOM      7  C   UNL A   1     -28.016  -0.814  28.878  0.00  0.00    +0.000 A 
ATOM      8  C   UNL A   1     -28.469  -0.785  29.829  0.00  0.00    +0.000 A 
ATOM      9  C   UNL A   1     -27.087   0.290  28.638  0.00  0.00    +0.000 A 
ATOM     10  C   UNL A   1     -28.314  -0.127  30.710  0.00  0.00    +0.000 A 
ATOM     11  C   UNL A   1     -27.483   1.008  30.810  0.00  0.00    +0.000 A 
ATOM     12  C   UNL A   1     -26.777   1.172  29.687  0.00  0.00    +0.000 A 
ENDBRANCH   1   9
BRANCH   5  13
ATOM     13  C   UNL A   1     -28.173   0.666  25.908  0.00  0.00    +0.341 C 
ATOM     14  O   UNL A   1     -28.987   1.203  26.606  0.00  0.00    -0.245 OA
BRANCH  13  15
ATOM     15  O   UNL A   1     -28.596  -0.288  25.002  0.00  0.00    -0.443 OA
BRANCH  15  16
ATOM     16  C   UNL A   1     -29.718   0.050  24.248  0.00  0.00    +0.244 C 
BRANCH  16  17
ATOM     17  C   UNL A   1     -30.871   0.061  24.995  0.00  0.00    +0.229 C 
ATOM     18  O   UNL A   1     -30.862   0.743  25.988  0.00  0.00    -0.216 OA
ENDBRANCH  16  17
ENDBRANCH  15  16
ENDBRANCH  13  15
ENDBRANCH   5  13
TORSDOF 5
