MODEL 2315
MODEL 1
REMARK VINA RESULT:    -6.362      0.000      0.000
REMARK INTER + INTRA:          -9.100
REMARK INTER:                  -8.222
REMARK INTRA:                  -0.878
REMARK UNBOUND:                -0.878
REMARK  Name = No_2315-gen_results/8p0m/2024-11-26-14-13-15/
REMARK  5 active torsions:
REMARK  status: ('A' for Active; 'I' for Inactive)
REMARK    1  A    between atoms: C_3  and  C_4
REMARK    2  A    between atoms: C_11  and  C_13
REMARK    3  A    between atoms: C_13  and  O_15
REMARK    4  A    between atoms: O_15  and  C_16
REMARK    5  A    between atoms: C_16  and  C_17
REMARK                            x       y       z     vdW  Elec       q    Type
REMARK                         _______ _______ _______ _____ _____    ______ ____
ROOT
ATOM      1  C   UNL A   1     -24.538  -2.598  29.045  0.00  0.00    +0.006 A 
ATOM      2  C   UNL A   1     -24.018  -3.741  28.628  0.00  0.00    +0.000 A 
ATOM      3  C   UNL A   1     -24.738  -4.969  28.945  0.00  0.00    +0.000 A 
ATOM      4  C   UNL A   1     -26.001  -4.834  29.518  0.00  0.00    +0.000 A 
ATOM      5  C   UNL A   1     -25.721  -2.605  29.700  0.00  0.00    +0.076 A 
ATOM      6  C   UNL A   1     -26.421  -3.654  30.012  0.00  0.00    +0.006 A 
ENDROOT
BRANCH   1   9
ATOM      7  C   UNL A   1     -24.310  -0.358  27.757  0.00  0.00    +0.000 A 
ATOM      8  C   UNL A   1     -23.652   0.453  27.616  0.00  0.00    +0.000 A 
ATOM      9  C   UNL A   1     -23.768  -1.410  28.615  0.00  0.00    +0.000 A 
ATOM     10  C   UNL A   1     -22.664   0.698  28.059  0.00  0.00    +0.000 A 
ATOM     11  C   UNL A   1     -21.883  -0.091  28.929  0.00  0.00    +0.000 A 
ATOM     12  C   UNL A   1     -22.540  -1.205  29.266  0.00  0.00    +0.000 A 
ENDBRANCH   1   9
BRANCH   5  13
ATOM     13  C   UNL A   1     -26.254  -1.285  30.220  0.00  0.00    +0.341 C 
ATOM     14  O   UNL A   1     -27.087  -0.621  29.669  0.00  0.00    -0.245 OA
BRANCH  13  15
ATOM     15  O   UNL A   1     -25.479  -0.701  31.204  0.00  0.00    -0.443 OA
BRANCH  15  16
ATOM     16  C   UNL A   1     -25.394   0.690  31.161  0.00  0.00    +0.244 C 
BRANCH  16  17
ATOM     17  C   UNL A   1     -24.157   1.154  31.539  0.00  0.00    +0.229 C 
ATOM     18  O   UNL A   1     -23.800   2.194  31.048  0.00  0.00    -0.216 OA
ENDBRANCH  16  17
ENDBRANCH  15  16
ENDBRANCH  13  15
ENDBRANCH   5  13
TORSDOF 5
ENDMDL
ENDMDL
