MODEL 2316
MODEL 1
REMARK VINA RESULT:    -5.342      0.000      0.000
REMARK INTER + INTRA:          -6.145
REMARK INTER:                  -5.966
REMARK INTRA:                  -0.179
REMARK UNBOUND:                -0.179
REMARK  Name = No_2316-gen_results/8p0m/2024-11-26-14-13-15/
REMARK  2 active torsions:
REMARK  status: ('A' for Active; 'I' for Inactive)
REMARK    1  A    between atoms: C_1  and  C_2
REMARK    2  A    between atoms: C_5  and  C_9
REMARK                            x       y       z     vdW  Elec       q    Type
REMARK                         _______ _______ _______ _____ _____    ______ ____
ROOT
ATOM      1  C   UNL A   1     -23.833  -1.902  29.024  0.00  0.00    -0.003 A 
ATOM      2  C   UNL A   1     -22.603  -1.285  29.248  0.00  0.00    -0.003 A 
ATOM      3  C   UNL A   1     -22.170   0.042  28.767  0.00  0.00    +0.004 A 
ATOM      4  C   UNL A   1     -23.027   0.666  27.809  0.00  0.00    +0.071 A 
ATOM      5  C   UNL A   1     -24.253   0.057  27.520  0.00  0.00    +0.004 A 
ATOM      6  C   UNL A   1     -24.637  -1.124  28.054  0.00  0.00    -0.003 A 
ENDROOT
BRANCH   4   7
ATOM      7  C   UNL A   1     -22.571   1.925  27.285  0.00  0.00    +0.419 C 
ATOM      8  F   UNL A   1     -21.437   2.265  27.554  0.00  0.00    -0.166 F 
ATOM      9  F   UNL A   1     -23.454   2.945  27.510  0.00  0.00    -0.166 F 
ATOM     10  F   UNL A   1     -22.706   1.925  25.888  0.00  0.00    -0.166 F 
ENDBRANCH   4   7
BRANCH   1  11
ATOM     11  C   UNL A   1     -24.124  -2.992  29.459  0.00  0.00    +0.136 C 
ATOM     12  N   UNL A   1     -23.713  -4.132  28.736  0.00  0.00    -0.126 NA
ENDBRANCH   1  11
TORSDOF 2
ENDMDL
ENDMDL
