REMARK  Name = No_2316-gen_results/8p0m/2024-11-26-14-13-15/
REMARK  2 active torsions:
REMARK  status: ('A' for Active; 'I' for Inactive)
REMARK    1  A    between atoms: C_1  and  C_2
REMARK    2  A    between atoms: C_5  and  C_9
REMARK                            x       y       z     vdW  Elec       q    Type
REMARK                         _______ _______ _______ _____ _____    ______ ____
ROOT
ATOM      1  C   UNL A   1     -27.064  -0.119  28.608  0.00  0.00    -0.003 A 
ATOM      2  C   UNL A   1     -25.765  -0.390  29.036  0.00  0.00    -0.003 A 
ATOM      3  C   UNL A   1     -24.552   0.406  28.765  0.00  0.00    +0.004 A 
ATOM      4  C   UNL A   1     -24.696   1.448  27.799  0.00  0.00    +0.071 A 
ATOM      5  C   UNL A   1     -25.976   1.725  27.308  0.00  0.00    +0.004 A 
ATOM      6  C   UNL A   1     -27.072   1.013  27.654  0.00  0.00    -0.003 A 
ENDROOT
BRANCH   4   7
ATOM      7  C   UNL A   1     -23.499   2.178  27.479  0.00  0.00    +0.419 C 
ATOM      8  F   UNL A   1     -22.531   1.536  27.125  0.00  0.00    -0.166 F 
ATOM      9  F   UNL A   1     -23.157   3.087  28.442  0.00  0.00    -0.166 F 
ATOM     10  F   UNL A   1     -23.782   3.125  26.483  0.00  0.00    -0.166 F 
ENDBRANCH   4   7
BRANCH   1  11
ATOM     11  C   UNL A   1     -28.016  -0.814  28.878  0.00  0.00    +0.136 C 
ATOM     12  N   UNL A   1     -27.890  -1.739  29.936  0.00  0.00    -0.126 NA
ENDBRANCH   1  11
TORSDOF 2
