MODEL 2317
MODEL 1
REMARK VINA RESULT:    -6.388      0.000      0.000
REMARK INTER + INTRA:          -9.272
REMARK INTER:                  -7.882
REMARK INTRA:                  -1.390
REMARK UNBOUND:                -1.390
REMARK  Name = No_2317-gen_results/8p0m/2024-11-26-14-13-15/
REMARK  4 active torsions:
REMARK  status: ('A' for Active; 'I' for Inactive)
REMARK    1  A    between atoms: C_3  and  C_7
REMARK    2  A    between atoms: C_6  and  C_13
REMARK    3  A    between atoms: C_13  and  N_14
REMARK    4  A    between atoms: C_15  and  C_16
REMARK                            x       y       z     vdW  Elec       q    Type
REMARK                         _______ _______ _______ _____ _____    ______ ____
ROOT
ATOM      1  C   UNL A   1     -25.017   1.611  27.990  0.00  0.00    -0.002 A 
ATOM      2  C   UNL A   1     -26.043   1.527  27.356  0.00  0.00    -0.000 A 
ATOM      3  C   UNL A   1     -26.087   1.207  25.999  0.00  0.00    -0.000 A 
ATOM      4  C   UNL A   1     -24.844   1.019  25.277  0.00  0.00    -0.000 A 
ATOM      5  C   UNL A   1     -23.685   1.145  26.042  0.00  0.00    -0.002 A 
ATOM      6  C   UNL A   1     -23.734   1.461  27.322  0.00  0.00    +0.002 A 
ENDROOT
BRANCH   3   7
ATOM      7  C   UNL A   1     -27.310   1.077  25.155  0.00  0.00    -0.000 A 
ATOM      8  C   UNL A   1     -27.645  -0.045  24.593  0.00  0.00    -0.000 A 
ATOM      9  C   UNL A   1     -28.711  -0.117  23.694  0.00  0.00    +0.000 A 
ATOM     10  C   UNL A   1     -29.457   0.964  23.300  0.00  0.00    +0.000 A 
ATOM     11  C   UNL A   1     -27.968   2.238  24.513  0.00  0.00    -0.000 A 
ATOM     12  C   UNL A   1     -29.039   2.175  23.680  0.00  0.00    +0.000 A 
ENDBRANCH   3   7
BRANCH   6  13
ATOM     13  C   UNL A   1     -22.446   1.638  28.058  0.00  0.00    +0.152 C 
BRANCH  13  14
ATOM     14  N   UNL A   1     -21.462   0.734  27.964  0.00  0.00    -0.264 NA
ATOM     15  C   UNL A   1     -21.305  -0.243  28.914  0.00  0.00    +0.093 C 
BRANCH  15  16
ATOM     16  C   UNL A   1     -22.374  -0.784  29.525  0.00  0.00    +0.019 A 
ATOM     17  C   UNL A   1     -23.100  -1.697  28.945  0.00  0.00    +0.002 A 
ATOM     18  C   UNL A   1     -24.473  -1.823  29.223  0.00  0.00    +0.000 A 
ATOM     19  C   UNL A   1     -24.883  -1.445  30.538  0.00  0.00    +0.000 A 
ATOM     20  C   UNL A   1     -24.008  -0.709  31.307  0.00  0.00    +0.000 A 
ATOM     21  C   UNL A   1     -22.746  -0.331  30.782  0.00  0.00    +0.002 A 
ENDBRANCH  15  16
ENDBRANCH  13  14
ENDBRANCH   6  13
TORSDOF 4
ENDMDL
ENDMDL
