REMARK  Name = No_2317-gen_results/8p0m/2024-11-26-14-13-15/
REMARK  4 active torsions:
REMARK  status: ('A' for Active; 'I' for Inactive)
REMARK    1  A    between atoms: C_3  and  C_7
REMARK    2  A    between atoms: C_6  and  C_13
REMARK    3  A    between atoms: C_13  and  N_14
REMARK    4  A    between atoms: C_15  and  C_16
REMARK                            x       y       z     vdW  Elec       q    Type
REMARK                         _______ _______ _______ _____ _____    ______ ____
ROOT
ATOM      1  C   UNL A   1     -28.016  -0.814  28.878  0.00  0.00    -0.002 A 
ATOM      2  C   UNL A   1     -27.064  -0.119  28.608  0.00  0.00    -0.000 A 
ATOM      3  C   UNL A   1     -25.765  -0.390  29.036  0.00  0.00    -0.000 A 
ATOM      4  C   UNL A   1     -25.530  -1.530  29.901  0.00  0.00    -0.000 A 
ATOM      5  C   UNL A   1     -26.658  -2.292  30.203  0.00  0.00    -0.002 A 
ATOM      6  C   UNL A   1     -27.855  -1.956  29.763  0.00  0.00    +0.002 A 
ENDROOT
BRANCH   3   7
ATOM      7  C   UNL A   1     -24.544   0.413  28.738  0.00  0.00    -0.000 A 
ATOM      8  C   UNL A   1     -24.473   1.206  27.711  0.00  0.00    -0.000 A 
ATOM      9  C   UNL A   1     -23.278   1.842  27.366  0.00  0.00    +0.000 A 
ATOM     10  C   UNL A   1     -22.093   1.664  28.034  0.00  0.00    +0.000 A 
ATOM     11  C   UNL A   1     -23.204   0.060  29.261  0.00  0.00    -0.000 A 
ATOM     12  C   UNL A   1     -22.048   0.711  28.969  0.00  0.00    +0.000 A 
ENDBRANCH   3   7
BRANCH   6  13
ATOM     13  C   UNL A   1     -29.023  -2.789  30.182  0.00  0.00    +0.152 C 
BRANCH  13  14
ATOM     14  N   UNL A   1     -28.889  -4.098  30.430  0.00  0.00    -0.264 NA
ATOM     15  C   UNL A   1     -29.926  -4.970  30.213  0.00  0.00    +0.093 C 
BRANCH  15  16
ATOM     16  C   UNL A   1     -30.782  -4.777  29.193  0.00  0.00    +0.019 A 
ATOM     17  C   UNL A   1     -31.358  -5.777  28.589  0.00  0.00    +0.002 A 
ATOM     18  C   UNL A   1     -31.716  -5.701  27.231  0.00  0.00    +0.000 A 
ATOM     19  C   UNL A   1     -32.057  -4.402  26.746  0.00  0.00    +0.000 A 
ATOM     20  C   UNL A   1     -31.714  -3.309  27.512  0.00  0.00    +0.000 A 
ATOM     21  C   UNL A   1     -31.026  -3.490  28.739  0.00  0.00    +0.002 A 
ENDBRANCH  15  16
ENDBRANCH  13  14
ENDBRANCH   6  13
TORSDOF 4
