MODEL 2318
MODEL 1
REMARK VINA RESULT:    -5.214      0.000      0.000
REMARK INTER + INTRA:          -5.214
REMARK INTER:                  -5.214
REMARK INTRA:                   0.000
REMARK UNBOUND:                 0.000
REMARK  Name = No_2318-gen_results/8p0m/2024-11-26-14-13-15/
REMARK  0 active torsions:
REMARK  status: ('A' for Active; 'I' for Inactive)
REMARK                            x       y       z     vdW  Elec       q    Type
REMARK                         _______ _______ _______ _____ _____    ______ ____
ROOT
ATOM      1  C   UNL A   1      -9.454 -10.012  18.000  0.00  0.00    -0.026 C 
ATOM      2  C   UNL A   1      -9.876 -10.568  17.210  0.00  0.00    +0.097 C 
ATOM      3  C   UNL A   1     -10.356  -9.599  19.037  0.00  0.00    +0.023 C 
ATOM      4  C   UNL A   1      -9.850  -8.999  20.288  0.00  0.00    +0.004 C 
ATOM      5  C   UNL A   1      -8.574  -9.364  20.755  0.00  0.00    +0.001 C 
ATOM      6  C   UNL A   1      -7.740 -10.141  19.925  0.00  0.00    +0.004 C 
ATOM      7  C   UNL A   1      -8.161 -10.547  18.713  0.00  0.00    +0.023 C 
ATOM      8  N   UNL A   1     -10.962 -10.445  16.632  0.00  0.00    -0.127 NA
ENDROOT
TORSDOF 0
ENDMDL
ENDMDL
