MODEL 2319
MODEL 1
REMARK VINA RESULT:    -5.707      0.000      0.000
REMARK INTER + INTRA:          -5.707
REMARK INTER:                  -5.707
REMARK INTRA:                   0.000
REMARK UNBOUND:                 0.000
REMARK  Name = No_2319-gen_results/8p0m/2024-11-26-14-13-15/
REMARK  0 active torsions:
REMARK  status: ('A' for Active; 'I' for Inactive)
REMARK                            x       y       z     vdW  Elec       q    Type
REMARK                         _______ _______ _______ _____ _____    ______ ____
ROOT
ATOM      1  O   UNL A   1     -27.172  -4.513  29.917  0.00  0.00    -0.270 OA
ATOM      2  C   UNL A   1     -26.126  -4.077  29.704  0.00  0.00    +0.280 C 
ATOM      3  C   UNL A   1     -25.216  -4.295  29.157  0.00  0.00    +0.243 C 
ATOM      4  N   UNL A   1     -26.013  -2.661  30.320  0.00  0.00    -0.158 NA
ATOM      5  F   UNL A   1     -25.175  -5.541  28.638  0.00  0.00    -0.227 F 
ATOM      6  C   UNL A   1     -24.921  -1.840  30.100  0.00  0.00    +0.153 A 
ATOM      7  C   UNL A   1     -23.865  -2.392  29.380  0.00  0.00    +0.015 A 
ATOM      8  C   UNL A   1     -23.941  -3.603  28.866  0.00  0.00    +0.074 C 
ATOM      9  N   UNL A   1     -24.879  -0.623  30.658  0.00  0.00    -0.202 NA
ATOM     10  C   UNL A   1     -23.781   0.201  30.328  0.00  0.00    +0.224 A 
ATOM     11  C   UNL A   1     -22.719  -0.247  29.663  0.00  0.00    +0.049 A 
ATOM     12  C   UNL A   1     -22.722  -1.462  29.184  0.00  0.00    +0.003 A 
ATOM     13  F   UNL A   1     -23.846   1.434  30.839  0.00  0.00    -0.183 F 
ENDROOT
TORSDOF 0
ENDMDL
ENDMDL
