REMARK  Name = No_2319-gen_results/8p0m/2024-11-26-14-13-15/
REMARK  0 active torsions:
REMARK  status: ('A' for Active; 'I' for Inactive)
REMARK                            x       y       z     vdW  Elec       q    Type
REMARK                         _______ _______ _______ _____ _____    ______ ____
ROOT
ATOM      1  O   UNL A   1     -28.123  -1.335  28.487  0.00  0.00    -0.270 OA
ATOM      2  C   UNL A   1     -27.481  -0.404  28.709  0.00  0.00    +0.280 C 
ATOM      3  C   UNL A   1     -27.190   0.246  29.527  0.00  0.00    +0.243 C 
ATOM      4  N   UNL A   1     -26.687  -0.000  27.442  0.00  0.00    -0.158 NA
ATOM      5  F   UNL A   1     -27.878   0.030  30.668  0.00  0.00    -0.227 F 
ATOM      6  C   UNL A   1     -25.726   0.996  27.453  0.00  0.00    +0.153 A 
ATOM      7  C   UNL A   1     -25.579   1.702  28.644  0.00  0.00    +0.015 A 
ATOM      8  C   UNL A   1     -26.261   1.380  29.724  0.00  0.00    +0.074 C 
ATOM      9  N   UNL A   1     -25.070   1.301  26.326  0.00  0.00    -0.202 NA
ATOM     10  C   UNL A   1     -24.042   2.264  26.419  0.00  0.00    +0.224 A 
ATOM     11  C   UNL A   1     -23.842   3.002  27.508  0.00  0.00    +0.049 A 
ATOM     12  C   UNL A   1     -24.536   2.760  28.588  0.00  0.00    +0.003 A 
ATOM     13  F   UNL A   1     -23.363   2.454  25.284  0.00  0.00    -0.183 F 
ENDROOT
TORSDOF 0
