MODEL 231
MODEL 1
REMARK VINA RESULT:    -7.342      0.000      0.000
REMARK INTER + INTRA:          -8.501
REMARK INTER:                  -8.200
REMARK INTRA:                  -0.301
REMARK UNBOUND:                -0.301
REMARK  Name = No_231-gen_results/8p0m/2024-11-26-14-13-15/
REMARK  2 active torsions:
REMARK  status: ('A' for Active; 'I' for Inactive)
REMARK    1  A    between atoms: C_5  and  C_7
REMARK    2  A    between atoms: CA_19  and  C_20
REMARK                            x       y       z     vdW  Elec       q    Type
REMARK                         _______ _______ _______ _____ _____    ______ ____
ROOT
ATOM      1  C   UNL A   1     -30.599 -10.168  28.619  0.00  0.00    +0.021 A 
ATOM      2  C   UNL A   1     -29.852 -10.419  29.536  0.00  0.00    -0.002 A 
ATOM      3  C   UNL A   1     -29.025 -11.527  29.612  0.00  0.00    -0.020 A 
ATOM      4  C   UNL A   1     -29.039 -12.423  28.502  0.00  0.00    +0.002 A 
ATOM      5  C   UNL A   1     -29.754 -12.041  27.432  0.00  0.00    +0.080 A 
ATOM      6  C   UNL A   1     -30.470 -10.954  27.434  0.00  0.00    +0.008 A 
ATOM      7  C   UNL A   1     -28.265 -11.870  30.893  0.00  0.00    +0.055 C 
ATOM      8  C   UNL A   1     -28.564 -11.221  32.021  0.00  0.00    +0.015 A 
ATOM      9  C   UNL A   1     -29.477 -10.247  32.269  0.00  0.00    +0.008 A 
ATOM     10  C   UNL A   1     -30.113  -9.741  31.592  0.00  0.00    +0.057 C 
ATOM     11  C   UNL A   1     -30.254  -9.788  30.689  0.00  0.00    +0.130 C 
ATOM     12  C   UNL A   1     -27.691 -11.689  33.225  0.00  0.00    +0.166 A 
ATOM     13  N   UNL A   1     -26.697 -12.523  33.175  0.00  0.00    -0.107 NA
ATOM     14  N   UNL A   1     -27.971 -11.218  34.521  0.00  0.00    -0.224 NA
ATOM     15  N   UNL A   1     -31.342  -8.833  30.183  0.00  0.00    -0.261 NA
ATOM     16  CA  UNL A   1     -31.388  -9.079  28.852  0.00  0.00    +0.156 C 
ATOM     17  C   UNL A   1     -28.778 -10.190  34.780  0.00  0.00    +0.130 A 
ATOM     18  C   UNL A   1     -29.685  -9.742  33.786  0.00  0.00    +0.155 A 
ATOM     19  F   UNL A   1     -30.474  -8.816  34.043  0.00  0.00    -0.203 F 
ENDROOT
BRANCH   5  20
ATOM     20  C   UNL A   1     -29.714 -12.984  26.287  0.00  0.00    +0.388 C 
ATOM     21  O   UNL A   1     -29.032 -13.846  26.318  0.00  0.00    -0.241 OA
ATOM     22  O   UNL A   1     -30.416 -12.734  25.190  0.00  0.00    -0.241 OA
ENDBRANCH   5  20
BRANCH  16  23
ATOM     23  C   UNL A   1     -32.285  -8.374  27.982  0.00  0.00    +0.405 C 
ATOM     24  O   UNL A   1     -33.394  -8.277  28.174  0.00  0.00    -0.239 OA
ATOM     25  OXT UNL A   1     -31.597  -7.578  27.049  0.00  0.00    -0.239 OA
ENDBRANCH  16  23
TORSDOF 2
ENDMDL
ENDMDL
