REMARK  Name = No_232-gen_results/8p0m/2024-11-26-14-13-15/
REMARK  6 active torsions:
REMARK  status: ('A' for Active; 'I' for Inactive)
REMARK    1  A    between atoms: C_3  and  C_4
REMARK    2  A    between atoms: C_4  and  C_8
REMARK    3  A    between atoms: C_4  and  C_14
REMARK    4  A    between atoms: C_6  and  C_18
REMARK    5  A    between atoms: C_18  and  C_19
REMARK    6  A    between atoms: C_18  and  C_25
REMARK                            x       y       z     vdW  Elec       q    Type
REMARK                         _______ _______ _______ _____ _____    ______ ____
ROOT
ATOM      1  C   UNL A   1     -28.016  -0.814  28.878  0.00  0.00    -0.003 A 
ATOM      2  C   UNL A   1     -28.469  -0.785  29.829  0.00  0.00    -0.001 A 
ATOM      3  C   UNL A   1     -27.087   0.290  28.638  0.00  0.00    -0.008 A 
ATOM      4  C   UNL A   1     -28.391   0.104  30.980  0.00  0.00    -0.004 A 
ATOM      5  C   UNL A   1     -27.533   1.167  30.787  0.00  0.00    -0.019 A 
ATOM      6  C   UNL A   1     -26.828   1.256  29.645  0.00  0.00    -0.007 A 
ENDROOT
BRANCH   3   7
ATOM      7  C   UNL A   1     -26.252   0.411  27.422  0.00  0.00    +0.148 C 
BRANCH   7   8
ATOM      8  C   UNL A   1     -24.967   0.411  27.525  0.00  0.00    -0.007 A 
ATOM      9  C   UNL A   1     -24.261   0.165  28.721  0.00  0.00    -0.000 A 
ATOM     10  C   UNL A   1     -22.802   0.341  28.703  0.00  0.00    +0.042 A 
ATOM     11  C   UNL A   1     -22.213   1.139  27.730  0.00  0.00    +0.196 A 
ATOM     12  C   UNL A   1     -22.946   1.650  26.654  0.00  0.00    +0.042 A 
ATOM     13  C   UNL A   1     -24.318   1.305  26.537  0.00  0.00    -0.000 A 
ATOM     14  O   UNL A   1     -20.919   1.493  27.861  0.00  0.00    -0.287 OA
ENDBRANCH   7   8
BRANCH   7  15
ATOM     15  C   UNL A   1     -26.934   0.218  26.189  0.00  0.00    +0.372 C 
ATOM     16  O   UNL A   1     -27.627   1.201  25.903  0.00  0.00    -0.245 OA
ATOM     17  O   UNL A   1     -26.970  -0.829  25.579  0.00  0.00    -0.245 OA
ENDBRANCH   7  15
ENDBRANCH   3   7
BRANCH   5  18
ATOM     18  C   UNL A   1     -27.336   2.184  31.856  0.00  0.00    +0.044 C 
BRANCH  18  19
ATOM     19  C   UNL A   1     -27.942   3.387  31.742  0.00  0.00    -0.018 A 
ATOM     20  C   UNL A   1     -28.658   3.842  31.115  0.00  0.00    -0.004 A 
ATOM     21  C   UNL A   1     -29.155   5.235  31.070  0.00  0.00    -0.000 A 
ATOM     22  C   UNL A   1     -28.658   6.074  32.033  0.00  0.00    -0.000 A 
ATOM     23  C   UNL A   1     -27.712   5.638  32.926  0.00  0.00    -0.000 A 
ATOM     24  C   UNL A   1     -27.248   4.335  32.872  0.00  0.00    -0.004 A 
ENDBRANCH  18  19
BRANCH  18  25
ATOM     25  C   UNL A   1     -26.433   1.677  32.958  0.00  0.00    +0.008 C 
ATOM     26  C   UNL A   1     -25.203   1.203  32.536  0.00  0.00    +0.001 C 
ATOM     27  C   UNL A   1     -27.220   0.804  33.902  0.00  0.00    +0.001 C 
ENDBRANCH  18  25
ENDBRANCH   5  18
TORSDOF 6
