REMARK  Name = No_2320-gen_results/8p0m/2024-11-26-14-13-15/
REMARK  2 active torsions:
REMARK  status: ('A' for Active; 'I' for Inactive)
REMARK    1  A    between atoms: C_3  and  C_7
REMARK    2  A    between atoms: C_6  and  C_13
REMARK                            x       y       z     vdW  Elec       q    Type
REMARK                         _______ _______ _______ _____ _____    ______ ____
ROOT
ATOM      1  C   UNL A   1     -28.016  -0.814  28.878  0.00  0.00    -0.000 A 
ATOM      2  C   UNL A   1     -28.469  -0.785  29.829  0.00  0.00    -0.000 A 
ATOM      3  C   UNL A   1     -27.136   0.236  28.535  0.00  0.00    -0.000 A 
ATOM      4  C   UNL A   1     -26.805   1.051  29.276  0.00  0.00    -0.000 A 
ATOM      5  C   UNL A   1     -28.237   0.150  30.930  0.00  0.00    -0.000 A 
ATOM      6  C   UNL A   1     -27.352   1.124  30.607  0.00  0.00    -0.000 A 
ENDROOT
BRANCH   3   7
ATOM      7  C   UNL A   1     -26.462   0.196  27.137  0.00  0.00    -0.000 A 
ATOM      8  C   UNL A   1     -25.962   1.431  26.695  0.00  0.00    +0.000 A 
ATOM      9  C   UNL A   1     -25.107   1.555  25.917  0.00  0.00    +0.000 A 
ATOM     10  C   UNL A   1     -24.292   0.437  25.418  0.00  0.00    +0.000 A 
ATOM     11  C   UNL A   1     -25.092  -0.725  25.619  0.00  0.00    +0.000 A 
ATOM     12  C   UNL A   1     -25.857  -0.885  26.604  0.00  0.00    +0.000 A 
ENDBRANCH   3   7
BRANCH   6  13
ATOM     13  C   UNL A   1     -27.029   2.250  31.555  0.00  0.00    -0.005 C 
ATOM     14  C   UNL A   1     -26.107   2.954  31.383  0.00  0.00    -0.026 C 
ATOM     15  C   UNL A   1     -25.172   2.837  30.349  0.00  0.00    +0.031 C 
ENDBRANCH   6  13
TORSDOF 2
