MODEL 2320
MODEL 1
REMARK VINA RESULT:    -7.193      0.000      0.000
REMARK INTER + INTRA:          -8.672
REMARK INTER:                  -8.034
REMARK INTRA:                  -0.638
REMARK UNBOUND:                -0.638
REMARK  Name = No_2320-gen_results/8p0m/2024-11-26-14-13-15/
REMARK  2 active torsions:
REMARK  status: ('A' for Active; 'I' for Inactive)
REMARK    1  A    between atoms: C_3  and  C_7
REMARK    2  A    between atoms: C_6  and  C_13
REMARK                            x       y       z     vdW  Elec       q    Type
REMARK                         _______ _______ _______ _____ _____    ______ ____
ROOT
ATOM      1  C   UNL A   1     -24.233  -1.006  30.821  0.00  0.00    -0.000 A 
ATOM      2  C   UNL A   1     -23.734  -0.118  31.092  0.00  0.00    -0.000 A 
ATOM      3  C   UNL A   1     -23.980  -1.538  29.537  0.00  0.00    -0.000 A 
ATOM      4  C   UNL A   1     -23.181  -1.117  28.824  0.00  0.00    -0.000 A 
ATOM      5  C   UNL A   1     -22.703   0.618  30.360  0.00  0.00    -0.000 A 
ATOM      6  C   UNL A   1     -22.432   0.069  29.151  0.00  0.00    -0.000 A 
ENDROOT
BRANCH   3   7
ATOM      7  C   UNL A   1     -24.708  -2.849  29.134  0.00  0.00    -0.000 A 
ATOM      8  C   UNL A   1     -23.891  -3.798  28.499  0.00  0.00    +0.000 A 
ATOM      9  C   UNL A   1     -24.102  -4.941  28.482  0.00  0.00    +0.000 A 
ATOM     10  C   UNL A   1     -25.154  -5.587  29.280  0.00  0.00    +0.000 A 
ATOM     11  C   UNL A   1     -26.099  -4.557  29.554  0.00  0.00    +0.000 A 
ATOM     12  C   UNL A   1     -25.784  -3.358  29.767  0.00  0.00    +0.000 A 
ENDBRANCH   3   7
BRANCH   6  13
ATOM     13  C   UNL A   1     -21.468   0.710  28.186  0.00  0.00    -0.005 C 
ATOM     14  C   UNL A   1     -21.811   1.545  27.437  0.00  0.00    -0.026 C 
ATOM     15  C   UNL A   1     -23.118   2.022  27.288  0.00  0.00    +0.031 C 
ENDBRANCH   6  13
TORSDOF 2
ENDMDL
ENDMDL
