REMARK  Name = No_2321-gen_results/8p0m/2024-11-26-14-13-15/
REMARK  3 active torsions:
REMARK  status: ('A' for Active; 'I' for Inactive)
REMARK    1  A    between atoms: C_2  and  C_7
REMARK    2  A    between atoms: C_6  and  C_17
REMARK    3  A    between atoms: C_11  and  C_13
REMARK                            x       y       z     vdW  Elec       q    Type
REMARK                         _______ _______ _______ _____ _____    ______ ____
ROOT
ATOM      1  C   UNL A   1     -28.016  -0.814  28.878  0.00  0.00    +0.004 A 
ATOM      2  C   UNL A   1     -27.064  -0.119  28.608  0.00  0.00    -0.000 A 
ATOM      3  C   UNL A   1     -25.792  -0.430  29.076  0.00  0.00    -0.000 A 
ATOM      4  C   UNL A   1     -25.576  -1.565  29.936  0.00  0.00    -0.000 A 
ATOM      5  C   UNL A   1     -26.735  -2.300  30.217  0.00  0.00    +0.004 A 
ATOM      6  C   UNL A   1     -27.918  -1.954  29.763  0.00  0.00    +0.071 A 
ENDROOT
BRANCH   2   7
ATOM      7  C   UNL A   1     -27.106   1.102  27.759  0.00  0.00    -0.000 A 
ATOM      8  C   UNL A   1     -27.858   1.531  27.216  0.00  0.00    -0.000 A 
ATOM      9  C   UNL A   1     -27.843   2.721  26.286  0.00  0.00    -0.000 A 
ATOM     10  C   UNL A   1     -26.622   3.325  26.057  0.00  0.00    +0.004 A 
ATOM     11  C   UNL A   1     -25.485   2.796  26.672  0.00  0.00    +0.071 A 
ATOM     12  C   UNL A   1     -25.622   1.736  27.519  0.00  0.00    +0.004 A 
BRANCH  11  13
ATOM     13  C   UNL A   1     -24.195   3.446  26.481  0.00  0.00    +0.419 C 
ATOM     14  F   UNL A   1     -23.191   2.813  26.986  0.00  0.00    -0.166 F 
ATOM     15  F   UNL A   1     -24.147   4.697  27.125  0.00  0.00    -0.166 F 
ATOM     16  F   UNL A   1     -23.876   3.663  25.200  0.00  0.00    -0.166 F 
ENDBRANCH  11  13
ENDBRANCH   2   7
BRANCH   6  17
ATOM     17  C   UNL A   1     -29.070  -2.788  30.198  0.00  0.00    +0.419 C 
ATOM     18  F   UNL A   1     -29.425  -2.673  31.198  0.00  0.00    -0.166 F 
ATOM     19  F   UNL A   1     -30.124  -2.972  29.470  0.00  0.00    -0.166 F 
ATOM     20  F   UNL A   1     -28.535  -4.130  30.199  0.00  0.00    -0.166 F 
ENDBRANCH   6  17
TORSDOF 3
