REMARK  Name = No_2322-gen_results/8p0m/2024-11-26-14-13-15/
REMARK  9 active torsions:
REMARK  status: ('A' for Active; 'I' for Inactive)
REMARK    1  A    between atoms: C_4  and  N_8
REMARK    2  A    between atoms: N_8  and  C_9
REMARK    3  A    between atoms: C_12  and  C_15
REMARK    4  A    between atoms: C_15  and  C_17
REMARK    5  A    between atoms: C_17  and  C_18
REMARK    6  A    between atoms: C_18  and  C_19
REMARK    7  A    between atoms: C_21  and  C_29
REMARK    8  A    between atoms: C_23  and  C_26
REMARK    9  A    between atoms: N_30  and  C_33
REMARK                            x       y       z     vdW  Elec       q    Type
REMARK                         _______ _______ _______ _____ _____    ______ ____
ROOT
ATOM      1  C   UNL A   1     -24.691   1.271  25.373  0.00  0.00    +0.031 C 
ENDROOT
BRANCH   1   2
ATOM      2  C   UNL A   1     -23.720   1.984  26.180  0.00  0.00    -0.022 C 
ATOM      3  C   UNL A   1     -23.290   3.179  25.950  0.00  0.00    -0.005 C 
BRANCH   2   7
ATOM      4  C   UNL A   1     -23.655  -0.292  29.189  0.00  0.00    +0.052 A 
ATOM      5  C   UNL A   1     -22.236  -0.344  29.386  0.00  0.00    +0.015 A 
ATOM      6  C   UNL A   1     -24.138   0.453  28.125  0.00  0.00    +0.015 A 
ATOM      7  C   UNL A   1     -23.253   1.124  27.248  0.00  0.00    -0.003 A 
ATOM      8  C   UNL A   1     -21.355   0.307  28.502  0.00  0.00    +0.001 A 
ATOM      9  C   UNL A   1     -21.861   1.074  27.502  0.00  0.00    -0.000 A 
BRANCH   4  10
ATOM     10  N   UNL A   1     -24.464  -0.798  30.131  0.00  0.00    -0.285 N 
ATOM     11  C   UNL A   1     -24.001  -2.194  30.619  0.00  0.00    +0.117 C 
BRANCH  10  15
ATOM     12  C   UNL A   1     -28.016  -0.814  28.878  0.00  0.00    +0.031 A 
ATOM     13  C   UNL A   1     -28.469  -0.785  29.829  0.00  0.00    +0.140 A 
ATOM     14  C   UNL A   1     -26.504  -0.778  28.877  0.00  0.00    +0.017 A 
ATOM     15  C   UNL A   1     -25.810  -0.853  30.103  0.00  0.00    +0.052 A 
ATOM     16  C   UNL A   1     -27.991  -0.892  31.226  0.00  0.00    +0.031 A 
ATOM     17  C   UNL A   1     -26.604  -0.868  31.265  0.00  0.00    +0.017 A 
ATOM     18  F   UNL A   1     -29.920  -0.833  29.824  0.00  0.00    -0.204 F 
ENDBRANCH  10  15
ENDBRANCH   4  10
ENDBRANCH   2   7
ENDBRANCH   1   2
BRANCH   1  19
ATOM     19  C   UNL A   1     -26.001   0.941  25.698  0.00  0.00    +0.027 C 
ATOM     20  C   UNL A   1     -26.578  -0.185  25.050  0.00  0.00    +0.005 C 
BRANCH  19  21
ATOM     21  C   UNL A   1     -26.750   1.759  26.486  0.00  0.00    -0.022 A 
ATOM     22  C   UNL A   1     -28.181   1.700  26.460  0.00  0.00    +0.000 A 
ATOM     23  C   UNL A   1     -28.968   2.490  27.328  0.00  0.00    +0.053 A 
ATOM     24  C   UNL A   1     -28.307   3.425  28.169  0.00  0.00    +0.011 A 
ATOM     25  C   UNL A   1     -26.909   3.550  28.160  0.00  0.00    +0.080 A 
ATOM     26  C   UNL A   1     -26.193   2.793  27.369  0.00  0.00    +0.002 A 
BRANCH  23  27
ATOM     27  C   UNL A   1     -30.398   2.315  27.438  0.00  0.00    +0.249 C 
ATOM     28  N   UNL A   1     -31.125   3.035  26.789  0.00  0.00    -0.274 N 
ATOM     29  O   UNL A   1     -30.876   1.386  28.169  0.00  0.00    -0.270 OA
ATOM     30  C   UNL A   1     -30.834   4.144  25.961  0.00  0.00    +0.115 C 
BRANCH  28  31
ATOM     31  C   UNL A   1     -32.656   2.861  26.923  0.00  0.00    +0.094 C 
ATOM     32  C   UNL A   1     -33.302   2.987  25.825  0.00  0.00    +0.023 C 
ENDBRANCH  28  31
ENDBRANCH  23  27
BRANCH  25  33
ATOM     33  C   UNL A   1     -26.294   4.562  29.052  0.00  0.00    +0.388 C 
ATOM     34  O   UNL A   1     -25.489   5.312  28.547  0.00  0.00    -0.241 OA
ATOM     35  O   UNL A   1     -26.548   4.566  30.341  0.00  0.00    -0.241 OA
ENDBRANCH  25  33
ENDBRANCH  19  21
ENDBRANCH   1  19
TORSDOF 9
