MODEL 2322
MODEL 1
REMARK VINA RESULT:    -6.967      0.000      0.000
REMARK INTER + INTRA:         -14.202
REMARK INTER:                 -10.632
REMARK INTRA:                  -3.570
REMARK UNBOUND:                -3.570
REMARK  Name = No_2322-gen_results/8p0m/2024-11-26-14-13-15/
REMARK  9 active torsions:
REMARK  status: ('A' for Active; 'I' for Inactive)
REMARK    1  A    between atoms: C_4  and  N_8
REMARK    2  A    between atoms: N_8  and  C_9
REMARK    3  A    between atoms: C_12  and  C_15
REMARK    4  A    between atoms: C_15  and  C_17
REMARK    5  A    between atoms: C_17  and  C_18
REMARK    6  A    between atoms: C_18  and  C_19
REMARK    7  A    between atoms: C_21  and  C_29
REMARK    8  A    between atoms: C_23  and  C_26
REMARK    9  A    between atoms: N_30  and  C_33
REMARK                            x       y       z     vdW  Elec       q    Type
REMARK                         _______ _______ _______ _____ _____    ______ ____
ROOT
ATOM      1  C   UNL A   1     -27.859  -1.911  31.186  0.00  0.00    +0.031 C 
ENDROOT
BRANCH   1   2
ATOM      2  C   UNL A   1     -27.708  -3.211  30.560  0.00  0.00    -0.022 C 
ATOM      3  C   UNL A   1     -28.622  -4.119  30.496  0.00  0.00    -0.005 C 
BRANCH   2   7
ATOM      4  C   UNL A   1     -24.130  -2.473  29.618  0.00  0.00    +0.052 A 
ATOM      5  C   UNL A   1     -23.833  -3.697  28.933  0.00  0.00    +0.015 A 
ATOM      6  C   UNL A   1     -25.392  -2.324  30.170  0.00  0.00    +0.015 A 
ATOM      7  C   UNL A   1     -26.351  -3.361  30.076  0.00  0.00    -0.003 A 
ATOM      8  C   UNL A   1     -24.780  -4.735  28.858  0.00  0.00    +0.001 A 
ATOM      9  C   UNL A   1     -26.027  -4.538  29.360  0.00  0.00    -0.000 A 
BRANCH   4  10
ATOM     10  N   UNL A   1     -23.261  -1.454  29.542  0.00  0.00    -0.285 N 
ATOM     11  C   UNL A   1     -23.003  -0.793  30.919  0.00  0.00    +0.117 C 
BRANCH  10  15
ATOM     12  C   UNL A   1     -24.219   0.742  26.636  0.00  0.00    +0.031 A 
ATOM     13  C   UNL A   1     -23.380   1.377  26.696  0.00  0.00    +0.140 A 
ATOM     14  C   UNL A   1     -24.250  -0.390  27.638  0.00  0.00    +0.017 A 
ATOM     15  C   UNL A   1     -23.269  -0.443  28.651  0.00  0.00    +0.052 A 
ATOM     16  C   UNL A   1     -22.263   1.559  27.651  0.00  0.00    +0.031 A 
ATOM     17  C   UNL A   1     -22.263   0.539  28.593  0.00  0.00    +0.017 A 
ATOM     18  F   UNL A   1     -23.362   2.469  25.739  0.00  0.00    -0.204 F 
ENDBRANCH  10  15
ENDBRANCH   4  10
ENDBRANCH   2   7
ENDBRANCH   1   2
BRANCH   1  19
ATOM     19  C   UNL A   1     -28.645  -0.844  30.771  0.00  0.00    +0.027 C 
ATOM     20  C   UNL A   1     -30.014  -0.844  31.156  0.00  0.00    +0.005 C 
BRANCH  19  21
ATOM     21  C   UNL A   1     -28.160   0.081  29.899  0.00  0.00    -0.022 A 
ATOM     22  C   UNL A   1     -28.764   0.270  28.614  0.00  0.00    +0.000 A 
ATOM     23  C   UNL A   1     -28.317   1.279  27.731  0.00  0.00    +0.053 A 
ATOM     24  C   UNL A   1     -27.182   2.046  28.106  0.00  0.00    +0.011 A 
ATOM     25  C   UNL A   1     -26.530   1.829  29.331  0.00  0.00    +0.080 A 
ATOM     26  C   UNL A   1     -26.972   0.909  30.149  0.00  0.00    +0.002 A 
BRANCH  23  27
ATOM     27  C   UNL A   1     -29.024   1.598  26.512  0.00  0.00    +0.249 C 
ATOM     28  N   UNL A   1     -28.641   1.111  25.471  0.00  0.00    -0.274 N 
ATOM     29  O   UNL A   1     -30.061   2.340  26.548  0.00  0.00    -0.270 OA
ATOM     30  C   UNL A   1     -27.511   0.312  25.181  0.00  0.00    +0.115 C 
BRANCH  28  31
ATOM     31  C   UNL A   1     -29.387   1.469  24.164  0.00  0.00    +0.094 C 
ATOM     32  C   UNL A   1     -28.657   2.031  23.274  0.00  0.00    +0.023 C 
ENDBRANCH  28  31
ENDBRANCH  23  27
BRANCH  25  33
ATOM     33  C   UNL A   1     -25.340   2.656  29.643  0.00  0.00    +0.388 C 
ATOM     34  O   UNL A   1     -24.741   2.383  30.659  0.00  0.00    -0.241 OA
ATOM     35  O   UNL A   1     -25.025   3.691  28.897  0.00  0.00    -0.241 OA
ENDBRANCH  25  33
ENDBRANCH  19  21
ENDBRANCH   1  19
TORSDOF 9
ENDMDL
ENDMDL
