MODEL 2323
MODEL 1
REMARK VINA RESULT:    -4.285      0.000      0.000
REMARK INTER + INTRA:          -4.285
REMARK INTER:                  -4.285
REMARK INTRA:                   0.000
REMARK UNBOUND:                 0.000
REMARK  Name = No_2323-gen_results/8p0m/2024-11-26-14-13-15/
REMARK  0 active torsions:
REMARK  status: ('A' for Active; 'I' for Inactive)
REMARK                            x       y       z     vdW  Elec       q    Type
REMARK                         _______ _______ _______ _____ _____    ______ ____
ROOT
ATOM      1  C   UNL A   1     -26.230  -3.622  29.751  0.00  0.00    +0.000 A 
ATOM      2  C   UNL A   1     -26.086  -4.820  29.660  0.00  0.00    +0.000 A 
ATOM      3  C   UNL A   1     -25.016  -5.414  29.021  0.00  0.00    +0.000 A 
ATOM      4  C   UNL A   1     -24.010  -4.568  28.476  0.00  0.00    +0.000 A 
ATOM      5  C   UNL A   1     -24.129  -3.248  28.752  0.00  0.00    +0.000 A 
ATOM      6  C   UNL A   1     -25.169  -2.771  29.408  0.00  0.00    +0.000 A 
ENDROOT
TORSDOF 0
ENDMDL
ENDMDL
