MODEL 2324
MODEL 1
REMARK VINA RESULT:    -7.375      0.000      0.000
REMARK INTER + INTRA:         -10.785
REMARK INTER:                  -9.531
REMARK INTRA:                  -1.254
REMARK UNBOUND:                -1.254
REMARK  Name = No_2324-gen_results/8p0m/2024-11-26-14-13-15/
REMARK  5 active torsions:
REMARK  status: ('A' for Active; 'I' for Inactive)
REMARK    1  A    between atoms: C_3  and  C_15
REMARK    2  A    between atoms: C_4  and  C_8
REMARK    3  A    between atoms: C_8  and  C_9
REMARK    4  A    between atoms: C_15  and  C_16
REMARK    5  A    between atoms: C_21  and  N_22
REMARK                            x       y       z     vdW  Elec       q    Type
REMARK                         _______ _______ _______ _____ _____    ______ ____
ROOT
ATOM      1  C   UNL A   1     -21.810  -0.326  29.042  0.00  0.00    +0.025 A 
ATOM      2  C   UNL A   1     -21.261   0.368  28.469  0.00  0.00    +0.140 A 
ATOM      3  C   UNL A   1     -23.275  -0.187  29.019  0.00  0.00    -0.019 A 
ATOM      4  C   UNL A   1     -23.900   0.754  28.149  0.00  0.00    -0.025 A 
ATOM      5  C   UNL A   1     -21.658   1.383  27.456  0.00  0.00    +0.029 A 
ATOM      6  C   UNL A   1     -23.011   1.548  27.413  0.00  0.00    -0.002 A 
ATOM      7  F   UNL A   1     -19.827   0.228  28.474  0.00  0.00    -0.204 F 
ENDROOT
BRANCH   4   8
ATOM      8  C   UNL A   1     -25.319   0.916  28.098  0.00  0.00    +0.037 C 
BRANCH   8   9
ATOM      9  C   UNL A   1     -25.958   0.417  26.900  0.00  0.00    +0.100 C 
ATOM     10  C   UNL A   1     -25.495  -0.069  25.866  0.00  0.00    +0.100 C 
ATOM     11  N   UNL A   1     -26.225  -0.279  24.769  0.00  0.00    -0.195 NA
ATOM     12  C   UNL A   1     -27.460   0.579  26.783  0.00  0.00    +0.244 C 
ATOM     13  N   UNL A   1     -28.095   0.515  25.731  0.00  0.00    -0.186 NA
ATOM     14  C   UNL A   1     -27.440   0.064  24.627  0.00  0.00    +0.204 C 
ATOM     15  O   UNL A   1     -27.941   1.108  27.860  0.00  0.00    -0.273 OA
ENDBRANCH   8   9
ENDBRANCH   4   8
BRANCH   3  16
ATOM     16  C   UNL A   1     -24.209  -0.983  29.899  0.00  0.00    +0.054 C 
BRANCH  16  17
ATOM     17  C   UNL A   1     -24.463  -2.419  29.507  0.00  0.00    -0.003 A 
ATOM     18  C   UNL A   1     -23.815  -3.074  28.860  0.00  0.00    -0.003 A 
ATOM     19  C   UNL A   1     -24.145  -4.474  28.610  0.00  0.00    -0.000 A 
ATOM     20  C   UNL A   1     -25.405  -4.996  29.068  0.00  0.00    +0.001 A 
ATOM     21  C   UNL A   1     -26.228  -4.118  29.783  0.00  0.00    +0.016 A 
ATOM     22  C   UNL A   1     -25.832  -2.874  30.098  0.00  0.00    +0.062 A 
BRANCH  22  23
ATOM     23  N   UNL A   1     -26.552  -2.183  29.443  0.00  0.00    -0.236 NA
ATOM     24  C   UNL A   1     -27.724  -1.758  30.099  0.00  0.00    +0.135 C 
ENDBRANCH  22  23
ENDBRANCH  16  17
ENDBRANCH   3  16
TORSDOF 5
ENDMDL
ENDMDL
