REMARK  Name = No_2324-gen_results/8p0m/2024-11-26-14-13-15/
REMARK  5 active torsions:
REMARK  status: ('A' for Active; 'I' for Inactive)
REMARK    1  A    between atoms: C_3  and  C_15
REMARK    2  A    between atoms: C_4  and  C_8
REMARK    3  A    between atoms: C_8  and  C_9
REMARK    4  A    between atoms: C_15  and  C_16
REMARK    5  A    between atoms: C_21  and  N_22
REMARK                            x       y       z     vdW  Elec       q    Type
REMARK                         _______ _______ _______ _____ _____    ______ ____
ROOT
ATOM      1  C   UNL A   1     -28.016  -0.814  28.878  0.00  0.00    +0.025 A 
ATOM      2  C   UNL A   1     -28.469  -0.785  29.829  0.00  0.00    +0.140 A 
ATOM      3  C   UNL A   1     -26.546  -0.876  28.850  0.00  0.00    -0.019 A 
ATOM      4  C   UNL A   1     -25.804  -1.032  30.057  0.00  0.00    -0.025 A 
ATOM      5  C   UNL A   1     -27.944  -0.987  31.207  0.00  0.00    +0.029 A 
ATOM      6  C   UNL A   1     -26.582  -1.039  31.223  0.00  0.00    -0.002 A 
ATOM      7  F   UNL A   1     -29.909  -0.740  29.864  0.00  0.00    -0.204 F 
ENDROOT
BRANCH   4   8
ATOM      8  C   UNL A   1     -24.377  -1.098  30.069  0.00  0.00    +0.037 C 
BRANCH   8   9
ATOM      9  C   UNL A   1     -23.697   0.179  30.090  0.00  0.00    +0.100 C 
ATOM     10  C   UNL A   1     -24.001   1.261  30.596  0.00  0.00    +0.100 C 
ATOM     11  N   UNL A   1     -23.351   2.397  30.332  0.00  0.00    -0.195 NA
ATOM     12  C   UNL A   1     -22.420   0.310  29.284  0.00  0.00    +0.244 C 
ATOM     13  N   UNL A   1     -21.914   1.377  28.936  0.00  0.00    -0.186 NA
ATOM     14  C   UNL A   1     -22.413   2.518  29.484  0.00  0.00    +0.204 C 
ATOM     15  O   UNL A   1     -22.114  -0.821  28.738  0.00  0.00    -0.273 OA
ENDBRANCH   8   9
ENDBRANCH   4   8
BRANCH   3  16
ATOM     16  C   UNL A   1     -25.724  -0.762  27.588  0.00  0.00    +0.054 C 
BRANCH  16  17
ATOM     17  C   UNL A   1     -25.552   0.619  27.004  0.00  0.00    -0.003 A 
ATOM     18  C   UNL A   1     -26.047   1.037  26.082  0.00  0.00    -0.003 A 
ATOM     19  C   UNL A   1     -25.843   2.419  25.660  0.00  0.00    -0.000 A 
ATOM     20  C   UNL A   1     -24.868   3.230  26.340  0.00  0.00    +0.001 A 
ATOM     21  C   UNL A   1     -24.200   2.639  27.420  0.00  0.00    +0.016 A 
ATOM     22  C   UNL A   1     -24.507   1.405  27.853  0.00  0.00    +0.062 A 
BRANCH  22  23
ATOM     23  N   UNL A   1     -23.534   0.769  27.580  0.00  0.00    -0.236 NA
ATOM     24  C   UNL A   1     -22.727   1.325  26.568  0.00  0.00    +0.135 C 
ENDBRANCH  22  23
ENDBRANCH  16  17
ENDBRANCH   3  16
TORSDOF 5
