MODEL 2325
MODEL 1
REMARK VINA RESULT:    -5.866      0.000      0.000
REMARK INTER + INTRA:          -6.274
REMARK INTER:                  -6.209
REMARK INTRA:                  -0.065
REMARK UNBOUND:                -0.065
REMARK  Name = No_2325-gen_results/8p0m/2024-11-26-14-13-15/
REMARK  1 active torsions:
REMARK  status: ('A' for Active; 'I' for Inactive)
REMARK    1  A    between atoms: C_5  and  C_11
REMARK                            x       y       z     vdW  Elec       q    Type
REMARK                         _______ _______ _______ _____ _____    ______ ____
ROOT
ATOM      1  C   UNL A   1     -30.689  -9.868  29.608  0.00  0.00    +0.099 A 
ATOM      2  C   UNL A   1     -30.177 -10.365  30.583  0.00  0.00    +0.019 A 
ATOM      3  C   UNL A   1     -30.175  -9.774  31.831  0.00  0.00    +0.002 A 
ATOM      4  C   UNL A   1     -29.164 -10.045  32.751  0.00  0.00    +0.008 A 
ATOM      5  C   UNL A   1     -28.202 -11.119  32.551  0.00  0.00    +0.098 A 
ATOM      6  C   UNL A   1     -28.256 -11.754  31.299  0.00  0.00    +0.008 A 
ATOM      7  C   UNL A   1     -29.157 -11.323  30.374  0.00  0.00    +0.003 A 
ATOM      8  N   UNL A   1     -30.699 -10.529  28.357  0.00  0.00    -0.242 NA
ATOM      9  C   UNL A   1     -29.756 -11.451  28.044  0.00  0.00    +0.099 A 
ATOM     10  C   UNL A   1     -28.960 -11.917  29.040  0.00  0.00    +0.021 A 
ENDROOT
BRANCH   5  11
ATOM     11  C   UNL A   1     -27.369 -11.607  33.669  0.00  0.00    +0.477 C 
ATOM     12  N   UNL A   1     -26.760 -12.765  33.609  0.00  0.00    +0.205 NA
ATOM     13  N   UNL A   1     -27.078 -10.852  34.735  0.00  0.00    +0.205 NA
ENDBRANCH   5  11
TORSDOF 1
ENDMDL
ENDMDL
