REMARK  Name = No_2325-gen_results/8p0m/2024-11-26-14-13-15/
REMARK  1 active torsions:
REMARK  status: ('A' for Active; 'I' for Inactive)
REMARK    1  A    between atoms: C_5  and  C_11
REMARK                            x       y       z     vdW  Elec       q    Type
REMARK                         _______ _______ _______ _____ _____    ______ ____
ROOT
ATOM      1  C   UNL A   1     -28.016  -0.814  28.878  0.00  0.00    +0.099 A 
ATOM      2  C   UNL A   1     -27.064  -0.119  28.608  0.00  0.00    +0.019 A 
ATOM      3  C   UNL A   1     -27.001   0.691  27.491  0.00  0.00    +0.002 A 
ATOM      4  C   UNL A   1     -25.777   1.021  26.913  0.00  0.00    +0.008 A 
ATOM      5  C   UNL A   1     -24.509   0.736  27.569  0.00  0.00    +0.098 A 
ATOM      6  C   UNL A   1     -24.593  -0.036  28.739  0.00  0.00    +0.008 A 
ATOM      7  C   UNL A   1     -25.811  -0.477  29.158  0.00  0.00    +0.003 A 
ATOM      8  N   UNL A   1     -28.050  -1.599  30.055  0.00  0.00    -0.242 NA
ATOM      9  C   UNL A   1     -26.908  -2.014  30.654  0.00  0.00    +0.099 A 
ATOM     10  C   UNL A   1     -25.736  -1.453  30.259  0.00  0.00    +0.021 A 
ENDROOT
BRANCH   5  11
ATOM     11  C   UNL A   1     -23.261   1.385  27.118  0.00  0.00    +0.477 C 
ATOM     12  N   UNL A   1     -22.195   1.414  27.878  0.00  0.00    +0.205 NA
ATOM     13  N   UNL A   1     -23.100   1.853  25.874  0.00  0.00    +0.205 NA
ENDBRANCH   5  11
TORSDOF 1
