REMARK  Name = No_2326-gen_results/8p0m/2024-11-26-14-13-15/
REMARK  9 active torsions:
REMARK  status: ('A' for Active; 'I' for Inactive)
REMARK    1  A    between atoms: C_2  and  C_16
REMARK    2  A    between atoms: C_3  and  N_28
REMARK    3  A    between atoms: C_4  and  C_7
REMARK    4  A    between atoms: C_7  and  P_8
REMARK    5  A    between atoms: P_8  and  O_9
REMARK    6  A    between atoms: O_9  and  C_12
REMARK    7  A    between atoms: C_12  and  C_13
REMARK    8  A    between atoms: C_22  and  C_24
REMARK    9  A    between atoms: N_28  and  C_29
REMARK                            x       y       z     vdW  Elec       q    Type
REMARK                         _______ _______ _______ _____ _____    ______ ____
ROOT
ATOM      1  C   UNL A   1     -28.016  -0.814  28.878  0.00  0.00    +0.021 A 
ATOM      2  C   UNL A   1     -28.469  -0.785  29.829  0.00  0.00    +0.055 A 
ATOM      3  C   UNL A   1     -26.546  -0.876  28.850  0.00  0.00    +0.067 A 
ATOM      4  C   UNL A   1     -25.804  -1.032  30.057  0.00  0.00    +0.005 A 
ATOM      5  C   UNL A   1     -26.537  -1.039  31.217  0.00  0.00    -0.002 A 
ATOM      6  C   UNL A   1     -27.884  -0.953  31.186  0.00  0.00    +0.004 A 
ENDROOT
BRANCH   2   7
ATOM      7  C   UNL A   1     -30.064  -0.640  29.901  0.00  0.00    +0.249 C 
ATOM      8  N   UNL A   1     -30.782  -1.346  30.430  0.00  0.00    -0.276 N 
ATOM      9  O   UNL A   1     -30.510   0.358  29.228  0.00  0.00    -0.270 OA
ATOM     10  C   UNL A   1     -32.246  -1.324  30.407  0.00  0.00    +0.094 C 
ATOM     11  C   UNL A   1     -32.838  -2.337  30.644  0.00  0.00    +0.022 C 
ATOM     12  C   UNL A   1     -32.234  -3.419  31.126  0.00  0.00    +0.012 C 
ATOM     13  C   UNL A   1     -30.848  -3.617  31.209  0.00  0.00    +0.115 C 
ATOM     14  C   UNL A   1     -30.171  -2.655  30.785  0.00  0.00    +0.102 C 
BRANCH  13  15
ATOM     15  C   UNL A   1     -30.310  -4.914  31.698  0.00  0.00    +0.399 C 
ATOM     16  F   UNL A   1     -29.224  -5.178  31.197  0.00  0.00    -0.170 F 
ATOM     17  F   UNL A   1     -29.993  -4.801  33.031  0.00  0.00    -0.170 F 
ATOM     18  F   UNL A   1     -31.134  -5.898  31.605  0.00  0.00    -0.170 F 
ENDBRANCH  13  15
ENDBRANCH   2   7
BRANCH   4  19
ATOM     19  C   UNL A   1     -24.366  -1.113  30.048  0.00  0.00    +0.146 C 
BRANCH  19  20
ATOM     20  P   UNL A   1     -23.527   0.178  29.788  0.00  0.00    +0.374 P 
ATOM     21  O   UNL A   1     -23.658   0.983  31.112  0.00  0.00    -0.140 OA
ATOM     22  O   UNL A   1     -22.153   0.042  29.565  0.00  0.00    -0.255 OA
BRANCH  20  23
ATOM     23  O   UNL A   1     -24.195   1.000  28.812  0.00  0.00    -0.280 OA
BRANCH  23  24
ATOM     24  C   UNL A   1     -23.594   2.041  28.170  0.00  0.00    +0.265 C 
BRANCH  24  25
ATOM     25  C   UNL A   1     -24.431   3.108  27.682  0.00  0.00    +0.395 C 
ATOM     26  O   UNL A   1     -25.041   3.770  28.416  0.00  0.00    -0.243 OA
ATOM     27  O   UNL A   1     -24.467   3.353  26.373  0.00  0.00    -0.243 OA
ENDBRANCH  24  25
ENDBRANCH  23  24
ENDBRANCH  20  23
ENDBRANCH  19  20
ENDBRANCH   4  19
BRANCH   3  28
ATOM     28  N   UNL A   1     -25.861  -0.821  27.651  0.00  0.00    -0.213 NA
BRANCH  28  29
ATOM     29  C   UNL A   1     -26.259  -0.100  26.581  0.00  0.00    +0.070 A 
ATOM     30  C   UNL A   1     -25.488  -0.182  25.384  0.00  0.00    +0.017 A 
ATOM     31  C   UNL A   1     -27.256   0.887  26.572  0.00  0.00    +0.012 A 
ATOM     32  C   UNL A   1     -27.607   1.640  25.455  0.00  0.00    -0.021 A 
ATOM     33  C   UNL A   1     -26.949   1.387  24.280  0.00  0.00    -0.004 A 
ATOM     34  C   UNL A   1     -25.802   0.560  24.281  0.00  0.00    +0.001 A 
ATOM     35  C   UNL A   1     -28.735   2.600  25.471  0.00  0.00    +0.031 C 
ENDBRANCH  28  29
ENDBRANCH   3  28
TORSDOF 9
