MODEL 2328
MODEL 1
REMARK VINA RESULT:    -7.465      0.000      0.000
REMARK INTER + INTRA:          -9.015
REMARK INTER:                  -8.338
REMARK INTRA:                  -0.676
REMARK UNBOUND:                -0.676
REMARK  Name = No_2328-gen_results/8p0m/2024-11-26-14-13-15/
REMARK  2 active torsions:
REMARK  status: ('A' for Active; 'I' for Inactive)
REMARK    1  A    between atoms: C_3  and  C_8
REMARK    2  A    between atoms: C_12  and  C_13
REMARK                            x       y       z     vdW  Elec       q    Type
REMARK                         _______ _______ _______ _____ _____    ______ ____
ROOT
ATOM      1  C   UNL A   1     -23.582  -1.507  28.794  0.00  0.00    -0.015 C 
ATOM      2  C   UNL A   1     -22.692  -1.141  29.186  0.00  0.00    -0.004 C 
ATOM      3  C   UNL A   1     -21.964   0.131  28.837  0.00  0.00    -0.004 C 
ATOM      4  C   UNL A   1     -22.690   0.924  27.928  0.00  0.00    -0.018 C 
ATOM      5  C   UNL A   1     -24.086  -0.337  27.819  0.00  0.00    +0.085 C 
ENDROOT
BRANCH   1   8
ATOM      6  C   UNL A   1     -26.511  -3.345  30.055  0.00  0.00    +0.002 A 
ATOM      7  C   UNL A   1     -25.764  -2.460  29.704  0.00  0.00    -0.000 A 
ATOM      8  C   UNL A   1     -24.546  -2.648  29.074  0.00  0.00    -0.001 A 
ATOM      9  C   UNL A   1     -24.162  -3.992  28.792  0.00  0.00    +0.029 A 
ATOM     10  C   UNL A   1     -25.076  -4.943  29.047  0.00  0.00    +0.140 A 
ATOM     11  C   UNL A   1     -26.220  -4.667  29.604  0.00  0.00    +0.030 A 
ATOM     12  F   UNL A   1     -24.725  -6.186  28.739  0.00  0.00    -0.204 F 
ENDBRANCH   1   8
BRANCH   5  13
ATOM     13  C   UNL A   1     -25.059  -0.117  26.921  0.00  0.00    +0.178 C 
ATOM     14  O   UNL A   1     -25.957   0.297  27.456  0.00  0.00    -0.475 OA
ATOM     15  C   UNL A   1     -27.062   0.633  26.708  0.00  0.00    +0.168 C 
ATOM     16  C   UNL A   1     -26.808   0.548  25.567  0.00  0.00    +0.018 C 
ATOM     17  C   UNL A   1     -25.303  -0.040  25.572  0.00  0.00    +0.073 C 
ENDBRANCH   5  13
TORSDOF 2
ENDMDL
ENDMDL
