REMARK  Name = No_2328-gen_results/8p0m/2024-11-26-14-13-15/
REMARK  2 active torsions:
REMARK  status: ('A' for Active; 'I' for Inactive)
REMARK    1  A    between atoms: C_3  and  C_8
REMARK    2  A    between atoms: C_12  and  C_13
REMARK                            x       y       z     vdW  Elec       q    Type
REMARK                         _______ _______ _______ _____ _____    ______ ____
ROOT
ATOM      1  C   UNL A   1     -25.693   1.447  27.135  0.00  0.00    -0.015 C 
ATOM      2  C   UNL A   1     -24.905   1.326  26.470  0.00  0.00    -0.004 C 
ATOM      3  C   UNL A   1     -23.627   2.118  26.372  0.00  0.00    -0.004 C 
ATOM      4  C   UNL A   1     -23.509   3.063  27.409  0.00  0.00    -0.018 C 
ATOM      5  C   UNL A   1     -25.183   2.592  28.136  0.00  0.00    +0.085 C 
ENDROOT
BRANCH   1   8
ATOM      6  C   UNL A   1     -28.016  -0.814  28.878  0.00  0.00    +0.002 A 
ATOM      7  C   UNL A   1     -27.064  -0.119  28.608  0.00  0.00    -0.000 A 
ATOM      8  C   UNL A   1     -26.972   0.714  27.506  0.00  0.00    -0.001 A 
ATOM      9  C   UNL A   1     -28.105   0.774  26.642  0.00  0.00    +0.029 A 
ATOM     10  C   UNL A   1     -29.204   0.118  27.048  0.00  0.00    +0.140 A 
ATOM     11  C   UNL A   1     -29.213  -0.609  28.128  0.00  0.00    +0.030 A 
ATOM     12  F   UNL A   1     -30.267   0.218  26.259  0.00  0.00    -0.204 F 
ENDBRANCH   1   8
BRANCH   5  13
ATOM     13  C   UNL A   1     -25.654   3.333  29.151  0.00  0.00    +0.178 C 
ATOM     14  O   UNL A   1     -26.746   3.107  29.287  0.00  0.00    -0.475 OA
ATOM     15  C   UNL A   1     -27.419   3.735  30.310  0.00  0.00    +0.168 C 
ATOM     16  C   UNL A   1     -26.659   4.327  30.978  0.00  0.00    +0.018 C 
ATOM     17  C   UNL A   1     -25.258   4.129  30.198  0.00  0.00    +0.073 C 
ENDBRANCH   5  13
TORSDOF 2
