REMARK  Name = No_2329-gen_results/8p0m/2024-11-26-14-13-15/
REMARK  5 active torsions:
REMARK  status: ('A' for Active; 'I' for Inactive)
REMARK    1  A    between atoms: C_1  and  C_2
REMARK    2  A    between atoms: C_1  and  N_8
REMARK    3  A    between atoms: C_5  and  C_12
REMARK    4  A    between atoms: N_8  and  C_9
REMARK    5  A    between atoms: C_9  and  C_10
REMARK                            x       y       z     vdW  Elec       q    Type
REMARK                         _______ _______ _______ _____ _____    ______ ____
ROOT
ATOM      1  C   UNL A   1     -28.016  -0.814  28.878  0.00  0.00    +0.115 C 
ENDROOT
BRANCH   1   2
ATOM      2  C   UNL A   1     -27.064  -0.119  28.608  0.00  0.00    -0.005 A 
ATOM      3  C   UNL A   1     -27.001   0.691  27.491  0.00  0.00    -0.003 A 
ATOM      4  C   UNL A   1     -25.855   1.482  27.083  0.00  0.00    +0.004 A 
ATOM      5  C   UNL A   1     -24.690   1.453  27.881  0.00  0.00    +0.071 A 
ATOM      6  C   UNL A   1     -24.738   0.601  29.042  0.00  0.00    +0.004 A 
ATOM      7  C   UNL A   1     -25.823  -0.169  29.389  0.00  0.00    -0.003 A 
BRANCH   5   8
ATOM      8  C   UNL A   1     -23.528   2.205  27.548  0.00  0.00    +0.419 C 
ATOM      9  F   UNL A   1     -22.825   2.547  28.489  0.00  0.00    -0.166 F 
ATOM     10  F   UNL A   1     -22.921   1.677  26.659  0.00  0.00    -0.166 F 
ATOM     11  F   UNL A   1     -24.011   3.434  27.076  0.00  0.00    -0.166 F 
ENDBRANCH   5   8
ENDBRANCH   1   2
BRANCH   1  12
ATOM     12  N   UNL A   1     -28.757  -0.548  30.019  0.00  0.00    -0.213 NA
BRANCH  12  13
ATOM     13  C   UNL A   1     -29.760  -1.326  30.517  0.00  0.00    +0.092 C 
ATOM     14  C   UNL A   1     -30.541  -0.495  31.339  0.00  0.00    +0.020 C 
BRANCH  13  15
ATOM     15  C   UNL A   1     -30.231  -2.294  29.887  0.00  0.00    +0.119 C 
ATOM     16  N   UNL A   1     -31.284  -2.828  30.116  0.00  0.00    -0.215 NA
ATOM     17  C   UNL A   1     -31.797  -3.947  29.410  0.00  0.00    +0.089 C 
ATOM     18  C   UNL A   1     -30.954  -5.047  29.308  0.00  0.00    +0.019 C 
ATOM     19  C   UNL A   1     -30.187  -5.156  30.365  0.00  0.00    +0.004 C 
ATOM     20  C   UNL A   1     -29.112  -4.085  30.526  0.00  0.00    +0.034 C 
ATOM     21  C   UNL A   1     -29.265  -2.798  30.696  0.00  0.00    +0.169 C 
ATOM     22  O   UNL A   1     -28.569  -2.224  31.846  0.00  0.00    -0.222 OA
ENDBRANCH  13  15
ENDBRANCH  12  13
ENDBRANCH   1  12
TORSDOF 5
