MODEL 2329
MODEL 1
REMARK VINA RESULT:    -6.511      0.000      0.000
REMARK INTER + INTRA:          -7.647
REMARK INTER:                  -8.414
REMARK INTRA:                   0.767
REMARK UNBOUND:                 0.767
REMARK  Name = No_2329-gen_results/8p0m/2024-11-26-14-13-15/
REMARK  5 active torsions:
REMARK  status: ('A' for Active; 'I' for Inactive)
REMARK    1  A    between atoms: C_1  and  C_2
REMARK    2  A    between atoms: C_1  and  N_8
REMARK    3  A    between atoms: C_5  and  C_12
REMARK    4  A    between atoms: N_8  and  C_9
REMARK    5  A    between atoms: C_9  and  C_10
REMARK                            x       y       z     vdW  Elec       q    Type
REMARK                         _______ _______ _______ _____ _____    ______ ____
ROOT
ATOM      1  C   UNL A   1      -8.214   1.115  37.409  0.00  0.00    +0.115 C 
ENDROOT
BRANCH   1   2
ATOM      2  C   UNL A   1      -9.060   0.430  37.935  0.00  0.00    -0.005 A 
ATOM      3  C   UNL A   1      -9.063   0.116  39.280  0.00  0.00    -0.003 A 
ATOM      4  C   UNL A   1     -10.010  -0.762  39.942  0.00  0.00    +0.004 A 
ATOM      5  C   UNL A   1     -11.038  -1.355  39.176  0.00  0.00    +0.071 A 
ATOM      6  C   UNL A   1     -11.038  -1.046  37.769  0.00  0.00    +0.004 A 
ATOM      7  C   UNL A   1     -10.108  -0.240  37.156  0.00  0.00    -0.003 A 
BRANCH   5   8
ATOM      8  C   UNL A   1     -12.006  -2.223  39.755  0.00  0.00    +0.419 C 
ATOM      9  F   UNL A   1     -12.953  -1.677  40.304  0.00  0.00    -0.166 F 
ATOM     10  F   UNL A   1     -12.325  -3.080  38.980  0.00  0.00    -0.166 F 
ATOM     11  F   UNL A   1     -11.350  -2.834  40.834  0.00  0.00    -0.166 F 
ENDBRANCH   5   8
ENDBRANCH   1   2
BRANCH   1  12
ATOM     12  N   UNL A   1      -8.305   1.399  36.056  0.00  0.00    -0.213 NA
BRANCH  12  13
ATOM     13  C   UNL A   1      -7.364   1.104  35.114  0.00  0.00    +0.092 C 
ATOM     14  C   UNL A   1      -7.252   2.239  34.291  0.00  0.00    +0.020 C 
BRANCH  13  15
ATOM     15  C   UNL A   1      -6.410   0.333  35.340  0.00  0.00    +0.119 C 
ATOM     16  N   UNL A   1      -5.365   0.325  34.747  0.00  0.00    -0.215 NA
ATOM     17  C   UNL A   1      -4.297  -0.576  34.995  0.00  0.00    +0.089 C 
ATOM     18  C   UNL A   1      -4.621  -1.927  34.986  0.00  0.00    +0.019 C 
ATOM     19  C   UNL A   1      -5.589  -2.178  34.139  0.00  0.00    +0.004 C 
ATOM     20  C   UNL A   1      -6.965  -1.637  34.516  0.00  0.00    +0.034 C 
ATOM     21  C   UNL A   1      -7.337  -0.393  34.665  0.00  0.00    +0.169 C 
ATOM     22  O   UNL A   1      -8.513   0.013  33.897  0.00  0.00    -0.222 OA
ENDBRANCH  13  15
ENDBRANCH  12  13
ENDBRANCH   1  12
TORSDOF 5
ENDMDL
ENDMDL
