MODEL 232
MODEL 1
REMARK VINA RESULT:    -8.749      0.000      0.000
REMARK INTER + INTRA:         -13.675
REMARK INTER:                 -11.818
REMARK INTRA:                  -1.857
REMARK UNBOUND:                -1.857
REMARK  Name = No_232-gen_results/8p0m/2024-11-26-14-13-15/
REMARK  6 active torsions:
REMARK  status: ('A' for Active; 'I' for Inactive)
REMARK    1  A    between atoms: C_3  and  C_4
REMARK    2  A    between atoms: C_4  and  C_8
REMARK    3  A    between atoms: C_4  and  C_14
REMARK    4  A    between atoms: C_6  and  C_18
REMARK    5  A    between atoms: C_18  and  C_19
REMARK    6  A    between atoms: C_18  and  C_25
REMARK                            x       y       z     vdW  Elec       q    Type
REMARK                         _______ _______ _______ _____ _____    ______ ____
ROOT
ATOM      1  C   UNL A   1     -21.967   1.518  27.162  0.00  0.00    -0.003 A 
ATOM      2  C   UNL A   1     -21.397   0.994  27.877  0.00  0.00    -0.001 A 
ATOM      3  C   UNL A   1     -23.407   1.290  27.281  0.00  0.00    -0.008 A 
ATOM      4  C   UNL A   1     -21.703   0.084  28.972  0.00  0.00    -0.004 A 
ATOM      5  C   UNL A   1     -23.053  -0.166  29.108  0.00  0.00    -0.019 A 
ATOM      6  C   UNL A   1     -23.932   0.465  28.309  0.00  0.00    -0.007 A 
ENDROOT
BRANCH   3   7
ATOM      7  C   UNL A   1     -24.419   1.993  26.461  0.00  0.00    +0.148 C 
BRANCH   7   8
ATOM      8  C   UNL A   1     -25.383   1.326  25.924  0.00  0.00    -0.007 A 
ATOM      9  C   UNL A   1     -25.210   0.248  25.031  0.00  0.00    -0.000 A 
ATOM     10  C   UNL A   1     -26.410  -0.315  24.397  0.00  0.00    +0.042 A 
ATOM     11  C   UNL A   1     -27.569   0.446  24.310  0.00  0.00    +0.196 A 
ATOM     12  C   UNL A   1     -27.691   1.678  24.960  0.00  0.00    +0.042 A 
ATOM     13  C   UNL A   1     -26.614   2.137  25.763  0.00  0.00    -0.000 A 
ATOM     14  O   UNL A   1     -28.577   0.025  23.521  0.00  0.00    -0.287 OA
ENDBRANCH   7   8
BRANCH   7  15
ATOM     15  C   UNL A   1     -24.421   3.411  26.572  0.00  0.00    +0.372 C 
ATOM     16  O   UNL A   1     -24.071   3.942  25.512  0.00  0.00    -0.245 OA
ATOM     17  O   UNL A   1     -24.579   4.020  27.608  0.00  0.00    -0.245 OA
ENDBRANCH   7  15
ENDBRANCH   3   7
BRANCH   5  18
ATOM     18  C   UNL A   1     -23.549  -1.083  30.170  0.00  0.00    +0.044 C 
BRANCH  18  19
ATOM     19  C   UNL A   1     -24.099  -2.266  29.817  0.00  0.00    -0.018 A 
ATOM     20  C   UNL A   1     -23.806  -3.138  29.300  0.00  0.00    -0.004 A 
ATOM     21  C   UNL A   1     -24.582  -4.336  28.910  0.00  0.00    -0.000 A 
ATOM     22  C   UNL A   1     -25.886  -4.362  29.333  0.00  0.00    -0.000 A 
ATOM     23  C   UNL A   1     -26.426  -3.301  30.015  0.00  0.00    -0.000 A 
ATOM     24  C   UNL A   1     -25.656  -2.185  30.294  0.00  0.00    -0.004 A 
ENDBRANCH  18  19
BRANCH  18  25
ATOM     25  C   UNL A   1     -23.350  -0.505  31.553  0.00  0.00    +0.008 C 
ATOM     26  C   UNL A   1     -23.025  -1.428  32.533  0.00  0.00    +0.001 C 
ATOM     27  C   UNL A   1     -24.459   0.468  31.865  0.00  0.00    +0.001 C 
ENDBRANCH  18  25
ENDBRANCH   5  18
TORSDOF 6
ENDMDL
ENDMDL
