REMARK  Name = No_233-gen_results/8p0m/2024-11-26-14-13-15/
REMARK  3 active torsions:
REMARK  status: ('A' for Active; 'I' for Inactive)
REMARK    1  A    between atoms: C_1  and  C_2
REMARK    2  A    between atoms: C_1  and  N_8
REMARK    3  A    between atoms: C_5  and  C_9
REMARK                            x       y       z     vdW  Elec       q    Type
REMARK                         _______ _______ _______ _____ _____    ______ ____
ROOT
ATOM      1  C   UNL A   1     -27.064  -0.119  28.608  0.00  0.00    +0.002 A 
ATOM      2  C   UNL A   1     -26.876   1.133  28.913  0.00  0.00    -0.002 A 
ATOM      3  C   UNL A   1     -25.688   1.952  28.567  0.00  0.00    +0.006 A 
ATOM      4  C   UNL A   1     -24.639   1.283  27.875  0.00  0.00    +0.080 A 
ATOM      5  C   UNL A   1     -24.807  -0.051  27.604  0.00  0.00    +0.006 A 
ATOM      6  C   UNL A   1     -25.902  -0.767  27.951  0.00  0.00    -0.002 A 
ENDROOT
BRANCH   4   7
ATOM      7  C   UNL A   1     -23.454   1.985  27.477  0.00  0.00    +0.388 C 
ATOM      8  O   UNL A   1     -22.342   1.786  27.797  0.00  0.00    -0.241 OA
ATOM      9  O   UNL A   1     -23.616   2.700  26.264  0.00  0.00    -0.241 OA
ENDBRANCH   4   7
BRANCH   1  10
ATOM     10  C   UNL A   1     -28.016  -0.814  28.878  0.00  0.00    +0.151 C 
BRANCH  10  11
ATOM     11  N   UNL A   1     -27.998  -1.583  30.102  0.00  0.00    -0.269 NA
ATOM     12  C   UNL A   1     -29.034  -2.375  30.574  0.00  0.00    +0.068 C 
ATOM     13  C   UNL A   1     -28.746  -3.307  31.607  0.00  0.00    +0.053 C 
ENDBRANCH  10  11
ENDBRANCH   1  10
TORSDOF 3
