MODEL 2330
MODEL 1
REMARK VINA RESULT:    -6.510      0.000      0.000
REMARK INTER + INTRA:          -7.160
REMARK INTER:                  -6.890
REMARK INTRA:                  -0.269
REMARK UNBOUND:                -0.269
REMARK  Name = No_2330-gen_results/8p0m/2024-11-26-14-13-15/
REMARK  1 active torsions:
REMARK  status: ('A' for Active; 'I' for Inactive)
REMARK    1  A    between atoms: C_9  and  C_19
REMARK                            x       y       z     vdW  Elec       q    Type
REMARK                         _______ _______ _______ _____ _____    ______ ____
ROOT
ATOM      1  O   UNL A   1     -29.248 -11.616   9.127  0.00  0.00    -0.270 OA
ATOM      2  C   UNL A   1     -30.118 -12.246   9.544  0.00  0.00    +0.254 C 
ATOM      3  C   UNL A   1     -29.892 -13.376  10.304  0.00  0.00    +0.074 A 
ATOM      4  N   UNL A   1     -31.532 -12.010   9.197  0.00  0.00    -0.252 N 
ATOM      5  C   UNL A   1     -29.954 -14.561   9.695  0.00  0.00    +0.056 A 
ATOM      6  C   UNL A   1     -29.665 -15.837  10.337  0.00  0.00    +0.015 A 
ATOM      7  C   UNL A   1     -29.797 -15.789  11.746  0.00  0.00    +0.002 A 
ATOM      8  C   UNL A   1     -29.830 -14.574  12.418  0.00  0.00    +0.007 A 
ATOM      9  C   UNL A   1     -29.927 -13.400  11.740  0.00  0.00    +0.085 A 
ATOM     10  C   UNL A   1     -31.815 -10.878   8.353  0.00  0.00    +0.120 C 
ATOM     11  C   UNL A   1     -32.574 -12.803   9.639  0.00  0.00    +0.068 A 
ATOM     12  C   UNL A   1     -33.583 -12.392  10.041  0.00  0.00    +0.016 A 
ATOM     13  C   UNL A   1     -34.599 -13.314  10.419  0.00  0.00    +0.001 A 
ATOM     14  C   UNL A   1     -34.280 -14.696  10.485  0.00  0.00    +0.001 A 
ATOM     15  C   UNL A   1     -33.054 -15.111  10.099  0.00  0.00    +0.016 A 
ATOM     16  C   UNL A   1     -32.229 -14.199   9.658  0.00  0.00    +0.066 A 
ATOM     17  N   UNL A   1     -31.095 -14.718   9.192  0.00  0.00    -0.284 N 
ATOM     18  C   UNL A   1     -31.208 -15.340   7.760  0.00  0.00    +0.117 C 
ENDROOT
BRANCH   9  19
ATOM     19  C   UNL A   1     -29.933 -12.151  12.507  0.00  0.00    +0.388 C 
ATOM     20  O   UNL A   1     -29.109 -11.687  12.963  0.00  0.00    -0.240 OA
ATOM     21  O   UNL A   1     -31.198 -11.688  12.756  0.00  0.00    -0.240 OA
ENDBRANCH   9  19
TORSDOF 1
ENDMDL
ENDMDL
