REMARK  Name = No_2330-gen_results/8p0m/2024-11-26-14-13-15/
REMARK  1 active torsions:
REMARK  status: ('A' for Active; 'I' for Inactive)
REMARK    1  A    between atoms: C_9  and  C_19
REMARK                            x       y       z     vdW  Elec       q    Type
REMARK                         _______ _______ _______ _____ _____    ______ ____
ROOT
ATOM      1  O   UNL A   1     -28.123  -1.335  28.487  0.00  0.00    -0.270 OA
ATOM      2  C   UNL A   1     -27.481  -0.404  28.709  0.00  0.00    +0.254 C 
ATOM      3  C   UNL A   1     -26.380  -0.087  27.939  0.00  0.00    +0.074 A 
ATOM      4  N   UNL A   1     -27.666   0.447  29.899  0.00  0.00    -0.252 N 
ATOM      5  C   UNL A   1     -25.177  -0.439  28.395  0.00  0.00    +0.056 A 
ATOM      6  C   UNL A   1     -23.928  -0.247  27.668  0.00  0.00    +0.015 A 
ATOM      7  C   UNL A   1     -24.012   0.768  26.685  0.00  0.00    +0.002 A 
ATOM      8  C   UNL A   1     -25.244   1.234  26.244  0.00  0.00    +0.007 A 
ATOM      9  C   UNL A   1     -26.395   0.871  26.869  0.00  0.00    +0.085 A 
ATOM     10  C   UNL A   1     -28.766   0.119  30.769  0.00  0.00    +0.120 C 
ATOM     11  C   UNL A   1     -26.857   1.524  30.207  0.00  0.00    +0.068 A 
ATOM     12  C   UNL A   1     -27.250   2.554  30.572  0.00  0.00    +0.016 A 
ATOM     13  C   UNL A   1     -26.310   3.569  30.906  0.00  0.00    +0.001 A 
ATOM     14  C   UNL A   1     -24.940   3.364  30.594  0.00  0.00    +0.001 A 
ATOM     15  C   UNL A   1     -24.550   2.180  30.076  0.00  0.00    +0.016 A 
ATOM     16  C   UNL A   1     -25.472   1.269  29.913  0.00  0.00    +0.066 A 
ATOM     17  N   UNL A   1     -24.973   0.102  29.511  0.00  0.00    -0.284 N 
ATOM     18  C   UNL A   1     -24.308  -0.743  30.648  0.00  0.00    +0.117 C 
ENDROOT
BRANCH   9  19
ATOM     19  C   UNL A   1     -27.664   1.378  26.340  0.00  0.00    +0.388 C 
ATOM     20  O   UNL A   1     -28.414   1.882  26.875  0.00  0.00    -0.240 OA
ATOM     21  O   UNL A   1     -27.904   0.971  25.054  0.00  0.00    -0.240 OA
ENDBRANCH   9  19
TORSDOF 1
