MODEL 2331
MODEL 1
REMARK VINA RESULT:    -7.197      0.000      0.000
REMARK INTER + INTRA:          -9.271
REMARK INTER:                  -8.460
REMARK INTRA:                  -0.811
REMARK UNBOUND:                -0.811
REMARK  Name = No_2331-gen_results/8p0m/2024-11-26-14-13-15/
REMARK  3 active torsions:
REMARK  status: ('A' for Active; 'I' for Inactive)
REMARK    1  A    between atoms: C_2  and  C_11
REMARK    2  A    between atoms: C_3  and  C_7
REMARK    3  A    between atoms: C_5  and  C_14
REMARK                            x       y       z     vdW  Elec       q    Type
REMARK                         _______ _______ _______ _____ _____    ______ ____
ROOT
ATOM      1  C   UNL A   1      -9.767   1.250  34.795  0.00  0.00    +0.003 A 
ATOM      2  C   UNL A   1     -10.711   1.331  35.257  0.00  0.00    +0.023 A 
ATOM      3  C   UNL A   1      -8.848   0.322  35.333  0.00  0.00    +0.071 A 
ATOM      4  C   UNL A   1      -9.151  -0.452  36.435  0.00  0.00    +0.004 A 
ATOM      5  C   UNL A   1     -10.415  -0.287  36.977  0.00  0.00    -0.000 A 
ATOM      6  C   UNL A   1     -11.293   0.604  36.396  0.00  0.00    -0.001 A 
ENDROOT
BRANCH   5   7
ATOM      7  C   UNL A   1     -10.805  -1.108  38.153  0.00  0.00    -0.000 A 
ATOM      8  C   UNL A   1     -11.653  -1.923  38.304  0.00  0.00    -0.000 A 
ATOM      9  C   UNL A   1     -12.110  -2.509  39.464  0.00  0.00    -0.000 A 
ATOM     10  C   UNL A   1     -11.319  -2.274  40.632  0.00  0.00    +0.000 A 
ATOM     11  C   UNL A   1     -10.304  -1.377  40.561  0.00  0.00    -0.000 A 
ATOM     12  C   UNL A   1     -10.003  -0.735  39.382  0.00  0.00    -0.000 A 
ENDBRANCH   5   7
BRANCH   3  13
ATOM     13  C   UNL A   1      -7.481   0.090  34.761  0.00  0.00    +0.419 C 
ATOM     14  F   UNL A   1      -7.141   1.014  34.068  0.00  0.00    -0.166 F 
ATOM     15  F   UNL A   1      -7.396  -1.042  33.979  0.00  0.00    -0.166 F 
ATOM     16  F   UNL A   1      -6.564  -0.173  35.762  0.00  0.00    -0.166 F 
ENDBRANCH   3  13
BRANCH   2  17
ATOM     17  C   UNL A   1     -11.856   2.276  34.607  0.00  0.00    +0.253 C 
ATOM     18  O   UNL A   1     -11.675   3.307  34.397  0.00  0.00    -0.200 OA
ATOM     19 CL   UNL A   1     -12.993   1.512  33.743  0.00  0.00    -0.074 Cl
ENDBRANCH   2  17
TORSDOF 3
ENDMDL
ENDMDL
