REMARK  Name = No_2331-gen_results/8p0m/2024-11-26-14-13-15/
REMARK  3 active torsions:
REMARK  status: ('A' for Active; 'I' for Inactive)
REMARK    1  A    between atoms: C_2  and  C_11
REMARK    2  A    between atoms: C_3  and  C_7
REMARK    3  A    between atoms: C_5  and  C_14
REMARK                            x       y       z     vdW  Elec       q    Type
REMARK                         _______ _______ _______ _____ _____    ______ ____
ROOT
ATOM      1  C   UNL A   1     -28.016  -0.814  28.878  0.00  0.00    +0.003 A 
ATOM      2  C   UNL A   1     -28.469  -0.785  29.829  0.00  0.00    +0.023 A 
ATOM      3  C   UNL A   1     -27.136   0.236  28.535  0.00  0.00    +0.071 A 
ATOM      4  C   UNL A   1     -26.875   1.282  29.398  0.00  0.00    +0.004 A 
ATOM      5  C   UNL A   1     -27.507   1.238  30.630  0.00  0.00    -0.000 A 
ATOM      6  C   UNL A   1     -28.329   0.174  30.935  0.00  0.00    -0.001 A 
ENDROOT
BRANCH   5   7
ATOM      7  C   UNL A   1     -27.249   2.327  31.608  0.00  0.00    -0.000 A 
ATOM      8  C   UNL A   1     -26.848   3.435  31.473  0.00  0.00    -0.000 A 
ATOM      9  C   UNL A   1     -26.432   4.340  32.424  0.00  0.00    -0.000 A 
ATOM     10  C   UNL A   1     -26.717   3.990  33.781  0.00  0.00    +0.000 A 
ATOM     11  C   UNL A   1     -27.205   2.752  34.045  0.00  0.00    -0.000 A 
ATOM     12  C   UNL A   1     -27.467   1.860  33.032  0.00  0.00    -0.000 A 
ENDBRANCH   5   7
BRANCH   3  13
ATOM     13  C   UNL A   1     -26.408   0.307  27.226  0.00  0.00    +0.419 C 
ATOM     14  F   UNL A   1     -25.409  -0.365  27.251  0.00  0.00    -0.166 F 
ATOM     15  F   UNL A   1     -26.018   1.582  26.880  0.00  0.00    -0.166 F 
ATOM     16  F   UNL A   1     -27.241  -0.042  26.178  0.00  0.00    -0.166 F 
ENDBRANCH   3  13
BRANCH   2  17
ATOM     17  C   UNL A   1     -29.381  -2.027  30.334  0.00  0.00    +0.253 C 
ATOM     18  O   UNL A   1     -28.962  -2.995  30.501  0.00  0.00    -0.200 OA
ATOM     19 CL   UNL A   1     -30.724  -1.629  31.147  0.00  0.00    -0.074 Cl
ENDBRANCH   2  17
TORSDOF 3
