REMARK  Name = No_2332-gen_results/8p0m/2024-11-26-14-13-15/
REMARK  7 active torsions:
REMARK  status: ('A' for Active; 'I' for Inactive)
REMARK    1  A    between atoms: C_2  and  O_12
REMARK    2  A    between atoms: C_4  and  C_5
REMARK    3  A    between atoms: C_5  and  C_8
REMARK    4  A    between atoms: C_8  and  C_9
REMARK    5  A    between atoms: C_9  and  C_10
REMARK    6  A    between atoms: O_12  and  C_13
REMARK    7  A    between atoms: C_17  and  C_20
REMARK                            x       y       z     vdW  Elec       q    Type
REMARK                         _______ _______ _______ _____ _____    ______ ____
ROOT
ATOM      1  C   UNL A   1     -28.016  -0.814  28.878  0.00  0.00    +0.108 C 
ATOM      2  C   UNL A   1     -28.469  -0.785  29.829  0.00  0.00    +0.173 C 
ATOM      3  C   UNL A   1     -26.546  -0.876  28.850  0.00  0.00    +0.154 C 
ATOM      4  C   UNL A   1     -25.804  -1.032  30.057  0.00  0.00    +0.058 C 
ATOM      5  C   UNL A   1     -27.990  -1.005  31.209  0.00  0.00    +0.044 C 
ATOM      6  C   UNL A   1     -26.562  -1.137  31.260  0.00  0.00    +0.011 C 
ATOM      7  O   UNL A   1     -25.792  -0.813  27.725  0.00  0.00    -0.296 OA
ENDROOT
BRANCH   4   8
ATOM      8  C   UNL A   1     -24.370  -1.100  30.072  0.00  0.00    +0.015 C 
BRANCH   8   9
ATOM      9  C   UNL A   1     -23.727   0.171  30.026  0.00  0.00    +0.070 C 
BRANCH   9  10
ATOM     10  C   UNL A   1     -23.245   0.731  28.869  0.00  0.00    +0.173 C 
ATOM     11  O   UNL A   1     -22.232   0.069  28.417  0.00  0.00    -0.291 OA
BRANCH  10  12
ATOM     12  C   UNL A   1     -23.663   1.963  28.378  0.00  0.00    +0.035 A 
ATOM     13  C   UNL A   1     -23.291   2.232  27.016  0.00  0.00    +0.003 A 
ATOM     14  C   UNL A   1     -24.280   2.866  26.226  0.00  0.00    +0.000 A 
ATOM     15  C   UNL A   1     -24.949   3.882  26.930  0.00  0.00    +0.007 A 
ATOM     16  C   UNL A   1     -25.178   3.813  28.241  0.00  0.00    +0.080 A 
ATOM     17  C   UNL A   1     -24.612   2.773  28.983  0.00  0.00    +0.009 A 
BRANCH  16  18
ATOM     18  C   UNL A   1     -26.150   4.731  28.874  0.00  0.00    +0.388 C 
ATOM     19  O   UNL A   1     -26.593   4.536  29.911  0.00  0.00    -0.241 OA
ATOM     20  O   UNL A   1     -26.546   5.719  28.144  0.00  0.00    -0.241 OA
ENDBRANCH  16  18
ENDBRANCH  10  12
ENDBRANCH   9  10
ENDBRANCH   8   9
ENDBRANCH   4   8
BRANCH   2  21
ATOM     21  O   UNL A   1     -29.929  -0.673  29.875  0.00  0.00    -0.479 OA
BRANCH  21  22
ATOM     22  C   UNL A   1     -30.431   0.597  29.955  0.00  0.00    +0.136 A 
ATOM     23  C   UNL A   1     -30.256   1.365  30.851  0.00  0.00    +0.036 A 
ATOM     24  C   UNL A   1     -30.755   2.752  30.843  0.00  0.00    +0.000 A 
ATOM     25  C   UNL A   1     -31.562   3.102  29.741  0.00  0.00    -0.009 A 
ATOM     26  C   UNL A   1     -31.226   0.941  28.760  0.00  0.00    +0.025 A 
ATOM     27  C   UNL A   1     -31.761   2.223  28.732  0.00  0.00    +0.043 A 
ATOM     28  N   UNL A   1     -32.551   2.583  27.663  0.00  0.00    -0.308 N 
ATOM     29  C   UNL A   1     -33.077   3.661  27.546  0.00  0.00    +0.091 C 
ATOM     30  C   UNL A   1     -32.891   4.702  28.533  0.00  0.00    +0.026 C 
ATOM     31  C   UNL A   1     -32.114   4.439  29.647  0.00  0.00    +0.025 C 
ATOM     32  C   UNL A   1     -32.771   1.607  26.585  0.00  0.00    +0.091 C 
ATOM     33  C   UNL A   1     -32.048   0.679  26.216  0.00  0.00    +0.026 C 
ATOM     34  C   UNL A   1     -31.329   0.100  27.588  0.00  0.00    +0.032 C 
ATOM     35  C   UNL A   1     -31.857   5.416  30.697  0.00  0.00    +0.005 C 
ENDBRANCH  21  22
ENDBRANCH   2  21
TORSDOF 7
