MODEL 2332
MODEL 1
REMARK VINA RESULT:    -8.509      0.000      0.000
REMARK INTER + INTRA:         -13.621
REMARK INTER:                 -11.990
REMARK INTRA:                  -1.630
REMARK UNBOUND:                -1.630
REMARK  Name = No_2332-gen_results/8p0m/2024-11-26-14-13-15/
REMARK  7 active torsions:
REMARK  status: ('A' for Active; 'I' for Inactive)
REMARK    1  A    between atoms: C_2  and  O_12
REMARK    2  A    between atoms: C_4  and  C_5
REMARK    3  A    between atoms: C_5  and  C_8
REMARK    4  A    between atoms: C_8  and  C_9
REMARK    5  A    between atoms: C_9  and  C_10
REMARK    6  A    between atoms: O_12  and  C_13
REMARK    7  A    between atoms: C_17  and  C_20
REMARK                            x       y       z     vdW  Elec       q    Type
REMARK                         _______ _______ _______ _____ _____    ______ ____
ROOT
ATOM      1  C   UNL A   1     -25.376   2.372  27.839  0.00  0.00    +0.108 C 
ATOM      2  C   UNL A   1     -24.955   2.325  26.874  0.00  0.00    +0.173 C 
ATOM      3  C   UNL A   1     -24.584   1.787  28.932  0.00  0.00    +0.154 C 
ATOM      4  C   UNL A   1     -23.259   1.317  28.696  0.00  0.00    +0.058 C 
ATOM      5  C   UNL A   1     -23.618   1.987  26.345  0.00  0.00    +0.044 C 
ATOM      6  C   UNL A   1     -22.760   1.463  27.368  0.00  0.00    +0.011 C 
ATOM      7  O   UNL A   1     -25.010   1.661  30.213  0.00  0.00    -0.296 OA
ENDROOT
BRANCH   4   8
ATOM      8  C   UNL A   1     -22.452   0.744  29.736  0.00  0.00    +0.015 C 
BRANCH   8   9
ATOM      9  C   UNL A   1     -22.494  -0.680  29.787  0.00  0.00    +0.070 C 
BRANCH   9  10
ATOM     10  C   UNL A   1     -23.425  -1.381  30.513  0.00  0.00    +0.173 C 
ATOM     11  O   UNL A   1     -23.177  -1.313  31.779  0.00  0.00    -0.291 OA
BRANCH  10  12
ATOM     12  C   UNL A   1     -24.374  -2.221  29.940  0.00  0.00    +0.035 A 
ATOM     13  C   UNL A   1     -23.852  -3.177  29.003  0.00  0.00    +0.003 A 
ATOM     14  C   UNL A   1     -24.416  -4.474  29.075  0.00  0.00    +0.000 A 
ATOM     15  C   UNL A   1     -25.809  -4.437  29.258  0.00  0.00    +0.007 A 
ATOM     16  C   UNL A   1     -26.413  -3.478  29.958  0.00  0.00    +0.080 A 
ATOM     17  C   UNL A   1     -25.669  -2.384  30.408  0.00  0.00    +0.009 A 
BRANCH  16  18
ATOM     18  C   UNL A   1     -27.817  -3.648  30.393  0.00  0.00    +0.388 C 
ATOM     19  O   UNL A   1     -28.275  -3.035  31.244  0.00  0.00    -0.241 OA
ATOM     20  O   UNL A   1     -28.469  -4.603  29.820  0.00  0.00    -0.241 OA
ENDBRANCH  16  18
ENDBRANCH  10  12
ENDBRANCH   9  10
ENDBRANCH   8   9
ENDBRANCH   4   8
BRANCH   2  21
ATOM     21  O   UNL A   1     -25.753   2.858  25.767  0.00  0.00    -0.479 OA
BRANCH  21  22
ATOM     22  C   UNL A   1     -26.651   1.993  25.203  0.00  0.00    +0.136 A 
ATOM     23  C   UNL A   1     -26.442   0.854  24.918  0.00  0.00    +0.036 A 
ATOM     24  C   UNL A   1     -27.476  -0.055  24.389  0.00  0.00    +0.000 A 
ATOM     25  C   UNL A   1     -28.730   0.535  24.130  0.00  0.00    -0.009 A 
ATOM     26  C   UNL A   1     -27.964   2.635  24.997  0.00  0.00    +0.025 A 
ATOM     27  C   UNL A   1     -28.956   1.830  24.451  0.00  0.00    +0.043 A 
ATOM     28  N   UNL A   1     -30.188   2.389  24.192  0.00  0.00    -0.308 N 
ATOM     29  C   UNL A   1     -31.113   1.787  23.706  0.00  0.00    +0.091 C 
ATOM     30  C   UNL A   1     -31.008   0.384  23.374  0.00  0.00    +0.026 C 
ATOM     31  C   UNL A   1     -29.809  -0.271  23.595  0.00  0.00    +0.025 C 
ATOM     32  C   UNL A   1     -30.409   3.803  24.531  0.00  0.00    +0.091 C 
ATOM     33  C   UNL A   1     -29.865   4.490  25.398  0.00  0.00    +0.026 C 
ATOM     34  C   UNL A   1     -28.301   3.958  25.473  0.00  0.00    +0.032 C 
ATOM     35  C   UNL A   1     -29.598  -1.682  23.302  0.00  0.00    +0.005 C 
ENDBRANCH  21  22
ENDBRANCH   2  21
TORSDOF 7
ENDMDL
ENDMDL
