MODEL 2333
MODEL 1
REMARK VINA RESULT:    -7.555      0.000      0.000
REMARK INTER + INTRA:          -9.534
REMARK INTER:                  -8.880
REMARK INTRA:                  -0.654
REMARK UNBOUND:                -0.654
REMARK  Name = No_2333-gen_results/8p0m/2024-11-26-14-13-15/
REMARK  3 active torsions:
REMARK  status: ('A' for Active; 'I' for Inactive)
REMARK    1  A    between atoms: C_2  and  C_7
REMARK    2  A    between atoms: N_8  and  C_9
REMARK    3  A    between atoms: C_9  and  C_11
REMARK                            x       y       z     vdW  Elec       q    Type
REMARK                         _______ _______ _______ _____ _____    ______ ____
ROOT
ATOM      1  C   UNL A   1     -23.428  -1.542  29.512  0.00  0.00    +0.269 C 
ATOM      2  N   UNL A   1     -24.085  -0.480  29.570  0.00  0.00    -0.175 NA
ATOM      3  O   UNL A   1     -22.221  -1.565  28.935  0.00  0.00    -0.268 OA
ENDROOT
BRANCH   1   5
ATOM      4  C   UNL A   1     -23.876  -3.704  28.942  0.00  0.00    +0.005 A 
ATOM      5  C   UNL A   1     -24.305  -2.886  29.448  0.00  0.00    +0.055 A 
ATOM      6  C   UNL A   1     -24.729  -4.952  28.884  0.00  0.00    +0.000 A 
ATOM      7  C   UNL A   1     -26.055  -4.906  29.364  0.00  0.00    +0.000 A 
ATOM      8  C   UNL A   1     -25.645  -2.571  29.994  0.00  0.00    +0.005 A 
ATOM      9  C   UNL A   1     -26.460  -3.694  29.952  0.00  0.00    +0.000 A 
ENDBRANCH   1   5
BRANCH   2  10
ATOM     10  C   UNL A   1     -23.992   0.526  29.245  0.00  0.00    +0.073 C 
ATOM     11  C   UNL A   1     -23.806   1.704  30.122  0.00  0.00    +0.018 C 
BRANCH  10  12
ATOM     12  C   UNL A   1     -24.011   0.926  27.791  0.00  0.00    +0.011 A 
ATOM     13  C   UNL A   1     -24.770   0.288  26.805  0.00  0.00    +0.001 A 
ATOM     14  C   UNL A   1     -24.587   0.654  25.552  0.00  0.00    +0.000 A 
ATOM     15  C   UNL A   1     -23.722   1.777  25.293  0.00  0.00    -0.000 A 
ATOM     16  C   UNL A   1     -23.020   2.412  26.272  0.00  0.00    -0.004 A 
ATOM     17  C   UNL A   1     -23.074   1.986  27.494  0.00  0.00    -0.021 A 
ATOM     18  C   UNL A   1     -21.767   1.465  27.437  0.00  0.00    +0.031 C 
ENDBRANCH  10  12
ENDBRANCH   2  10
TORSDOF 3
ENDMDL
ENDMDL
