REMARK  Name = No_2333-gen_results/8p0m/2024-11-26-14-13-15/
REMARK  3 active torsions:
REMARK  status: ('A' for Active; 'I' for Inactive)
REMARK    1  A    between atoms: C_2  and  C_7
REMARK    2  A    between atoms: N_8  and  C_9
REMARK    3  A    between atoms: C_9  and  C_11
REMARK                            x       y       z     vdW  Elec       q    Type
REMARK                         _______ _______ _______ _____ _____    ______ ____
ROOT
ATOM      1  C   UNL A   1     -30.074  -0.836  29.861  0.00  0.00    +0.269 C 
ATOM      2  N   UNL A   1     -30.645  -0.184  28.960  0.00  0.00    -0.175 NA
ATOM      3  O   UNL A   1     -30.662  -1.013  31.050  0.00  0.00    -0.268 OA
ENDROOT
BRANCH   1   5
ATOM      4  C   UNL A   1     -28.016  -0.814  28.878  0.00  0.00    +0.005 A 
ATOM      5  C   UNL A   1     -28.469  -0.785  29.829  0.00  0.00    +0.055 A 
ATOM      6  C   UNL A   1     -26.504  -0.778  28.877  0.00  0.00    +0.000 A 
ATOM      7  C   UNL A   1     -25.810  -0.853  30.103  0.00  0.00    +0.000 A 
ATOM      8  C   UNL A   1     -27.991  -0.892  31.226  0.00  0.00    +0.005 A 
ATOM      9  C   UNL A   1     -26.604  -0.868  31.265  0.00  0.00    +0.000 A 
ENDBRANCH   1   5
BRANCH   2  10
ATOM     10  C   UNL A   1     -31.545   0.363  28.829  0.00  0.00    +0.073 C 
ATOM     11  C   UNL A   1     -32.031   0.935  27.553  0.00  0.00    +0.018 C 
BRANCH  10  12
ATOM     12  C   UNL A   1     -32.515   0.632  29.952  0.00  0.00    +0.011 A 
ATOM     13  C   UNL A   1     -33.719   1.327  29.808  0.00  0.00    +0.001 A 
ATOM     14  C   UNL A   1     -34.405   1.608  30.898  0.00  0.00    +0.000 A 
ATOM     15  C   UNL A   1     -33.941   1.064  32.149  0.00  0.00    -0.000 A 
ATOM     16  C   UNL A   1     -32.784   0.355  32.265  0.00  0.00    -0.004 A 
ATOM     17  C   UNL A   1     -32.020   0.181  31.233  0.00  0.00    -0.021 A 
ATOM     18  C   UNL A   1     -31.055   1.085  31.717  0.00  0.00    +0.031 C 
ENDBRANCH  10  12
ENDBRANCH   2  10
TORSDOF 3
