MODEL 2334
MODEL 1
REMARK VINA RESULT:    -7.443      0.000      0.000
REMARK INTER + INTRA:         -12.053
REMARK INTER:                 -10.053
REMARK INTRA:                  -2.000
REMARK UNBOUND:                -2.000
REMARK  Name = No_2334-gen_results/8p0m/2024-11-26-14-13-15/
REMARK  6 active torsions:
REMARK  status: ('A' for Active; 'I' for Inactive)
REMARK    1  A    between atoms: C_3  and  C_7
REMARK    2  A    between atoms: C_7  and  C_8
REMARK    3  A    between atoms: C_7  and  C_16
REMARK    4  A    between atoms: C_8  and  C_9
REMARK    5  A    between atoms: C_9  and  C_10
REMARK    6  A    between atoms: C_18  and  C_19
REMARK                            x       y       z     vdW  Elec       q    Type
REMARK                         _______ _______ _______ _____ _____    ______ ____
ROOT
ATOM      1  C   UNL A   1     -25.423  -1.191  29.065  0.00  0.00    +0.045 C 
ENDROOT
BRANCH   1   4
ATOM      2  C   UNL A   1     -26.236  -3.506  29.730  0.00  0.00    -0.004 A 
ATOM      3  C   UNL A   1     -26.078  -4.544  29.646  0.00  0.00    -0.000 A 
ATOM      4  C   UNL A   1     -25.199  -2.701  29.072  0.00  0.00    -0.018 A 
ATOM      5  C   UNL A   1     -24.080  -3.237  28.582  0.00  0.00    -0.004 A 
ATOM      6  C   UNL A   1     -24.964  -5.340  29.191  0.00  0.00    -0.000 A 
ATOM      7  C   UNL A   1     -24.000  -4.573  28.606  0.00  0.00    -0.000 A 
ENDBRANCH   1   4
BRANCH   1   8
ATOM      8  C   UNL A   1     -25.104  -0.449  30.254  0.00  0.00    +0.012 C 
ATOM      9  C   UNL A   1     -26.264   0.008  30.960  0.00  0.00    +0.001 C 
BRANCH   8  10
ATOM     10  C   UNL A   1     -23.825  -0.229  30.654  0.00  0.00    +0.027 C 
BRANCH  10  11
ATOM     11  C   UNL A   1     -22.886   0.357  29.787  0.00  0.00    -0.022 A 
ATOM     12  C   UNL A   1     -23.259   1.417  28.864  0.00  0.00    -0.004 A 
ATOM     13  C   UNL A   1     -22.314   1.850  27.914  0.00  0.00    -0.000 A 
ATOM     14  C   UNL A   1     -21.122   1.152  27.732  0.00  0.00    -0.000 A 
ATOM     15  C   UNL A   1     -20.908  -0.077  28.400  0.00  0.00    -0.000 A 
ATOM     16  C   UNL A   1     -21.792  -0.475  29.329  0.00  0.00    -0.004 A 
ENDBRANCH  10  11
ENDBRANCH   8  10
ENDBRANCH   1   8
BRANCH   1  17
ATOM     17  C   UNL A   1     -25.794  -0.630  27.866  0.00  0.00    -0.022 C 
ATOM     18  C   UNL A   1     -25.342  -0.468  26.910  0.00  0.00    -0.004 C 
BRANCH  18  19
ATOM     19  C   UNL A   1     -25.953   0.162  25.744  0.00  0.00    -0.000 C 
ATOM     20  C   UNL A   1     -25.231   0.074  24.633  0.00  0.00    -0.000 C 
ENDBRANCH  18  19
ENDBRANCH   1  17
TORSDOF 6
ENDMDL
ENDMDL
