MODEL 2335
MODEL 1
REMARK VINA RESULT:    -8.193      0.000      0.000
REMARK INTER + INTRA:         -11.991
REMARK INTER:                 -10.109
REMARK INTRA:                  -1.882
REMARK UNBOUND:                -1.882
REMARK  Name = No_2335-gen_results/8p0m/2024-11-26-14-13-15/
REMARK  4 active torsions:
REMARK  status: ('A' for Active; 'I' for Inactive)
REMARK    1  A    between atoms: C_3  and  C_7
REMARK    2  A    between atoms: C_9  and  C_10
REMARK    3  A    between atoms: C_11  and  C_12
REMARK    4  A    between atoms: C_18  and  C_22
REMARK                            x       y       z     vdW  Elec       q    Type
REMARK                         _______ _______ _______ _____ _____    ______ ____
ROOT
ATOM      1  C   UNL A   1     -10.889   1.254  36.616  0.00  0.00    -0.000 A 
ATOM      2  C   UNL A   1     -11.878   2.216  36.792  0.00  0.00    +0.004 A 
ATOM      3  C   UNL A   1     -10.209   1.115  35.429  0.00  0.00    -0.000 A 
ATOM      4  C   UNL A   1     -12.919   2.282  35.892  0.00  0.00    +0.071 A 
ATOM      5  C   UNL A   1     -12.493   2.026  34.504  0.00  0.00    +0.004 A 
ATOM      6  C   UNL A   1     -11.123   1.431  34.224  0.00  0.00    -0.000 A 
ENDROOT
BRANCH   1   9
ATOM      7  C   UNL A   1     -11.435  -0.721  38.181  0.00  0.00    +0.011 A 
ATOM      8  C   UNL A   1     -11.100  -1.234  39.038  0.00  0.00    +0.058 A 
ATOM      9  C   UNL A   1     -10.601   0.426  37.823  0.00  0.00    +0.001 A 
ATOM     10  C   UNL A   1      -9.481   0.768  38.541  0.00  0.00    +0.000 A 
ATOM     11  C   UNL A   1      -9.981  -1.108  39.970  0.00  0.00    +0.011 A 
ATOM     12  C   UNL A   1      -9.167  -0.001  39.632  0.00  0.00    +0.001 A 
ATOM     13 CL   UNL A   1     -12.120  -2.673  39.587  0.00  0.00    -0.082 Cl
ENDBRANCH   1   9
BRANCH   4  14
ATOM     14  C   UNL A   1     -14.151   3.011  36.068  0.00  0.00    +0.419 C 
ATOM     15  F   UNL A   1     -15.014   2.705  36.885  0.00  0.00    -0.166 F 
ATOM     16  F   UNL A   1     -13.611   4.349  36.449  0.00  0.00    -0.166 F 
ATOM     17  F   UNL A   1     -14.637   3.372  34.867  0.00  0.00    -0.166 F 
ENDBRANCH   4  14
BRANCH   3  18
ATOM     18  C   UNL A   1      -9.223   0.181  35.242  0.00  0.00    -0.004 C 
ATOM     19  C   UNL A   1      -7.934   0.649  35.010  0.00  0.00    -0.022 C 
ATOM     20  C   UNL A   1      -7.574   1.960  35.232  0.00  0.00    +0.031 C 
BRANCH  19  21
ATOM     21  C   UNL A   1      -6.873  -0.270  34.805  0.00  0.00    -0.004 A 
ATOM     22  C   UNL A   1      -6.990  -1.383  34.537  0.00  0.00    -0.000 A 
ATOM     23  C   UNL A   1      -5.849  -2.305  34.340  0.00  0.00    -0.000 A 
ATOM     24  C   UNL A   1      -4.580  -1.795  34.509  0.00  0.00    -0.000 A 
ATOM     25  C   UNL A   1      -5.438   0.209  34.967  0.00  0.00    -0.000 A 
ATOM     26  C   UNL A   1      -4.418  -0.548  34.791  0.00  0.00    -0.000 A 
ENDBRANCH  19  21
ENDBRANCH   3  18
TORSDOF 4
ENDMDL
ENDMDL
