REMARK  Name = No_2335-gen_results/8p0m/2024-11-26-14-13-15/
REMARK  4 active torsions:
REMARK  status: ('A' for Active; 'I' for Inactive)
REMARK    1  A    between atoms: C_3  and  C_7
REMARK    2  A    between atoms: C_9  and  C_10
REMARK    3  A    between atoms: C_11  and  C_12
REMARK    4  A    between atoms: C_18  and  C_22
REMARK                            x       y       z     vdW  Elec       q    Type
REMARK                         _______ _______ _______ _____ _____    ______ ____
ROOT
ATOM      1  C   UNL A   1     -26.317   0.399  27.365  0.00  0.00    -0.000 A 
ATOM      2  C   UNL A   1     -24.941   0.255  27.503  0.00  0.00    +0.004 A 
ATOM      3  C   UNL A   1     -26.913   0.586  26.140  0.00  0.00    -0.000 A 
ATOM      4  C   UNL A   1     -24.108   1.207  26.956  0.00  0.00    +0.071 A 
ATOM      5  C   UNL A   1     -24.588   1.709  25.656  0.00  0.00    +0.004 A 
ATOM      6  C   UNL A   1     -26.009   1.418  25.203  0.00  0.00    -0.000 A 
ENDROOT
BRANCH   1   9
ATOM      7  C   UNL A   1     -28.016  -0.814  28.878  0.00  0.00    +0.011 A 
ATOM      8  C   UNL A   1     -28.469  -0.785  29.829  0.00  0.00    +0.058 A 
ATOM      9  C   UNL A   1     -27.087   0.290  28.638  0.00  0.00    +0.001 A 
ATOM     10  C   UNL A   1     -26.832   1.249  29.587  0.00  0.00    +0.000 A 
ATOM     11  C   UNL A   1     -28.391   0.080  31.006  0.00  0.00    +0.011 A 
ATOM     12  C   UNL A   1     -27.494   1.152  30.784  0.00  0.00    +0.001 A 
ATOM     13 CL   UNL A   1     -29.690  -2.120  30.202  0.00  0.00    -0.082 Cl
ENDBRANCH   1   9
BRANCH   4  14
ATOM     14  C   UNL A   1     -22.702   1.367  27.234  0.00  0.00    +0.419 C 
ATOM     15  F   UNL A   1     -21.926   1.971  26.500  0.00  0.00    -0.166 F 
ATOM     16  F   UNL A   1     -22.773   2.101  28.531  0.00  0.00    -0.166 F 
ATOM     17  F   UNL A   1     -22.206   0.218  27.729  0.00  0.00    -0.166 F 
ENDBRANCH   4  14
BRANCH   3  18
ATOM     18  C   UNL A   1     -28.269   0.717  25.985  0.00  0.00    -0.004 C 
ATOM     19  C   UNL A   1     -28.766   0.732  24.686  0.00  0.00    -0.022 C 
ATOM     20  C   UNL A   1     -28.007   0.352  23.601  0.00  0.00    +0.031 C 
BRANCH  19  21
ATOM     21  C   UNL A   1     -30.160   0.870  24.463  0.00  0.00    -0.004 A 
ATOM     22  C   UNL A   1     -30.669   0.982  23.437  0.00  0.00    -0.000 A 
ATOM     23  C   UNL A   1     -32.131   1.131  23.258  0.00  0.00    -0.000 A 
ATOM     24  C   UNL A   1     -32.914   1.155  24.391  0.00  0.00    -0.000 A 
ATOM     25  C   UNL A   1     -31.100   0.902  25.659  0.00  0.00    -0.000 A 
ATOM     26  C   UNL A   1     -32.374   1.013  25.552  0.00  0.00    -0.000 A 
ENDBRANCH  19  21
ENDBRANCH   3  18
TORSDOF 4
