REMARK  Name = No_2336-gen_results/8p0m/2024-11-26-14-13-15/
REMARK  9 active torsions:
REMARK  status: ('A' for Active; 'I' for Inactive)
REMARK    1  A    between atoms: C_2  and  C_19
REMARK    2  A    between atoms: C_3  and  C_7
REMARK    3  A    between atoms: C_6  and  C_22
REMARK    4  A    between atoms: C_8  and  C_16
REMARK    5  A    between atoms: C_11  and  C_13
REMARK    6  A    between atoms: C_16  and  O_18
REMARK    7  A    between atoms: O_18  and  C_25
REMARK    8  A    between atoms: C_25  and  C_26
REMARK    9  A    between atoms: N_28  and  C_29
REMARK                            x       y       z     vdW  Elec       q    Type
REMARK                         _______ _______ _______ _____ _____    ______ ____
ROOT
ATOM      1  C   UNL A   1     -26.317   0.399  27.365  0.00  0.00    +0.014 A 
ATOM      2  C   UNL A   1     -26.881   0.971  26.372  0.00  0.00    +0.076 A 
ATOM      3  C   UNL A   1     -26.146   0.970  25.097  0.00  0.00    +0.006 A 
ATOM      4  C   UNL A   1     -24.779   0.561  25.112  0.00  0.00    +0.001 A 
ATOM      5  C   UNL A   1     -25.007  -0.116  27.299  0.00  0.00    +0.042 A 
ATOM      6  C   UNL A   1     -24.288   0.006  26.223  0.00  0.00    +0.008 A 
ENDROOT
BRANCH   1   9
ATOM      7  C   UNL A   1     -28.016  -0.814  28.878  0.00  0.00    +0.007 A 
ATOM      8  C   UNL A   1     -28.469  -0.785  29.829  0.00  0.00    +0.080 A 
ATOM      9  C   UNL A   1     -27.087   0.290  28.638  0.00  0.00    +0.001 A 
ATOM     10  C   UNL A   1     -26.832   1.249  29.587  0.00  0.00    +0.007 A 
ATOM     11  C   UNL A   1     -28.391   0.080  31.006  0.00  0.00    +0.013 A 
ATOM     12  C   UNL A   1     -27.494   1.152  30.784  0.00  0.00    +0.080 A 
BRANCH   8  13
ATOM     13  C   UNL A   1     -29.507  -1.975  30.255  0.00  0.00    +0.388 C 
ATOM     14  O   UNL A   1     -30.598  -1.934  29.877  0.00  0.00    -0.241 OA
ATOM     15  O   UNL A   1     -29.036  -2.984  30.900  0.00  0.00    -0.241 OA
ENDBRANCH   8  13
BRANCH  12  16
ATOM     16  C   UNL A   1     -27.292   2.173  31.862  0.00  0.00    +0.388 C 
ATOM     17  O   UNL A   1     -27.630   3.097  32.127  0.00  0.00    -0.241 OA
ATOM     18  O   UNL A   1     -26.396   1.468  32.784  0.00  0.00    -0.241 OA
ENDBRANCH  12  16
ENDBRANCH   1   9
BRANCH   5  19
ATOM     19  C   UNL A   1     -24.393  -0.731  28.529  0.00  0.00    -0.064 C 
ATOM     20  C   UNL A   1     -23.573  -1.206  29.022  0.00  0.00    -0.085 C 
ATOM     21  C   UNL A   1     -22.410  -1.474  29.772  0.00  0.00    +0.090 C 
ENDBRANCH   5  19
BRANCH   2  22
ATOM     22  C   UNL A   1     -28.278   1.474  26.268  0.00  0.00    +0.342 C 
ATOM     23  O   UNL A   1     -29.132   0.979  25.640  0.00  0.00    -0.245 OA
BRANCH  22  24
ATOM     24  O   UNL A   1     -28.529   2.485  27.164  0.00  0.00    -0.435 OA
BRANCH  24  25
ATOM     25  C   UNL A   1     -29.253   3.589  26.723  0.00  0.00    +0.295 C 
BRANCH  25  26
ATOM     26  C   UNL A   1     -30.544   3.467  26.831  0.00  0.00    +0.290 C 
ATOM     27  O   UNL A   1     -31.205   4.099  26.130  0.00  0.00    -0.269 OA
ATOM     28  N   UNL A   1     -31.130   2.681  27.760  0.00  0.00    -0.176 NA
BRANCH  28  29
ATOM     29  C   UNL A   1     -32.068   2.421  28.181  0.00  0.00    +0.073 A 
ATOM     30  C   UNL A   1     -32.302   1.291  29.103  0.00  0.00    +0.017 A 
ATOM     31  C   UNL A   1     -32.774   3.588  28.861  0.00  0.00    +0.012 A 
ATOM     32  C   UNL A   1     -34.061   3.354  29.605  0.00  0.00    -0.021 A 
ATOM     33  C   UNL A   1     -34.693   4.412  30.121  0.00  0.00    +0.031 C 
ATOM     34  C   UNL A   1     -34.360   2.047  29.934  0.00  0.00    -0.004 A 
ATOM     35  C   UNL A   1     -33.133   1.133  29.986  0.00  0.00    +0.001 A 
ENDBRANCH  28  29
ENDBRANCH  25  26
ENDBRANCH  24  25
ENDBRANCH  22  24
ENDBRANCH   2  22
TORSDOF 9
