REMARK  Name = No_2337-gen_results/8p0m/2024-11-26-14-13-15/
REMARK  1 active torsions:
REMARK  status: ('A' for Active; 'I' for Inactive)
REMARK    1  A    between atoms: C_2  and  C_5
REMARK                            x       y       z     vdW  Elec       q    Type
REMARK                         _______ _______ _______ _____ _____    ______ ____
ROOT
ATOM      1  C   UNL A   1     -28.016  -0.814  28.878  0.00  0.00    +0.002 A 
ATOM      2  C   UNL A   1     -28.469  -0.785  29.829  0.00  0.00    +0.026 A 
ATOM      3  C   UNL A   1     -26.504  -0.778  28.877  0.00  0.00    +0.031 A 
ATOM      4  C   UNL A   1     -25.654  -0.660  27.719  0.00  0.00    +0.175 C 
ATOM      5  C   UNL A   1     -24.208  -0.635  27.968  0.00  0.00    +0.105 C 
ATOM      6  C   UNL A   1     -23.831  -0.472  29.145  0.00  0.00    +0.173 C 
ATOM      7  C   UNL A   1     -24.534  -0.472  30.305  0.00  0.00    +0.062 C 
ATOM      8  C   UNL A   1     -25.888  -0.636  30.189  0.00  0.00    -0.017 A 
ATOM      9  C   UNL A   1     -27.915  -0.797  31.236  0.00  0.00    -0.001 A 
ATOM     10  C   UNL A   1     -26.687  -0.665  31.355  0.00  0.00    -0.004 A 
ATOM     11  F   UNL A   1     -22.387  -0.341  29.309  0.00  0.00    -0.236 F 
ATOM     12  O   UNL A   1     -26.072  -0.711  26.506  0.00  0.00    -0.291 OA
ENDROOT
BRANCH   2  13
ATOM     13  C   UNL A   1     -29.992  -0.813  29.958  0.00  0.00    +0.262 C 
ATOM     14 CL   UNL A   1     -30.770  -0.068  28.761  0.00  0.00    -0.072 Cl
ATOM     15  F   UNL A   1     -30.720  -1.433  30.814  0.00  0.00    -0.214 F 
ENDBRANCH   2  13
TORSDOF 1
