MODEL 2337
MODEL 1
REMARK VINA RESULT:    -6.300      0.000      0.000
REMARK INTER + INTRA:          -6.829
REMARK INTER:                  -6.669
REMARK INTRA:                  -0.161
REMARK UNBOUND:                -0.161
REMARK  Name = No_2337-gen_results/8p0m/2024-11-26-14-13-15/
REMARK  1 active torsions:
REMARK  status: ('A' for Active; 'I' for Inactive)
REMARK    1  A    between atoms: C_2  and  C_5
REMARK                            x       y       z     vdW  Elec       q    Type
REMARK                         _______ _______ _______ _____ _____    ______ ____
ROOT
ATOM      1  C   UNL A   1     -23.079   1.098  27.302  0.00  0.00    +0.002 A 
ATOM      2  C   UNL A   1     -23.679   1.333  26.468  0.00  0.00    +0.026 A 
ATOM      3  C   UNL A   1     -23.573  -0.049  28.156  0.00  0.00    +0.031 A 
ATOM      4  C   UNL A   1     -23.023  -0.471  29.419  0.00  0.00    +0.175 C 
ATOM      5  C   UNL A   1     -23.681  -1.609  30.072  0.00  0.00    +0.105 C 
ATOM      6  C   UNL A   1     -24.789  -1.965  29.626  0.00  0.00    +0.173 C 
ATOM      7  C   UNL A   1     -25.453  -1.584  28.506  0.00  0.00    +0.062 C 
ATOM      8  C   UNL A   1     -24.847  -0.622  27.744  0.00  0.00    -0.017 A 
ATOM      9  C   UNL A   1     -24.919   0.699  25.879  0.00  0.00    -0.001 A 
ATOM     10  C   UNL A   1     -25.470  -0.185  26.552  0.00  0.00    -0.004 A 
ATOM     11  F   UNL A   1     -25.441  -3.023  30.390  0.00  0.00    -0.236 F 
ATOM     12  O   UNL A   1     -21.938  -0.009  29.927  0.00  0.00    -0.291 OA
ENDROOT
BRANCH   2  13
ATOM     13  C   UNL A   1     -23.284   2.475  25.532  0.00  0.00    +0.262 C 
ATOM     14 CL   UNL A   1     -24.188   3.799  25.688  0.00  0.00    -0.072 Cl
ATOM     15  F   UNL A   1     -22.281   2.559  24.736  0.00  0.00    -0.214 F 
ENDBRANCH   2  13
TORSDOF 1
ENDMDL
ENDMDL
