MODEL 2338
MODEL 1
REMARK VINA RESULT:    -6.369      0.000      0.000
REMARK INTER + INTRA:          -9.231
REMARK INTER:                  -7.859
REMARK INTRA:                  -1.372
REMARK UNBOUND:                -1.372
REMARK  Name = No_2338-gen_results/8p0m/2024-11-26-14-13-15/
REMARK  4 active torsions:
REMARK  status: ('A' for Active; 'I' for Inactive)
REMARK    1  A    between atoms: C_10  and  C_11
REMARK    2  A    between atoms: C_11  and  O_12
REMARK    3  A    between atoms: O_12  and  C_14
REMARK    4  A    between atoms: C_14  and  C_15
REMARK                            x       y       z     vdW  Elec       q    Type
REMARK                         _______ _______ _______ _____ _____    ______ ____
ROOT
ATOM      1  C   UNL A   1     -22.305   1.879  27.008  0.00  0.00    +0.000 A 
ATOM      2  C   UNL A   1     -21.364   1.628  27.411  0.00  0.00    +0.000 A 
ATOM      3  C   UNL A   1     -23.375   0.965  27.407  0.00  0.00    +0.000 A 
ATOM      4  C   UNL A   1     -24.799   1.164  27.057  0.00  0.00    +0.000 A 
ATOM      5  C   UNL A   1     -20.865   0.575  28.284  0.00  0.00    +0.000 A 
ATOM      6  C   UNL A   1     -21.844  -0.316  28.673  0.00  0.00    +0.000 A 
ATOM      7  C   UNL A   1     -23.118  -0.115  28.291  0.00  0.00    +0.006 A 
ATOM      8  C   UNL A   1     -25.623   0.031  27.155  0.00  0.00    +0.000 A 
ATOM      9  C   UNL A   1     -25.403  -0.944  28.092  0.00  0.00    +0.006 A 
ATOM     10  C   UNL A   1     -24.070  -1.158  28.512  0.00  0.00    +0.076 A 
ENDROOT
BRANCH  10  11
ATOM     11  C   UNL A   1     -23.834  -2.337  29.391  0.00  0.00    +0.342 C 
ATOM     12  O   UNL A   1     -23.813  -3.495  28.797  0.00  0.00    -0.245 OA
BRANCH  11  13
ATOM     13  O   UNL A   1     -24.491  -2.289  30.437  0.00  0.00    -0.440 OA
BRANCH  13  14
ATOM     14  C   UNL A   1     -23.905  -1.526  31.482  0.00  0.00    +0.235 C 
BRANCH  14  15
ATOM     15  C   UNL A   1     -24.654  -0.340  31.795  0.00  0.00    +0.021 A 
ATOM     16  C   UNL A   1     -25.544  -0.462  32.258  0.00  0.00    -0.001 A 
ATOM     17  C   UNL A   1     -23.876   0.880  31.479  0.00  0.00    -0.001 A 
ATOM     18  C   UNL A   1     -24.542   1.969  31.522  0.00  0.00    -0.000 A 
ATOM     19  C   UNL A   1     -26.378   0.863  32.512  0.00  0.00    -0.000 A 
ATOM     20  C   UNL A   1     -25.776   2.066  32.166  0.00  0.00    -0.000 A 
ENDBRANCH  14  15
ENDBRANCH  13  14
ENDBRANCH  11  13
ENDBRANCH  10  11
TORSDOF 4
ENDMDL
ENDMDL
