REMARK  Name = No_2338-gen_results/8p0m/2024-11-26-14-13-15/
REMARK  4 active torsions:
REMARK  status: ('A' for Active; 'I' for Inactive)
REMARK    1  A    between atoms: C_10  and  C_11
REMARK    2  A    between atoms: C_11  and  O_12
REMARK    3  A    between atoms: O_12  and  C_14
REMARK    4  A    between atoms: C_14  and  C_15
REMARK                            x       y       z     vdW  Elec       q    Type
REMARK                         _______ _______ _______ _____ _____    ______ ____
ROOT
ATOM      1  C   UNL A   1     -28.016  -0.814  28.878  0.00  0.00    +0.000 A 
ATOM      2  C   UNL A   1     -28.469  -0.785  29.829  0.00  0.00    +0.000 A 
ATOM      3  C   UNL A   1     -27.087   0.290  28.638  0.00  0.00    +0.000 A 
ATOM      4  C   UNL A   1     -26.252   0.411  27.422  0.00  0.00    +0.000 A 
ATOM      5  C   UNL A   1     -28.391   0.104  30.980  0.00  0.00    +0.000 A 
ATOM      6  C   UNL A   1     -27.533   1.167  30.787  0.00  0.00    +0.000 A 
ATOM      7  C   UNL A   1     -26.828   1.256  29.645  0.00  0.00    +0.006 A 
ATOM      8  C   UNL A   1     -25.733   1.689  27.155  0.00  0.00    +0.000 A 
ATOM      9  C   UNL A   1     -25.398   2.558  28.160  0.00  0.00    +0.006 A 
ATOM     10  C   UNL A   1     -26.122   2.468  29.370  0.00  0.00    +0.076 A 
ENDROOT
BRANCH  10  11
ATOM     11  C   UNL A   1     -25.864   3.535  30.377  0.00  0.00    +0.342 C 
ATOM     12  O   UNL A   1     -24.712   3.482  30.979  0.00  0.00    -0.245 OA
BRANCH  11  13
ATOM     13  O   UNL A   1     -26.838   3.742  31.110  0.00  0.00    -0.440 OA
BRANCH  13  14
ATOM     14  C   UNL A   1     -26.615   4.671  32.160  0.00  0.00    +0.235 C 
BRANCH  14  15
ATOM     15  C   UNL A   1     -26.697   6.038  31.723  0.00  0.00    +0.021 A 
ATOM     16  C   UNL A   1     -27.395   6.624  32.161  0.00  0.00    -0.001 A 
ATOM     17  C   UNL A   1     -25.608   6.360  30.773  0.00  0.00    -0.001 A 
ATOM     18  C   UNL A   1     -25.732   7.481  30.172  0.00  0.00    -0.000 A 
ATOM     19  C   UNL A   1     -27.511   8.101  31.595  0.00  0.00    -0.000 A 
ATOM     20  C   UNL A   1     -26.591   8.482  30.627  0.00  0.00    -0.000 A 
ENDBRANCH  14  15
ENDBRANCH  13  14
ENDBRANCH  11  13
ENDBRANCH  10  11
TORSDOF 4
