MODEL 2339
MODEL 1
REMARK VINA RESULT:    -5.509      0.000      0.000
REMARK INTER + INTRA:          -7.547
REMARK INTER:                  -7.120
REMARK INTRA:                  -0.428
REMARK UNBOUND:                -0.428
REMARK  Name = No_2339-gen_results/8p0m/2024-11-26-14-13-15/
REMARK  5 active torsions:
REMARK  status: ('A' for Active; 'I' for Inactive)
REMARK    1  A    between atoms: C_2  and  C_5
REMARK    2  A    between atoms: C_4  and  C_10
REMARK    3  A    between atoms: C_10  and  C_11
REMARK    4  A    between atoms: C_10  and  C_12
REMARK    5  A    between atoms: C_12  and  N_14
REMARK                            x       y       z     vdW  Elec       q    Type
REMARK                         _______ _______ _______ _____ _____    ______ ____
ROOT
ATOM      1  C   UNL A   1     -27.791 -12.084  31.585  0.00  0.00    +0.006 A 
ATOM      2  C   UNL A   1     -28.239 -11.824  32.502  0.00  0.00    +0.080 A 
ATOM      3  C   UNL A   1     -28.730 -12.124  30.464  0.00  0.00    -0.004 A 
ATOM      4  C   UNL A   1     -29.244 -11.091  30.036  0.00  0.00    -0.017 A 
ATOM      5  C   UNL A   1     -29.799 -10.215  31.189  0.00  0.00    -0.004 A 
ATOM      6  C   UNL A   1     -29.008 -10.422  32.426  0.00  0.00    +0.006 A 
ENDROOT
BRANCH   2   7
ATOM      7  C   UNL A   1     -27.318 -11.715  33.712  0.00  0.00    +0.388 C 
ATOM      8  O   UNL A   1     -26.684 -12.814  33.944  0.00  0.00    -0.241 OA
ATOM      9  O   UNL A   1     -27.228 -10.746  34.591  0.00  0.00    -0.241 OA
ENDBRANCH   2   7
BRANCH   4  10
ATOM     10  C   UNL A   1     -30.100 -10.881  28.793  0.00  0.00    +0.062 C 
BRANCH  10  11
ATOM     11  C   UNL A   1     -30.141 -11.741  27.912  0.00  0.00    -0.021 C 
ATOM     12  C   UNL A   1     -29.259 -11.989  26.875  0.00  0.00    -0.004 C 
ENDBRANCH  10  11
BRANCH  10  13
ATOM     13  C   UNL A   1     -31.124  -9.881  28.811  0.00  0.00    +0.097 C 
BRANCH  13  14
ATOM     14  N   UNL A   1     -31.406  -9.013  28.287  0.00  0.00    -0.216 NA
ATOM     15  C   UNL A   1     -31.431  -7.779  28.736  0.00  0.00    +0.107 C 
ENDBRANCH  13  14
ENDBRANCH  10  13
ENDBRANCH   4  10
TORSDOF 5
ENDMDL
ENDMDL
