REMARK  Name = No_2339-gen_results/8p0m/2024-11-26-14-13-15/
REMARK  5 active torsions:
REMARK  status: ('A' for Active; 'I' for Inactive)
REMARK    1  A    between atoms: C_2  and  C_5
REMARK    2  A    between atoms: C_4  and  C_10
REMARK    3  A    between atoms: C_10  and  C_11
REMARK    4  A    between atoms: C_10  and  C_12
REMARK    5  A    between atoms: C_12  and  N_14
REMARK                            x       y       z     vdW  Elec       q    Type
REMARK                         _______ _______ _______ _____ _____    ______ ____
ROOT
ATOM      1  C   UNL A   1     -28.016  -0.814  28.878  0.00  0.00    +0.006 A 
ATOM      2  C   UNL A   1     -28.469  -0.785  29.829  0.00  0.00    +0.080 A 
ATOM      3  C   UNL A   1     -27.087   0.290  28.638  0.00  0.00    -0.004 A 
ATOM      4  C   UNL A   1     -26.024   0.364  29.253  0.00  0.00    -0.017 A 
ATOM      5  C   UNL A   1     -26.233   0.142  30.773  0.00  0.00    -0.004 A 
ATOM      6  C   UNL A   1     -27.391  -0.753  31.013  0.00  0.00    +0.006 A 
ENDROOT
BRANCH   2   7
ATOM      7  C   UNL A   1     -29.416  -1.928  30.175  0.00  0.00    +0.388 C 
ATOM      8  O   UNL A   1     -30.635  -1.671  29.841  0.00  0.00    -0.241 OA
ATOM      9  O   UNL A   1     -29.178  -3.006  30.884  0.00  0.00    -0.241 OA
ENDBRANCH   2   7
BRANCH   4  10
ATOM     10  C   UNL A   1     -24.851   1.314  29.044  0.00  0.00    +0.062 C 
BRANCH  10  11
ATOM     11  C   UNL A   1     -23.725   1.012  29.442  0.00  0.00    -0.021 C 
ATOM     12  C   UNL A   1     -23.346   0.245  30.530  0.00  0.00    -0.004 C 
ENDBRANCH  10  11
BRANCH  10  13
ATOM     13  C   UNL A   1     -24.969   2.368  28.082  0.00  0.00    +0.097 C 
BRANCH  13  14
ATOM     14  N   UNL A   1     -25.180   2.500  27.060  0.00  0.00    -0.216 NA
ATOM     15  C   UNL A   1     -25.266   3.632  26.399  0.00  0.00    +0.107 C 
ENDBRANCH  13  14
ENDBRANCH  10  13
ENDBRANCH   4  10
TORSDOF 5
