MODEL 233
MODEL 1
REMARK VINA RESULT:    -5.478      0.000      0.000
REMARK INTER + INTRA:          -6.658
REMARK INTER:                  -6.439
REMARK INTRA:                  -0.219
REMARK UNBOUND:                -0.219
REMARK  Name = No_233-gen_results/8p0m/2024-11-26-14-13-15/
REMARK  3 active torsions:
REMARK  status: ('A' for Active; 'I' for Inactive)
REMARK    1  A    between atoms: C_1  and  C_2
REMARK    2  A    between atoms: C_1  and  N_8
REMARK    3  A    between atoms: C_5  and  C_9
REMARK                            x       y       z     vdW  Elec       q    Type
REMARK                         _______ _______ _______ _____ _____    ______ ____
ROOT
ATOM      1  C   UNL A   1     -29.668 -10.599  30.330  0.00  0.00    +0.002 A 
ATOM      2  C   UNL A   1     -29.815 -10.063  31.507  0.00  0.00    -0.002 A 
ATOM      3  C   UNL A   1     -29.054 -10.412  32.732  0.00  0.00    +0.006 A 
ATOM      4  C   UNL A   1     -28.106 -11.467  32.608  0.00  0.00    +0.080 A 
ATOM      5  C   UNL A   1     -27.990 -12.075  31.384  0.00  0.00    +0.006 A 
ATOM      6  C   UNL A   1     -28.716 -11.737  30.293  0.00  0.00    -0.002 A 
ENDROOT
BRANCH   4   7
ATOM      7  C   UNL A   1     -27.304 -11.873  33.725  0.00  0.00    +0.388 C 
ATOM      8  O   UNL A   1     -26.660 -12.846  33.850  0.00  0.00    -0.241 OA
ATOM      9  O   UNL A   1     -26.933 -10.790  34.561  0.00  0.00    -0.241 OA
ENDBRANCH   4   7
BRANCH   1  10
ATOM     10  C   UNL A   1     -30.274 -10.341  29.316  0.00  0.00    +0.151 C 
BRANCH  10  11
ATOM     11  N   UNL A   1     -30.226 -11.275  28.213  0.00  0.00    -0.269 NA
ATOM     12  C   UNL A   1     -30.213 -10.937  26.868  0.00  0.00    +0.068 C 
ATOM     13  C   UNL A   1     -29.842 -11.938  25.931  0.00  0.00    +0.053 C 
ENDBRANCH  10  11
ENDBRANCH   1  10
TORSDOF 3
ENDMDL
ENDMDL
