MODEL 2340
MODEL 1
REMARK VINA RESULT:    -5.892      0.000      0.000
REMARK INTER + INTRA:          -6.865
REMARK INTER:                  -6.581
REMARK INTRA:                  -0.284
REMARK UNBOUND:                -0.284
REMARK  Name = No_2340-gen_results/8p0m/2024-11-26-14-13-15/
REMARK  2 active torsions:
REMARK  status: ('A' for Active; 'I' for Inactive)
REMARK    1  A    between atoms: C_3  and  C_4
REMARK    2  A    between atoms: C_7  and  C_13
REMARK                            x       y       z     vdW  Elec       q    Type
REMARK                         _______ _______ _______ _____ _____    ______ ____
ROOT
ATOM      1  O   UNL A   1     -24.872   3.932  27.860  0.00  0.00    -0.273 OA
ATOM      2  C   UNL A   1     -24.256   2.860  27.871  0.00  0.00    +0.250 C 
ATOM      3  C   UNL A   1     -23.549   2.266  27.205  0.00  0.00    +0.173 C 
ATOM      4  N   UNL A   1     -24.163   2.256  29.306  0.00  0.00    -0.190 NA
ATOM      5  C   UNL A   1     -23.512   1.147  29.587  0.00  0.00    +0.184 C 
ATOM      6  C   UNL A   1     -22.784   0.493  28.585  0.00  0.00    +0.139 C 
ATOM      7  C   UNL A   1     -22.748   0.930  27.373  0.00  0.00    +0.032 C 
ATOM      8 CL   UNL A   1     -23.648   0.524  31.160  0.00  0.00    -0.090 Cl
ENDROOT
BRANCH   3   9
ATOM      9  C   UNL A   1     -23.307   2.490  25.862  0.00  0.00    +0.406 C 
ATOM     10  F   UNL A   1     -23.531   3.577  25.182  0.00  0.00    -0.170 F 
ATOM     11  F   UNL A   1     -21.860   2.147  25.658  0.00  0.00    -0.170 F 
ATOM     12  F   UNL A   1     -24.052   1.636  25.095  0.00  0.00    -0.170 F 
ENDBRANCH   3   9
BRANCH   6  13
ATOM     13  C   UNL A   1     -22.024  -0.804  28.980  0.00  0.00    +0.367 C 
ATOM     14  O   UNL A   1     -20.833  -0.890  28.976  0.00  0.00    -0.246 OA
ATOM     15  O   UNL A   1     -22.744  -1.884  29.056  0.00  0.00    -0.246 OA
ENDBRANCH   6  13
TORSDOF 2
ENDMDL
ENDMDL
