REMARK  Name = No_2341-gen_results/8p0m/2024-11-26-14-13-15/
REMARK  13 active torsions:
REMARK  status: ('A' for Active; 'I' for Inactive)
REMARK    1  A    between atoms: C_1  and  O_22
REMARK    2  A    between atoms: C_3  and  C_8
REMARK    3  A    between atoms: C_6  and  O_7
REMARK    4  A    between atoms: O_7  and  C_14
REMARK    5  A    between atoms: C_14  and  C_15
REMARK    6  A    between atoms: C_15  and  O_16
REMARK    7  A    between atoms: O_16  and  C_17
REMARK    8  A    between atoms: C_17  and  C_19
REMARK    9  A    between atoms: O_22  and  C_23
REMARK   10  A    between atoms: C_23  and  C_24
REMARK   11  A    between atoms: C_24  and  C_26
REMARK   12  A    between atoms: C_31  and  C_33
REMARK   13  A    between atoms: C_33  and  N_34
REMARK                            x       y       z     vdW  Elec       q    Type
REMARK                         _______ _______ _______ _____ _____    ______ ____
ROOT
ATOM      1  C   UNL A   1     -28.016  -0.814  28.878  0.00  0.00    +0.182 A 
ATOM      2  C   UNL A   1     -27.064  -0.119  28.608  0.00  0.00    +0.041 A 
ATOM      3  C   UNL A   1     -25.792  -0.430  29.076  0.00  0.00    +0.003 A 
ATOM      4  C   UNL A   1     -25.576  -1.565  29.936  0.00  0.00    +0.003 A 
ATOM      5  C   UNL A   1     -26.735  -2.300  30.217  0.00  0.00    +0.040 A 
ATOM      6  C   UNL A   1     -27.918  -1.954  29.763  0.00  0.00    +0.174 A 
ENDROOT
BRANCH   3   7
ATOM      7  C   UNL A   1     -24.674   0.516  28.779  0.00  0.00    +0.000 A 
ATOM      8  C   UNL A   1     -24.498   1.080  27.626  0.00  0.00    +0.000 A 
ATOM      9  C   UNL A   1     -23.312   1.885  27.378  0.00  0.00    +0.000 A 
ATOM     10  C   UNL A   1     -22.197   1.804  28.146  0.00  0.00    +0.000 A 
ATOM     11  C   UNL A   1     -23.457   0.400  29.594  0.00  0.00    +0.000 A 
ATOM     12  C   UNL A   1     -22.255   1.039  29.269  0.00  0.00    +0.000 A 
ENDBRANCH   3   7
BRANCH   6  13
ATOM     13  O   UNL A   1     -29.000  -2.701  30.115  0.00  0.00    -0.461 OA
BRANCH  13  14
ATOM     14  C   UNL A   1     -29.358  -2.821  31.442  0.00  0.00    +0.314 C 
BRANCH  14  15
ATOM     15  C   UNL A   1     -29.779  -4.133  31.743  0.00  0.00    +0.363 C 
ATOM     16  O   UNL A   1     -29.023  -5.125  31.996  0.00  0.00    -0.246 OA
BRANCH  15  17
ATOM     17  O   UNL A   1     -31.001  -4.358  31.609  0.00  0.00    -0.433 OA
BRANCH  17  18
ATOM     18  C   UNL A   1     -31.476  -5.433  31.123  0.00  0.00    +0.321 C 
BRANCH  18  19
ATOM     19  C   UNL A   1     -31.354  -5.802  29.924  0.00  0.00    +0.408 C 
ATOM     20  O   UNL A   1     -31.285  -6.946  29.501  0.00  0.00    -0.241 OA
ATOM     21  O   UNL A   1     -31.432  -4.869  28.900  0.00  0.00    -0.241 OA
ENDBRANCH  18  19
ENDBRANCH  17  18
ENDBRANCH  15  17
ENDBRANCH  14  15
ENDBRANCH  13  14
ENDBRANCH   6  13
BRANCH   1  22
ATOM     22  O   UNL A   1     -29.281  -0.533  28.459  0.00  0.00    -0.419 OA
BRANCH  22  23
ATOM     23  C   UNL A   1     -29.535   0.361  27.532  0.00  0.00    +0.357 C 
ATOM     24  O   UNL A   1     -29.177   0.112  26.393  0.00  0.00    -0.246 OA
BRANCH  23  25
ATOM     25  C   UNL A   1     -30.279   1.358  28.032  0.00  0.00    +0.272 C 
ATOM     26  O   UNL A   1     -30.868   1.284  29.079  0.00  0.00    -0.206 OA
BRANCH  25  27
ATOM     27  C   UNL A   1     -29.485   2.723  28.106  0.00  0.00    +0.018 A 
ATOM     28  C   UNL A   1     -29.157   3.449  26.970  0.00  0.00    -0.001 A 
ATOM     29  C   UNL A   1     -28.000   4.021  26.934  0.00  0.00    -0.001 A 
ATOM     30  C   UNL A   1     -27.148   4.269  28.085  0.00  0.00    -0.003 A 
ATOM     31  C   UNL A   1     -27.530   3.510  29.247  0.00  0.00    -0.005 A 
ATOM     32  C   UNL A   1     -28.625   2.720  29.232  0.00  0.00    -0.004 A 
BRANCH  31  33
ATOM     33  C   UNL A   1     -26.606   3.662  30.415  0.00  0.00    +0.115 C 
BRANCH  33  34
ATOM     34  N   UNL A   1     -26.467   2.714  31.209  0.00  0.00    -0.212 NA
ATOM     35  C   UNL A   1     -27.023   1.774  31.611  0.00  0.00    +0.108 C 
ENDBRANCH  33  34
ENDBRANCH  31  33
ENDBRANCH  25  27
ENDBRANCH  23  25
ENDBRANCH  22  23
ENDBRANCH   1  22
TORSDOF 13
