MODEL 2342
MODEL 1
REMARK VINA RESULT:    -6.690      0.000      0.000
REMARK INTER + INTRA:          -7.930
REMARK INTER:                  -7.472
REMARK INTRA:                  -0.458
REMARK UNBOUND:                -0.458
REMARK  Name = No_2342-gen_results/8p0m/2024-11-26-14-13-15/
REMARK  2 active torsions:
REMARK  status: ('A' for Active; 'I' for Inactive)
REMARK    1  A    between atoms: C_3  and  C_4
REMARK    2  A    between atoms: C_4  and  C_8
REMARK                            x       y       z     vdW  Elec       q    Type
REMARK                         _______ _______ _______ _____ _____    ______ ____
ROOT
ATOM      1  C   UNL A   1     -23.424  -1.946  29.333  0.00  0.00    +0.053 C 
ENDROOT
BRANCH   1   4
ATOM      2  C   UNL A   1     -23.968   0.047  27.764  0.00  0.00    -0.004 A 
ATOM      3  C   UNL A   1     -23.545   0.925  27.364  0.00  0.00    -0.000 A 
ATOM      4  C   UNL A   1     -23.038  -0.731  28.581  0.00  0.00    -0.018 A 
ATOM      5  C   UNL A   1     -22.237   1.561  27.430  0.00  0.00    -0.000 A 
ATOM      6  C   UNL A   1     -21.326   0.849  28.183  0.00  0.00    -0.000 A 
ATOM      7  C   UNL A   1     -21.714  -0.274  28.813  0.00  0.00    -0.004 A 
ENDBRANCH   1   4
BRANCH   1   8
ATOM      8  C   UNL A   1     -24.288  -2.714  29.237  0.00  0.00    -0.018 A 
ATOM      9  C   UNL A   1     -25.494  -2.414  30.035  0.00  0.00    -0.004 A 
ATOM     10  C   UNL A   1     -26.490  -3.512  29.910  0.00  0.00    -0.000 A 
ATOM     11  C   UNL A   1     -26.188  -4.784  29.534  0.00  0.00    -0.000 A 
ATOM     12  C   UNL A   1     -24.951  -5.018  28.981  0.00  0.00    -0.000 A 
ATOM     13  C   UNL A   1     -24.007  -4.027  28.859  0.00  0.00    -0.004 A 
ENDBRANCH   1   8
TORSDOF 2
ENDMDL
ENDMDL
