REMARK  Name = No_2343-gen_results/8p0m/2024-11-26-14-13-15/
REMARK  4 active torsions:
REMARK  status: ('A' for Active; 'I' for Inactive)
REMARK    1  A    between atoms: C_3  and  C_15
REMARK    2  A    between atoms: C_7  and  C_8
REMARK    3  A    between atoms: C_15  and  O_16
REMARK    4  A    between atoms: O_16  and  C_19
REMARK                            x       y       z     vdW  Elec       q    Type
REMARK                         _______ _______ _______ _____ _____    ______ ____
ROOT
ATOM      1  F   UNL A   1     -28.073  -1.254  28.532  0.00  0.00    -0.204 F 
ATOM      2  C   UNL A   1     -27.359  -0.379  28.722  0.00  0.00    +0.147 A 
ATOM      3  C   UNL A   1     -26.332  -0.644  29.452  0.00  0.00    +0.117 A 
ATOM      4  C   UNL A   1     -25.256   0.320  29.782  0.00  0.00    +0.100 A 
ATOM      5  C   UNL A   1     -25.424   1.627  29.203  0.00  0.00    +0.155 A 
ATOM      6  C   UNL A   1     -26.526   1.825  28.403  0.00  0.00    +0.050 A 
ATOM      7  C   UNL A   1     -27.451   0.860  28.136  0.00  0.00    +0.029 A 
ATOM      8  O   UNL A   1     -24.529   2.560  29.511  0.00  0.00    -0.450 OA
ATOM      9 CL   UNL A   1     -23.958   0.043  30.795  0.00  0.00    -0.079 Cl
ATOM     10  C   UNL A   1     -24.601   3.584  28.457  0.00  0.00    +0.178 C 
ATOM     11  C   UNL A   1     -25.402   3.601  27.379  0.00  0.00    +0.051 C 
ATOM     12  C   UNL A   1     -26.466   2.759  27.394  0.00  0.00    +0.203 C 
ATOM     13  O   UNL A   1     -26.832   3.933  27.200  0.00  0.00    -0.213 OA
ENDROOT
BRANCH   7  14
ATOM     14  C   UNL A   1     -28.540   1.202  27.245  0.00  0.00    +0.000 A 
ATOM     15  C   UNL A   1     -29.485   0.877  27.087  0.00  0.00    +0.030 A 
ATOM     16  C   UNL A   1     -30.492   1.214  26.051  0.00  0.00    +0.151 A 
ATOM     17  C   UNL A   1     -30.004   2.167  25.137  0.00  0.00    +0.085 A 
ATOM     18  C   UNL A   1     -28.720   2.673  25.178  0.00  0.00    +0.009 A 
ATOM     19  C   UNL A   1     -27.896   2.273  26.209  0.00  0.00    -0.021 A 
ATOM     20 CL   UNL A   1     -31.048   2.725  23.873  0.00  0.00    -0.080 Cl
ATOM     21  F   UNL A   1     -31.692   0.791  25.916  0.00  0.00    -0.203 F 
ATOM     22  C   UNL A   1     -26.667   1.910  25.506  0.00  0.00    +0.031 C 
ENDBRANCH   7  14
BRANCH   3  23
ATOM     23  C   UNL A   1     -26.056  -1.983  30.094  0.00  0.00    +0.346 C 
ATOM     24  O   UNL A   1     -27.148  -2.530  30.584  0.00  0.00    -0.245 OA
BRANCH  23  25
ATOM     25  O   UNL A   1     -25.056  -2.586  29.980  0.00  0.00    -0.420 OA
BRANCH  25  26
ATOM     26  C   UNL A   1     -24.894  -3.673  29.046  0.00  0.00    +0.307 C 
ATOM     27  C   UNL A   1     -24.412  -4.718  29.644  0.00  0.00    +0.145 C 
ATOM     28  C   UNL A   1     -24.485  -5.856  28.589  0.00  0.00    +0.026 C 
ATOM     29  N   UNL A   1     -22.969  -4.495  29.591  0.00  0.00    -0.182 NA
ATOM     30  C   UNL A   1     -22.953  -3.082  29.512  0.00  0.00    +0.256 C 
ATOM     31  O   UNL A   1     -24.257  -3.167  28.028  0.00  0.00    -0.315 OA
ATOM     32  C   UNL A   1     -23.296  -2.379  28.128  0.00  0.00    +0.197 C 
ATOM     33  O   UNL A   1     -23.125  -2.287  30.543  0.00  0.00    -0.201 OA
ENDBRANCH  25  26
ENDBRANCH  23  25
ENDBRANCH   3  23
TORSDOF 4
