MODEL 2343
MODEL 1
REMARK VINA RESULT:    -7.534      0.000      0.000
REMARK INTER + INTRA:          -9.431
REMARK INTER:                  -9.296
REMARK INTRA:                  -0.134
REMARK UNBOUND:                -0.134
REMARK  Name = No_2343-gen_results/8p0m/2024-11-26-14-13-15/
REMARK  4 active torsions:
REMARK  status: ('A' for Active; 'I' for Inactive)
REMARK    1  A    between atoms: C_3  and  C_15
REMARK    2  A    between atoms: C_7  and  C_8
REMARK    3  A    between atoms: C_15  and  O_16
REMARK    4  A    between atoms: O_16  and  C_19
REMARK                            x       y       z     vdW  Elec       q    Type
REMARK                         _______ _______ _______ _____ _____    ______ ____
ROOT
ATOM      1  F   UNL A   1     -20.870 -17.110   6.724  0.00  0.00    -0.204 F 
ATOM      2  C   UNL A   1     -21.395 -17.695   5.890  0.00  0.00    +0.147 A 
ATOM      3  C   UNL A   1     -22.333 -17.066   5.271  0.00  0.00    +0.117 A 
ATOM      4  C   UNL A   1     -23.106 -17.609   4.130  0.00  0.00    +0.100 A 
ATOM      5  C   UNL A   1     -22.724 -18.936   3.725  0.00  0.00    +0.155 A 
ATOM      6  C   UNL A   1     -21.688 -19.531   4.408  0.00  0.00    +0.050 A 
ATOM      7  C   UNL A   1     -21.016 -18.934   5.433  0.00  0.00    +0.029 A 
ATOM      8  O   UNL A   1     -23.421 -19.510   2.749  0.00  0.00    -0.450 OA
ATOM      9 CL   UNL A   1     -24.386 -16.863   3.360  0.00  0.00    -0.079 Cl
ATOM     10  C   UNL A   1     -22.571 -20.570   2.185  0.00  0.00    +0.178 C 
ATOM     11  C   UNL A   1     -21.328 -20.915   2.559  0.00  0.00    +0.051 C 
ATOM     12  C   UNL A   1     -20.904 -20.461   3.765  0.00  0.00    +0.203 C 
ATOM     13  O   UNL A   1     -20.808 -21.700   3.699  0.00  0.00    -0.213 OA
ENDROOT
BRANCH   7  14
ATOM     14  C   UNL A   1     -19.921 -19.666   6.035  0.00  0.00    +0.000 A 
ATOM     15  C   UNL A   1     -18.960 -19.870   5.796  0.00  0.00    +0.030 A 
ATOM     16  C   UNL A   1     -17.943 -20.746   6.427  0.00  0.00    +0.151 A 
ATOM     17  C   UNL A   1     -18.448 -21.396   7.569  0.00  0.00    +0.085 A 
ATOM     18  C   UNL A   1     -19.754 -21.270   8.001  0.00  0.00    +0.009 A 
ATOM     19  C   UNL A   1     -20.585 -20.409   7.316  0.00  0.00    -0.021 A 
ATOM     20 CL   UNL A   1     -17.398 -22.433   8.475  0.00  0.00    -0.080 Cl
ATOM     21  F   UNL A   1     -16.723 -20.944   6.097  0.00  0.00    -0.203 F 
ATOM     22  C   UNL A   1     -21.779 -21.225   7.107  0.00  0.00    +0.031 C 
ENDBRANCH   7  14
BRANCH   3  23
ATOM     23  C   UNL A   1     -22.800 -15.670   5.609  0.00  0.00    +0.346 C 
ATOM     24  O   UNL A   1     -23.374 -15.614   6.791  0.00  0.00    -0.245 OA
BRANCH  23  25
ATOM     25  O   UNL A   1     -22.497 -14.702   5.018  0.00  0.00    -0.420 OA
BRANCH  25  26
ATOM     26  C   UNL A   1     -23.050 -13.401   5.302  0.00  0.00    +0.307 C 
ATOM     27  C   UNL A   1     -24.066 -13.162   4.533  0.00  0.00    +0.145 C 
ATOM     28  C   UNL A   1     -24.683 -11.844   5.078  0.00  0.00    +0.026 C 
ATOM     29  N   UNL A   1     -23.449 -12.606   3.331  0.00  0.00    -0.182 NA
ATOM     30  C   UNL A   1     -22.170 -13.204   3.426  0.00  0.00    +0.256 C 
ATOM     31  O   UNL A   1     -22.036 -12.582   5.298  0.00  0.00    -0.315 OA
ATOM     32  C   UNL A   1     -21.114 -12.617   4.459  0.00  0.00    +0.197 C 
ATOM     33  O   UNL A   1     -21.914 -14.447   3.087  0.00  0.00    -0.201 OA
ENDBRANCH  25  26
ENDBRANCH  23  25
ENDBRANCH   3  23
TORSDOF 4
ENDMDL
ENDMDL
