MODEL 2344
MODEL 1
REMARK VINA RESULT:    -8.124      0.000      0.000
REMARK INTER + INTRA:         -10.656
REMARK INTER:                 -10.499
REMARK INTRA:                  -0.157
REMARK UNBOUND:                -0.157
REMARK  Name = No_2344-gen_results/8p0m/2024-11-26-14-13-15/
REMARK  5 active torsions:
REMARK  status: ('A' for Active; 'I' for Inactive)
REMARK    1  A    between atoms: C_1  and  C_2
REMARK    2  A    between atoms: C_4  and  C_21
REMARK    3  A    between atoms: C_5  and  C_11
REMARK    4  A    between atoms: N_8  and  C_10
REMARK    5  A    between atoms: C_21  and  N_22
REMARK                            x       y       z     vdW  Elec       q    Type
REMARK                         _______ _______ _______ _____ _____    ______ ____
ROOT
ATOM      1  C   UNL A   1     -25.495   0.131  26.023  0.00  0.00    +0.053 A 
ATOM      2  C   UNL A   1     -25.583  -0.683  27.105  0.00  0.00    +0.001 A 
ATOM      3  C   UNL A   1     -24.809  -0.510  28.354  0.00  0.00    -0.010 A 
ATOM      4  C   UNL A   1     -23.889   0.589  28.399  0.00  0.00    -0.025 A 
ATOM      5  C   UNL A   1     -23.773   1.370  27.228  0.00  0.00    -0.004 A 
ATOM      6  C   UNL A   1     -24.526   1.149  26.103  0.00  0.00    +0.004 A 
ENDROOT
BRANCH   1   7
ATOM      7  C   UNL A   1     -26.132  -0.023  25.007  0.00  0.00    +0.249 C 
ATOM      8  N   UNL A   1     -27.480   0.513  24.922  0.00  0.00    -0.276 N 
ATOM      9  O   UNL A   1     -25.572   0.032  23.854  0.00  0.00    -0.270 OA
ATOM     10  C   UNL A   1     -28.243   0.750  26.182  0.00  0.00    +0.115 C 
BRANCH   8  11
ATOM     11  C   UNL A   1     -28.368   0.477  23.802  0.00  0.00    +0.083 C 
ATOM     12  C   UNL A   1     -28.738  -0.814  23.468  0.00  0.00    +0.021 C 
ATOM     13  C   UNL A   1     -30.066  -1.165  23.727  0.00  0.00    +0.009 C 
ATOM     14  C   UNL A   1     -30.929  -0.403  24.007  0.00  0.00    +0.065 C 
ATOM     15  C   UNL A   1     -30.951   0.773  23.326  0.00  0.00    +0.152 C 
ATOM     16  C   UNL A   1     -29.754   1.616  23.341  0.00  0.00    +0.084 C 
ATOM     17  O   UNL A   1     -31.934   1.554  22.854  0.00  0.00    -0.296 OA
ENDBRANCH   8  11
ENDBRANCH   1   7
BRANCH   4  18
ATOM     18  C   UNL A   1     -23.067   0.848  29.535  0.00  0.00    +0.022 C 
ATOM     19  C   UNL A   1     -23.537   1.195  30.759  0.00  0.00    +0.005 C 
ATOM     20  C   UNL A   1     -21.916  -0.164  29.597  0.00  0.00    +0.005 C 
ENDBRANCH   4  18
BRANCH   3  21
ATOM     21  C   UNL A   1     -24.916  -1.335  29.534  0.00  0.00    +0.101 C 
BRANCH  21  22
ATOM     22  N   UNL A   1     -24.915  -2.644  29.371  0.00  0.00    -0.242 NA
ATOM     23  C   UNL A   1     -26.017  -3.445  29.745  0.00  0.00    +0.141 C 
ATOM     24  C   UNL A   1     -23.757  -3.370  28.886  0.00  0.00    +0.165 C 
ATOM     25 CL   UNL A   1     -27.260  -2.827  30.437  0.00  0.00    -0.097 Cl
ATOM     26  C   UNL A   1     -25.898  -4.874  29.548  0.00  0.00    +0.052 C 
ATOM     27  C   UNL A   1     -24.883  -5.540  28.976  0.00  0.00    +0.093 C 
ATOM     28  N   UNL A   1     -23.808  -4.691  28.627  0.00  0.00    -0.201 NA
ENDBRANCH  21  22
ENDBRANCH   3  21
TORSDOF 5
ENDMDL
ENDMDL
