REMARK  Name = No_2344-gen_results/8p0m/2024-11-26-14-13-15/
REMARK  5 active torsions:
REMARK  status: ('A' for Active; 'I' for Inactive)
REMARK    1  A    between atoms: C_1  and  C_2
REMARK    2  A    between atoms: C_4  and  C_21
REMARK    3  A    between atoms: C_5  and  C_11
REMARK    4  A    between atoms: N_8  and  C_10
REMARK    5  A    between atoms: C_21  and  N_22
REMARK                            x       y       z     vdW  Elec       q    Type
REMARK                         _______ _______ _______ _____ _____    ______ ____
ROOT
ATOM      1  C   UNL A   1     -27.064  -0.119  28.608  0.00  0.00    +0.053 A 
ATOM      2  C   UNL A   1     -26.929   1.171  29.008  0.00  0.00    +0.001 A 
ATOM      3  C   UNL A   1     -25.770   2.034  28.688  0.00  0.00    -0.010 A 
ATOM      4  C   UNL A   1     -24.714   1.443  27.919  0.00  0.00    -0.025 A 
ATOM      5  C   UNL A   1     -24.859   0.078  27.584  0.00  0.00    -0.004 A 
ATOM      6  C   UNL A   1     -25.965  -0.661  27.916  0.00  0.00    +0.004 A 
ENDROOT
BRANCH   1   7
ATOM      7  C   UNL A   1     -28.016  -0.814  28.878  0.00  0.00    +0.249 C 
ATOM      8  N   UNL A   1     -27.982  -1.637  30.075  0.00  0.00    -0.276 N 
ATOM      9  O   UNL A   1     -29.216  -0.413  28.663  0.00  0.00    -0.270 OA
ATOM     10  C   UNL A   1     -26.660  -2.034  30.640  0.00  0.00    +0.115 C 
BRANCH   8  11
ATOM     11  C   UNL A   1     -29.016  -2.482  30.586  0.00  0.00    +0.083 C 
ATOM     12  C   UNL A   1     -29.368  -2.154  31.883  0.00  0.00    +0.021 C 
ATOM     13  C   UNL A   1     -30.628  -1.574  32.056  0.00  0.00    +0.009 C 
ATOM     14  C   UNL A   1     -31.478  -1.535  31.232  0.00  0.00    +0.065 C 
ATOM     15  C   UNL A   1     -31.652  -2.653  30.479  0.00  0.00    +0.152 C 
ATOM     16  C   UNL A   1     -30.506  -3.188  29.741  0.00  0.00    +0.084 C 
ATOM     17  O   UNL A   1     -32.727  -3.271  29.968  0.00  0.00    -0.296 OA
ENDBRANCH   8  11
ENDBRANCH   1   7
BRANCH   4  18
ATOM     18  C   UNL A   1     -23.534   2.161  27.567  0.00  0.00    +0.022 C 
ATOM     19  C   UNL A   1     -22.373   2.119  28.266  0.00  0.00    +0.005 C 
ATOM     20  C   UNL A   1     -23.324   2.121  26.048  0.00  0.00    +0.005 C 
ENDBRANCH   4  18
BRANCH   3  21
ATOM     21  C   UNL A   1     -25.622   3.420  29.063  0.00  0.00    +0.101 C 
BRANCH  21  22
ATOM     22  N   UNL A   1     -25.564   3.706  30.350  0.00  0.00    -0.242 NA
ATOM     23  C   UNL A   1     -25.953   4.967  30.853  0.00  0.00    +0.141 C 
ATOM     24  C   UNL A   1     -25.013   2.790  31.330  0.00  0.00    +0.165 C 
ATOM     25 CL   UNL A   1     -26.401   6.108  29.902  0.00  0.00    -0.097 Cl
ATOM     26  C   UNL A   1     -25.822   5.184  32.278  0.00  0.00    +0.052 C 
ATOM     27  C   UNL A   1     -25.440   4.296  33.210  0.00  0.00    +0.093 C 
ATOM     28  N   UNL A   1     -25.058   3.056  32.650  0.00  0.00    -0.201 NA
ENDBRANCH  21  22
ENDBRANCH   3  21
TORSDOF 5
