MODEL 2345
MODEL 1
REMARK VINA RESULT:    -7.248      0.000      0.000
REMARK INTER + INTRA:          -8.559
REMARK INTER:                  -8.095
REMARK INTRA:                  -0.463
REMARK UNBOUND:                -0.463
REMARK  Name = No_2345-gen_results/8p0m/2024-11-26-14-13-15/
REMARK  2 active torsions:
REMARK  status: ('A' for Active; 'I' for Inactive)
REMARK    1  A    between atoms: C_3  and  C_10
REMARK    2  A    between atoms: C_5  and  C_6
REMARK                            x       y       z     vdW  Elec       q    Type
REMARK                         _______ _______ _______ _____ _____    ______ ____
ROOT
ATOM      1  C   UNL A   1     -29.723  -9.755  32.200  0.00  0.00    +0.000 A 
ATOM      2  C   UNL A   1     -29.907 -10.051  31.042  0.00  0.00    +0.000 A 
ATOM      3  C   UNL A   1     -29.211 -11.027  30.349  0.00  0.00    +0.000 A 
ATOM      4  C   UNL A   1     -28.222 -11.756  31.072  0.00  0.00    +0.007 A 
ATOM      5  C   UNL A   1     -28.148 -11.519  32.392  0.00  0.00    +0.080 A 
ATOM      6  C   UNL A   1     -28.850 -10.540  32.961  0.00  0.00    +0.007 A 
ENDROOT
BRANCH   3   7
ATOM      7  C   UNL A   1     -29.319 -11.410  28.906  0.00  0.00    +0.000 A 
ATOM      8  C   UNL A   1     -28.887 -12.062  28.182  0.00  0.00    +0.000 A 
ATOM      9  C   UNL A   1     -29.193 -12.378  26.769  0.00  0.00    +0.000 A 
ATOM     10  C   UNL A   1     -30.166 -11.532  26.191  0.00  0.00    +0.000 A 
ATOM     11  C   UNL A   1     -30.724 -10.533  26.967  0.00  0.00    +0.000 A 
ATOM     12  C   UNL A   1     -30.441 -10.414  28.315  0.00  0.00    +0.000 A 
ENDBRANCH   3   7
BRANCH   5  13
ATOM     13  C   UNL A   1     -27.218 -12.313  33.112  0.00  0.00    +0.388 C 
ATOM     14  O   UNL A   1     -26.433 -12.937  32.568  0.00  0.00    -0.241 OA
ATOM     15  O   UNL A   1     -27.320 -12.457  34.461  0.00  0.00    -0.241 OA
ENDBRANCH   5  13
TORSDOF 2
ENDMDL
ENDMDL
