REMARK  Name = No_2346-gen_results/8p0m/2024-11-26-14-13-15/
REMARK  1 active torsions:
REMARK  status: ('A' for Active; 'I' for Inactive)
REMARK    1  A    between atoms: C_9  and  C_10
REMARK                            x       y       z     vdW  Elec       q    Type
REMARK                         _______ _______ _______ _____ _____    ______ ____
ROOT
ATOM      1  C   UNL A   1     -28.016  -0.814  28.878  0.00  0.00    +0.018 A 
ATOM      2  C   UNL A   1     -28.469  -0.785  29.829  0.00  0.00    +0.081 A 
ATOM      3  C   UNL A   1     -26.546  -0.876  28.850  0.00  0.00    +0.002 A 
ATOM      4  C   UNL A   1     -25.804  -1.032  30.057  0.00  0.00    +0.000 A 
ATOM      5  C   UNL A   1     -27.944  -0.987  31.207  0.00  0.00    +0.019 A 
ATOM      6  C   UNL A   1     -26.582  -1.039  31.223  0.00  0.00    +0.002 A 
ATOM      7  N   UNL A   1     -29.965  -0.735  29.890  0.00  0.00    -0.244 NA
ATOM      8  C   UNL A   1     -30.534  -0.031  29.006  0.00  0.00    +0.103 A 
ATOM      9  C   UNL A   1     -29.977   0.167  27.924  0.00  0.00    +0.074 A 
ATOM     10  C   UNL A   1     -28.531  -0.231  27.713  0.00  0.00    +0.008 A 
ENDROOT
BRANCH   9  11
ATOM     11  C   UNL A   1     -30.497   0.784  26.724  0.00  0.00    +0.266 C 
ATOM     12  O   UNL A   1     -30.215   0.593  25.578  0.00  0.00    -0.268 OA
ATOM     13  N   UNL A   1     -31.290   1.887  26.905  0.00  0.00    -0.200 NA
ATOM     14  C   UNL A   1     -31.908   2.630  25.854  0.00  0.00    +0.139 C 
ENDBRANCH   9  11
TORSDOF 1
