MODEL 2346
MODEL 1
REMARK VINA RESULT:    -5.774      0.000      0.000
REMARK INTER + INTRA:          -6.217
REMARK INTER:                  -6.111
REMARK INTRA:                  -0.106
REMARK UNBOUND:                -0.106
REMARK  Name = No_2346-gen_results/8p0m/2024-11-26-14-13-15/
REMARK  1 active torsions:
REMARK  status: ('A' for Active; 'I' for Inactive)
REMARK    1  A    between atoms: C_9  and  C_10
REMARK                            x       y       z     vdW  Elec       q    Type
REMARK                         _______ _______ _______ _____ _____    ______ ____
ROOT
ATOM      1  C   UNL A   1     -22.966  -0.425  28.903  0.00  0.00    +0.018 A 
ATOM      2  C   UNL A   1     -23.458   0.238  28.248  0.00  0.00    +0.081 A 
ATOM      3  C   UNL A   1     -21.496  -0.365  28.918  0.00  0.00    +0.002 A 
ATOM      4  C   UNL A   1     -20.804   0.641  28.182  0.00  0.00    +0.000 A 
ATOM      5  C   UNL A   1     -22.990   1.395  27.437  0.00  0.00    +0.019 A 
ATOM      6  C   UNL A   1     -21.629   1.477  27.418  0.00  0.00    +0.002 A 
ATOM      7  N   UNL A   1     -24.956   0.210  28.220  0.00  0.00    -0.244 NA
ATOM      8  C   UNL A   1     -25.493  -0.931  28.328  0.00  0.00    +0.103 A 
ATOM      9  C   UNL A   1     -24.892  -1.841  28.904  0.00  0.00    +0.074 A 
ATOM     10  C   UNL A   1     -23.436  -1.686  29.290  0.00  0.00    +0.008 A 
ENDROOT
BRANCH   9  11
ATOM     11  C   UNL A   1     -25.366  -3.152  29.290  0.00  0.00    +0.266 C 
ATOM     12  O   UNL A   1     -24.836  -4.219  29.195  0.00  0.00    -0.268 OA
ATOM     13  N   UNL A   1     -26.688  -3.239  29.641  0.00  0.00    -0.200 NA
ATOM     14  C   UNL A   1     -27.344  -4.434  30.063  0.00  0.00    +0.139 C 
ENDBRANCH   9  11
TORSDOF 1
ENDMDL
ENDMDL
