MODEL 2347
MODEL 1
REMARK VINA RESULT:    -6.281      0.000      0.000
REMARK INTER + INTRA:         -13.868
REMARK INTER:                  -9.953
REMARK INTRA:                  -3.914
REMARK UNBOUND:                -3.914
REMARK  Name = No_2347-gen_results/8p0m/2024-11-26-14-13-15/
REMARK  10 active torsions:
REMARK  status: ('A' for Active; 'I' for Inactive)
REMARK    1  A    between atoms: C_3  and  C_7
REMARK    2  A    between atoms: C_4  and  C_26
REMARK    3  A    between atoms: C_7  and  C_8
REMARK    4  A    between atoms: C_7  and  C_9
REMARK    5  A    between atoms: C_8  and  C_20
REMARK    6  A    between atoms: C_9  and  C_10
REMARK    7  A    between atoms: C_14  and  C_17
REMARK    8  A    between atoms: C_21  and  C_32
REMARK    9  A    between atoms: C_26  and  O_28
REMARK   10  A    between atoms: O_28  and  C_29
REMARK                            x       y       z     vdW  Elec       q    Type
REMARK                         _______ _______ _______ _____ _____    ______ ____
ROOT
ATOM      1  C   UNL A   1     -24.752  -0.771  29.143  0.00  0.00    +0.031 C 
ENDROOT
BRANCH   1   4
ATOM      2  C   UNL A   1     -24.630  -3.196  28.909  0.00  0.00    +0.007 A 
ATOM      3  C   UNL A   1     -25.037  -4.155  29.069  0.00  0.00    +0.057 A 
ATOM      4  C   UNL A   1     -25.411  -2.079  29.278  0.00  0.00    -0.015 A 
ATOM      5  C   UNL A   1     -26.673  -2.217  29.820  0.00  0.00    +0.072 A 
ATOM      6  C   UNL A   1     -27.128  -3.512  30.003  0.00  0.00    +0.007 A 
ATOM      7  C   UNL A   1     -26.316  -4.573  29.662  0.00  0.00    +0.012 A 
ATOM      8 CL   UNL A   1     -24.140  -5.721  28.630  0.00  0.00    -0.082 Cl
BRANCH   5   9
ATOM      9  C   UNL A   1     -27.547  -1.108  30.241  0.00  0.00    +0.341 C 
ATOM     10  O   UNL A   1     -27.522  -0.710  31.308  0.00  0.00    -0.245 OA
BRANCH   9  11
ATOM     11  O   UNL A   1     -28.622  -0.887  29.454  0.00  0.00    -0.445 OA
BRANCH  11  12
ATOM     12  C   UNL A   1     -29.563   0.018  29.939  0.00  0.00    +0.209 C 
ATOM     13  C   UNL A   1     -30.281   0.553  28.767  0.00  0.00    +0.051 C 
ENDBRANCH  11  12
ENDBRANCH   9  11
ENDBRANCH   5   9
ENDBRANCH   1   4
BRANCH   1  14
ATOM     14  C   UNL A   1     -23.889  -0.228  30.109  0.00  0.00    +0.027 C 
ATOM     15  C   UNL A   1     -22.507  -0.269  29.829  0.00  0.00    +0.005 C 
BRANCH  14  16
ATOM     16  C   UNL A   1     -24.386   0.426  31.210  0.00  0.00    -0.022 A 
ATOM     17  C   UNL A   1     -24.858   1.729  30.994  0.00  0.00    -0.004 A 
ATOM     18  C   UNL A   1     -25.430   2.420  32.083  0.00  0.00    -0.000 A 
ATOM     19  C   UNL A   1     -25.595   1.816  33.259  0.00  0.00    +0.007 A 
ATOM     20  C   UNL A   1     -25.168   0.494  33.450  0.00  0.00    +0.080 A 
ATOM     21  C   UNL A   1     -24.569  -0.178  32.474  0.00  0.00    +0.002 A 
BRANCH  20  22
ATOM     22  C   UNL A   1     -25.574  -0.270  34.635  0.00  0.00    +0.388 C 
ATOM     23  O   UNL A   1     -26.509   0.155  35.383  0.00  0.00    -0.241 OA
ATOM     24  O   UNL A   1     -24.853  -1.207  35.088  0.00  0.00    -0.241 OA
ENDBRANCH  20  22
ENDBRANCH  14  16
ENDBRANCH   1  14
BRANCH   1  25
ATOM     25  C   UNL A   1     -24.715  -0.222  27.847  0.00  0.00    +0.031 C 
BRANCH  25  26
ATOM     26  C   UNL A   1     -25.276   1.109  27.683  0.00  0.00    -0.015 A 
ATOM     27  C   UNL A   1     -24.498   2.151  27.317  0.00  0.00    +0.076 A 
ATOM     28  C   UNL A   1     -25.033   3.477  27.397  0.00  0.00    +0.006 A 
ATOM     29  C   UNL A   1     -26.377   3.600  27.711  0.00  0.00    +0.000 A 
ATOM     30  C   UNL A   1     -27.196   2.519  28.018  0.00  0.00    -0.000 A 
ATOM     31  C   UNL A   1     -26.610   1.310  28.019  0.00  0.00    -0.004 A 
BRANCH  27  32
ATOM     32  C   UNL A   1     -23.069   2.051  26.971  0.00  0.00    +0.387 C 
ATOM     33  O   UNL A   1     -22.676   2.053  25.767  0.00  0.00    -0.241 OA
ATOM     34  O   UNL A   1     -22.228   2.296  27.916  0.00  0.00    -0.241 OA
ENDBRANCH  27  32
ENDBRANCH  25  26
ENDBRANCH   1  25
TORSDOF 10
ENDMDL
ENDMDL
