REMARK  Name = No_2347-gen_results/8p0m/2024-11-26-14-13-15/
REMARK  10 active torsions:
REMARK  status: ('A' for Active; 'I' for Inactive)
REMARK    1  A    between atoms: C_3  and  C_7
REMARK    2  A    between atoms: C_4  and  C_26
REMARK    3  A    between atoms: C_7  and  C_8
REMARK    4  A    between atoms: C_7  and  C_9
REMARK    5  A    between atoms: C_8  and  C_20
REMARK    6  A    between atoms: C_9  and  C_10
REMARK    7  A    between atoms: C_14  and  C_17
REMARK    8  A    between atoms: C_21  and  C_32
REMARK    9  A    between atoms: C_26  and  O_28
REMARK   10  A    between atoms: O_28  and  C_29
REMARK                            x       y       z     vdW  Elec       q    Type
REMARK                         _______ _______ _______ _____ _____    ______ ____
ROOT
ATOM      1  C   UNL A   1     -26.441   0.088  27.247  0.00  0.00    +0.031 C 
ENDROOT
BRANCH   1   4
ATOM      2  C   UNL A   1     -28.016  -0.814  28.878  0.00  0.00    +0.007 A 
ATOM      3  C   UNL A   1     -28.469  -0.785  29.829  0.00  0.00    +0.057 A 
ATOM      4  C   UNL A   1     -27.136   0.236  28.535  0.00  0.00    -0.015 A 
ATOM      5  C   UNL A   1     -26.875   1.282  29.398  0.00  0.00    +0.072 A 
ATOM      6  C   UNL A   1     -27.507   1.238  30.630  0.00  0.00    +0.007 A 
ATOM      7  C   UNL A   1     -28.329   0.174  30.935  0.00  0.00    +0.012 A 
ATOM      8 CL   UNL A   1     -29.654  -2.084  30.425  0.00  0.00    -0.082 Cl
BRANCH   5   9
ATOM      9  C   UNL A   1     -25.965   2.408  29.124  0.00  0.00    +0.341 C 
ATOM     10  O   UNL A   1     -25.585   3.077  29.964  0.00  0.00    -0.245 OA
BRANCH   9  11
ATOM     11  O   UNL A   1     -25.948   2.841  27.845  0.00  0.00    -0.445 OA
BRANCH  11  12
ATOM     12  C   UNL A   1     -25.075   3.888  27.562  0.00  0.00    +0.209 C 
ATOM     13  C   UNL A   1     -24.365   3.525  26.321  0.00  0.00    +0.051 C 
ENDBRANCH  11  12
ENDBRANCH   9  11
ENDBRANCH   5   9
ENDBRANCH   1   4
BRANCH   1  14
ATOM     14  C   UNL A   1     -27.048   0.316  26.002  0.00  0.00    +0.027 C 
ATOM     15  C   UNL A   1     -26.219   0.248  24.862  0.00  0.00    +0.005 C 
BRANCH  14  16
ATOM     16  C   UNL A   1     -28.410   0.468  25.899  0.00  0.00    -0.022 A 
ATOM     17  C   UNL A   1     -28.932   0.493  24.598  0.00  0.00    -0.004 A 
ATOM     18  C   UNL A   1     -30.331   0.590  24.443  0.00  0.00    -0.000 A 
ATOM     19  C   UNL A   1     -31.135   0.569  25.505  0.00  0.00    +0.007 A 
ATOM     20  C   UNL A   1     -30.605   0.489  26.801  0.00  0.00    +0.080 A 
ATOM     21  C   UNL A   1     -29.293   0.458  27.002  0.00  0.00    +0.002 A 
BRANCH  20  22
ATOM     22  C   UNL A   1     -31.464   0.199  27.954  0.00  0.00    +0.388 C 
ATOM     23  O   UNL A   1     -31.589   1.047  28.891  0.00  0.00    -0.241 OA
ATOM     24  O   UNL A   1     -31.884  -0.975  28.179  0.00  0.00    -0.241 OA
ENDBRANCH  20  22
ENDBRANCH  14  16
ENDBRANCH   1  14
BRANCH   1  25
ATOM     25  C   UNL A   1     -25.034   0.064  27.297  0.00  0.00    +0.031 C 
BRANCH  25  26
ATOM     26  C   UNL A   1     -24.430  -0.340  28.556  0.00  0.00    -0.015 A 
ATOM     27  C   UNL A   1     -23.168   0.024  28.869  0.00  0.00    +0.076 A 
ATOM     28  C   UNL A   1     -22.531  -0.585  29.998  0.00  0.00    +0.006 A 
ATOM     29  C   UNL A   1     -23.308  -1.413  30.793  0.00  0.00    +0.000 A 
ATOM     30  C   UNL A   1     -24.631  -1.730  30.509  0.00  0.00    -0.000 A 
ATOM     31  C   UNL A   1     -25.141  -1.202  29.383  0.00  0.00    -0.004 A 
BRANCH  27  32
ATOM     32  C   UNL A   1     -22.320   0.907  28.048  0.00  0.00    +0.387 C 
ATOM     33  O   UNL A   1     -22.815   1.837  27.345  0.00  0.00    -0.241 OA
ATOM     34  O   UNL A   1     -21.061   0.919  28.325  0.00  0.00    -0.241 OA
ENDBRANCH  27  32
ENDBRANCH  25  26
ENDBRANCH   1  25
TORSDOF 10
