MODEL 2348
MODEL 1
REMARK VINA RESULT:    -5.359      0.000      0.000
REMARK INTER + INTRA:          -5.931
REMARK INTER:                  -5.673
REMARK INTRA:                  -0.259
REMARK UNBOUND:                -0.259
REMARK  Name = No_2348-gen_results/8p0m/2024-11-26-14-13-15/
REMARK  1 active torsions:
REMARK  status: ('A' for Active; 'I' for Inactive)
REMARK    1  A    between atoms: C_3  and  C_4
REMARK                            x       y       z     vdW  Elec       q    Type
REMARK                         _______ _______ _______ _____ _____    ______ ____
ROOT
ATOM      1  C   UNL A   1     -24.625  -0.291  27.727  0.00  0.00    -0.004 A 
ATOM      2  C   UNL A   1     -23.825   0.348  27.476  0.00  0.00    -0.022 A 
ATOM      3  C   UNL A   1     -24.242  -1.388  28.616  0.00  0.00    -0.001 A 
ATOM      4  C   UNL A   1     -23.955   1.311  26.402  0.00  0.00    +0.031 C 
ATOM      5  C   UNL A   1     -22.460   0.495  28.208  0.00  0.00    -0.004 A 
ATOM      6  C   UNL A   1     -22.099  -0.471  29.069  0.00  0.00    -0.000 A 
ATOM      7  C   UNL A   1     -22.946  -1.473  29.258  0.00  0.00    -0.000 A 
ENDROOT
BRANCH   3   8
ATOM      8  C   UNL A   1     -24.810  -2.613  28.558  0.00  0.00    -0.005 C 
ATOM      9  C   UNL A   1     -24.127  -3.709  28.885  0.00  0.00    -0.026 C 
ATOM     10  C   UNL A   1     -24.656  -5.005  28.952  0.00  0.00    +0.031 C 
ENDBRANCH   3   8
TORSDOF 1
ENDMDL
ENDMDL
