MODEL 2349
MODEL 1
REMARK VINA RESULT:    -8.326      0.000      0.000
REMARK INTER + INTRA:          -9.849
REMARK INTER:                  -9.300
REMARK INTRA:                  -0.549
REMARK UNBOUND:                -0.549
REMARK  Name = No_2349-gen_results/8p0m/2024-11-26-14-13-15/
REMARK  2 active torsions:
REMARK  status: ('A' for Active; 'I' for Inactive)
REMARK    1  A    between atoms: C_3  and  C_4
REMARK    2  A    between atoms: C_4  and  C_8
REMARK                            x       y       z     vdW  Elec       q    Type
REMARK                         _______ _______ _______ _____ _____    ______ ____
ROOT
ATOM      1  C   UNL A   1     -23.986  -1.521  29.479  0.00  0.00    +0.015 A 
ATOM      2  C   UNL A   1     -24.660  -2.356  29.263  0.00  0.00    +0.016 A 
ATOM      3  C   UNL A   1     -25.734  -2.998  30.061  0.00  0.00    +0.081 A 
ATOM      4  C   UNL A   1     -26.424  -4.203  29.753  0.00  0.00    +0.019 A 
ATOM      5  C   UNL A   1     -25.454  -5.136  29.349  0.00  0.00    +0.002 A 
ATOM      6  C   UNL A   1     -24.306  -4.924  28.617  0.00  0.00    +0.000 A 
ATOM      7  C   UNL A   1     -23.865  -3.640  28.586  0.00  0.00    +0.001 A 
ATOM      8  N   UNL A   1     -26.461  -2.040  30.687  0.00  0.00    -0.244 NA
ATOM      9  C   UNL A   1     -24.413  -0.844  30.776  0.00  0.00    +0.019 A 
ATOM     10  C   UNL A   1     -25.705  -1.010  31.181  0.00  0.00    +0.099 A 
ENDROOT
BRANCH   1  11
ATOM     11  C   UNL A   1     -23.166  -0.951  28.943  0.00  0.00    +0.197 C 
ATOM     12  O   UNL A   1     -21.752  -1.189  29.114  0.00  0.00    -0.213 OA
BRANCH  11  15
ATOM     13  C   UNL A   1     -22.015   1.101  27.917  0.00  0.00    -0.002 A 
ATOM     14  C   UNL A   1     -22.054   1.845  27.172  0.00  0.00    -0.000 A 
ATOM     15  C   UNL A   1     -23.110   0.216  28.023  0.00  0.00    +0.012 A 
ATOM     16  C   UNL A   1     -23.089   2.168  26.174  0.00  0.00    -0.000 A 
ATOM     17  C   UNL A   1     -24.206   1.333  26.222  0.00  0.00    -0.000 A 
ATOM     18  C   UNL A   1     -24.230   0.308  27.112  0.00  0.00    -0.002 A 
ENDBRANCH  11  15
ENDBRANCH   1  11
TORSDOF 2
ENDMDL
ENDMDL
