REMARK  Name = No_2349-gen_results/8p0m/2024-11-26-14-13-15/
REMARK  2 active torsions:
REMARK  status: ('A' for Active; 'I' for Inactive)
REMARK    1  A    between atoms: C_3  and  C_4
REMARK    2  A    between atoms: C_4  and  C_8
REMARK                            x       y       z     vdW  Elec       q    Type
REMARK                         _______ _______ _______ _____ _____    ______ ____
ROOT
ATOM      1  C   UNL A   1     -25.361   0.775  26.967  0.00  0.00    +0.015 A 
ATOM      2  C   UNL A   1     -24.550   1.339  27.439  0.00  0.00    +0.016 A 
ATOM      3  C   UNL A   1     -23.318   1.957  26.890  0.00  0.00    +0.081 A 
ATOM      4  C   UNL A   1     -22.235   2.509  27.629  0.00  0.00    +0.019 A 
ATOM      5  C   UNL A   1     -21.940   1.599  28.659  0.00  0.00    +0.002 A 
ATOM      6  C   UNL A   1     -22.806   0.820  29.395  0.00  0.00    +0.000 A 
ATOM      7  C   UNL A   1     -24.031   0.629  28.841  0.00  0.00    +0.001 A 
ATOM      8  N   UNL A   1     -23.610   2.570  25.716  0.00  0.00    -0.244 NA
ATOM      9  C   UNL A   1     -25.207   0.835  25.452  0.00  0.00    +0.019 A 
ATOM     10  C   UNL A   1     -24.483   1.866  24.929  0.00  0.00    +0.099 A 
ENDROOT
BRANCH   1  11
ATOM     11  C   UNL A   1     -26.335   0.290  27.284  0.00  0.00    +0.197 C 
ATOM     12  O   UNL A   1     -27.222  -0.428  26.400  0.00  0.00    -0.213 OA
BRANCH  11  15
ATOM     13  C   UNL A   1     -28.016  -0.814  28.878  0.00  0.00    -0.002 A 
ATOM     14  C   UNL A   1     -28.469  -0.785  29.829  0.00  0.00    -0.000 A 
ATOM     15  C   UNL A   1     -27.136   0.236  28.535  0.00  0.00    +0.012 A 
ATOM     16  C   UNL A   1     -28.369   0.196  30.924  0.00  0.00    -0.000 A 
ATOM     17  C   UNL A   1     -27.516   1.266  30.654  0.00  0.00    -0.000 A 
ATOM     18  C   UNL A   1     -26.841   1.294  29.476  0.00  0.00    -0.002 A 
ENDBRANCH  11  15
ENDBRANCH   1  11
TORSDOF 2
