MODEL 234
MODEL 1
REMARK VINA RESULT:    -4.223      0.000      0.000
REMARK INTER + INTRA:          -4.223
REMARK INTER:                  -4.223
REMARK INTRA:                   0.000
REMARK UNBOUND:                 0.000
REMARK  Name = No_234-gen_results/8p0m/2024-11-26-14-13-15/
REMARK  0 active torsions:
REMARK  status: ('A' for Active; 'I' for Inactive)
REMARK                            x       y       z     vdW  Elec       q    Type
REMARK                         _______ _______ _______ _____ _____    ______ ____
ROOT
ATOM      1  C   UNL A   1     -26.216  -4.726  29.691  0.00  0.00    +0.000 A 
ATOM      2  C   UNL A   1     -26.193  -3.674  29.728  0.00  0.00    +0.000 A 
ATOM      3  C   UNL A   1     -25.093  -5.386  29.005  0.00  0.00    +0.000 A 
ATOM      4  C   UNL A   1     -23.976  -4.628  28.549  0.00  0.00    +0.000 A 
ATOM      5  C   UNL A   1     -25.146  -2.671  29.390  0.00  0.00    +0.000 A 
ATOM      6  C   UNL A   1     -24.092  -3.244  28.743  0.00  0.00    +0.000 A 
ENDROOT
TORSDOF 0
ENDMDL
ENDMDL
