REMARK  Name = No_235-gen_results/8p0m/2024-11-26-14-13-15/
REMARK  2 active torsions:
REMARK  status: ('A' for Active; 'I' for Inactive)
REMARK    1  A    between atoms: C_6  and  O_16
REMARK    2  A    between atoms: O_16  and  C_17
REMARK                            x       y       z     vdW  Elec       q    Type
REMARK                         _______ _______ _______ _____ _____    ______ ____
ROOT
ATOM      1  C   UNL A   1     -28.016  -0.814  28.878  0.00  0.00    +0.048 A 
ATOM      2  C   UNL A   1     -27.064  -0.119  28.608  0.00  0.00    +0.033 A 
ATOM      3  C   UNL A   1     -26.972   0.714  27.506  0.00  0.00    +0.015 A 
ATOM      4  C   UNL A   1     -28.105   0.774  26.642  0.00  0.00    +0.071 A 
ATOM      5  C   UNL A   1     -29.201   0.104  27.053  0.00  0.00    +0.103 A 
ATOM      6  C   UNL A   1     -29.210  -0.603  28.185  0.00  0.00    +0.157 A 
ATOM      7 CL   UNL A   1     -30.565   0.243  26.049  0.00  0.00    -0.078 Cl
ATOM      8  C   UNL A   1     -25.703  -0.234  29.413  0.00  0.00    +0.146 A 
ATOM      9  C   UNL A   1     -25.545  -0.852  30.259  0.00  0.00    +0.063 A 
ATOM     10  C   UNL A   1     -26.714  -1.789  30.681  0.00  0.00    +0.020 A 
ATOM     11  C   UNL A   1     -27.866  -1.718  30.014  0.00  0.00    +0.061 A 
ATOM     12 CL   UNL A   1     -29.140  -2.743  30.523  0.00  0.00    -0.082 Cl
ATOM     13  F   UNL A   1     -24.662   0.562  28.960  0.00  0.00    -0.204 F 
ATOM     14 CL   UNL A   1     -28.007   1.842  25.288  0.00  0.00    -0.081 Cl
ATOM     15 BR   UNL A   1     -23.953  -1.087  31.314  0.00  0.00    -0.047 Br
ENDROOT
BRANCH   6  16
ATOM     16  O   UNL A   1     -30.301  -1.276  28.505  0.00  0.00    -0.453 OA
BRANCH  16  17
ATOM     17  C   UNL A   1     -31.528  -0.961  28.910  0.00  0.00    +0.145 A 
ATOM     18  C   UNL A   1     -32.411  -1.718  28.693  0.00  0.00    +0.037 A 
ATOM     19  C   UNL A   1     -33.709  -1.307  28.795  0.00  0.00    +0.003 A 
ATOM     20  C   UNL A   1     -31.701   0.324  29.487  0.00  0.00    +0.037 A 
ATOM     21  C   UNL A   1     -32.935   0.817  29.751  0.00  0.00    +0.003 A 
ATOM     22  C   UNL A   1     -33.996  -0.081  29.446  0.00  0.00    +0.000 A 
ENDBRANCH  16  17
ENDBRANCH   6  16
TORSDOF 2
