MODEL 2350
MODEL 1
REMARK VINA RESULT:    -7.074      0.000      0.000
REMARK INTER + INTRA:          -9.368
REMARK INTER:                  -8.728
REMARK INTRA:                  -0.640
REMARK UNBOUND:                -0.640
REMARK  Name = No_2350-gen_results/8p0m/2024-11-26-14-13-15/
REMARK  4 active torsions:
REMARK  status: ('A' for Active; 'I' for Inactive)
REMARK    1  A    between atoms: C_2  and  C_8
REMARK    2  A    between atoms: C_3  and  O_11
REMARK    3  A    between atoms: O_11  and  C_12
REMARK    4  A    between atoms: C_12  and  C_13
REMARK                            x       y       z     vdW  Elec       q    Type
REMARK                         _______ _______ _______ _____ _____    ______ ____
ROOT
ATOM      1  O   UNL A   1     -24.546   1.092  26.791  0.00  0.00    -0.470 OA
ENDROOT
BRANCH   1   4
ATOM      2  C   UNL A   1     -24.617  -1.079  28.140  0.00  0.00    +0.044 A 
ATOM      3  C   UNL A   1     -24.090  -1.642  28.859  0.00  0.00    +0.083 A 
ATOM      4  C   UNL A   1     -23.976   0.161  27.676  0.00  0.00    +0.150 A 
ATOM      5  C   UNL A   1     -22.651   0.490  28.085  0.00  0.00    +0.091 A 
ATOM      6  C   UNL A   1     -22.067  -0.372  28.980  0.00  0.00    +0.015 A 
ATOM      7  C   UNL A   1     -22.711  -1.484  29.392  0.00  0.00    +0.008 A 
ATOM      8 CL   UNL A   1     -21.901   1.884  27.560  0.00  0.00    -0.079 Cl
BRANCH   3   9
ATOM      9  C   UNL A   1     -24.731  -3.008  29.408  0.00  0.00    +0.388 C 
ATOM     10  O   UNL A   1     -25.882  -2.975  30.080  0.00  0.00    -0.241 OA
ATOM     11  O   UNL A   1     -24.191  -4.041  29.084  0.00  0.00    -0.241 OA
ENDBRANCH   3   9
ENDBRANCH   1   4
BRANCH   1  12
ATOM     12  C   UNL A   1     -24.944   0.699  25.566  0.00  0.00    +0.232 C 
BRANCH  12  13
ATOM     13  C   UNL A   1     -26.080   0.718  25.095  0.00  0.00    +0.021 A 
ATOM     14  C   UNL A   1     -26.581  -0.478  24.476  0.00  0.00    -0.001 A 
ATOM     15  C   UNL A   1     -28.097  -0.272  24.099  0.00  0.00    -0.000 A 
ATOM     16  C   UNL A   1     -28.827  -1.393  23.720  0.00  0.00    -0.000 A 
ATOM     17  C   UNL A   1     -30.152  -1.203  23.371  0.00  0.00    -0.000 A 
ATOM     18  C   UNL A   1     -30.707   0.059  23.383  0.00  0.00    -0.000 A 
ATOM     19  C   UNL A   1     -29.957   1.158  23.723  0.00  0.00    -0.000 A 
ATOM     20  C   UNL A   1     -28.643   0.988  24.116  0.00  0.00    -0.000 A 
ATOM     21  C   UNL A   1     -26.878   1.934  25.134  0.00  0.00    -0.001 A 
ATOM     22  C   UNL A   1     -27.982   2.103  24.652  0.00  0.00    -0.000 A 
ENDBRANCH  12  13
ENDBRANCH   1  12
TORSDOF 4
ENDMDL
ENDMDL
