REMARK  Name = No_2350-gen_results/8p0m/2024-11-26-14-13-15/
REMARK  4 active torsions:
REMARK  status: ('A' for Active; 'I' for Inactive)
REMARK    1  A    between atoms: C_2  and  C_8
REMARK    2  A    between atoms: C_3  and  O_11
REMARK    3  A    between atoms: O_11  and  C_12
REMARK    4  A    between atoms: C_12  and  C_13
REMARK                            x       y       z     vdW  Elec       q    Type
REMARK                         _______ _______ _______ _____ _____    ______ ____
ROOT
ATOM      1  O   UNL A   1     -25.750  -0.836  27.693  0.00  0.00    -0.470 OA
ENDROOT
BRANCH   1   4
ATOM      2  C   UNL A   1     -28.016  -0.814  28.878  0.00  0.00    +0.044 A 
ATOM      3  C   UNL A   1     -28.469  -0.785  29.829  0.00  0.00    +0.083 A 
ATOM      4  C   UNL A   1     -26.546  -0.876  28.850  0.00  0.00    +0.150 A 
ATOM      5  C   UNL A   1     -25.804  -1.032  30.057  0.00  0.00    +0.091 A 
ATOM      6  C   UNL A   1     -26.537  -1.039  31.217  0.00  0.00    +0.015 A 
ATOM      7  C   UNL A   1     -27.884  -0.953  31.186  0.00  0.00    +0.008 A 
ATOM      8 CL   UNL A   1     -24.139  -1.118  30.046  0.00  0.00    -0.079 Cl
BRANCH   3   9
ATOM      9  C   UNL A   1     -30.070  -0.718  29.933  0.00  0.00    +0.388 C 
ATOM     10  O   UNL A   1     -30.641   0.064  30.849  0.00  0.00    -0.241 OA
ATOM     11  O   UNL A   1     -30.704  -1.303  29.084  0.00  0.00    -0.241 OA
ENDBRANCH   3   9
ENDBRANCH   1   4
BRANCH   1  12
ATOM     12  C   UNL A   1     -25.465   0.345  27.113  0.00  0.00    +0.232 C 
BRANCH  12  13
ATOM     13  C   UNL A   1     -26.141   1.372  27.109  0.00  0.00    +0.021 A 
ATOM     14  C   UNL A   1     -27.257   1.457  28.009  0.00  0.00    -0.001 A 
ATOM     15  C   UNL A   1     -27.865   2.909  27.948  0.00  0.00    -0.000 A 
ATOM     16  C   UNL A   1     -28.791   3.264  28.923  0.00  0.00    -0.000 A 
ATOM     17  C   UNL A   1     -29.336   4.533  28.853  0.00  0.00    -0.000 A 
ATOM     18  C   UNL A   1     -28.981   5.394  27.837  0.00  0.00    -0.000 A 
ATOM     19  C   UNL A   1     -28.095   5.009  26.861  0.00  0.00    -0.000 A 
ATOM     20  C   UNL A   1     -27.505   3.761  26.934  0.00  0.00    -0.000 A 
ATOM     21  C   UNL A   1     -25.834   2.457  26.189  0.00  0.00    -0.001 A 
ATOM     22  C   UNL A   1     -26.456   3.492  26.042  0.00  0.00    -0.000 A 
ENDBRANCH  12  13
ENDBRANCH   1  12
TORSDOF 4
