MODEL 2351
MODEL 1
REMARK VINA RESULT:    -5.504      0.000      0.000
REMARK INTER + INTRA:          -7.334
REMARK INTER:                  -7.113
REMARK INTRA:                  -0.221
REMARK UNBOUND:                -0.221
REMARK  Name = No_2351-gen_results/8p0m/2024-11-26-14-13-15/
REMARK  5 active torsions:
REMARK  status: ('A' for Active; 'I' for Inactive)
REMARK    1  A    between atoms: C_1  and  C_2
REMARK    2  A    between atoms: C_1  and  N_8
REMARK    3  A    between atoms: C_5  and  C_12
REMARK    4  A    between atoms: N_8  and  C_9
REMARK    5  A    between atoms: C_9  and  C_11
REMARK                            x       y       z     vdW  Elec       q    Type
REMARK                         _______ _______ _______ _____ _____    ______ ____
ROOT
ATOM      1  C   UNL A   1     -23.513  -0.535  28.563  0.00  0.00    -0.005 A 
ATOM      2  C   UNL A   1     -24.539  -0.417  27.683  0.00  0.00    -0.003 A 
ATOM      3  C   UNL A   1     -24.621   0.609  26.619  0.00  0.00    +0.004 A 
ATOM      4  C   UNL A   1     -23.543   1.551  26.541  0.00  0.00    +0.057 A 
ATOM      5  C   UNL A   1     -22.531   1.439  27.521  0.00  0.00    +0.004 A 
ATOM      6  C   UNL A   1     -22.521   0.460  28.480  0.00  0.00    -0.003 A 
ENDROOT
BRANCH   4   7
ATOM      7  C   UNL A   1     -23.498   2.656  25.612  0.00  0.00    +0.284 C 
ATOM      8  N   UNL A   1     -24.046   3.844  25.747  0.00  0.00    -0.084 NA
ATOM      9  O   UNL A   1     -22.409   2.669  24.846  0.00  0.00    -0.267 OA
ENDBRANCH   4   7
BRANCH   1  10
ATOM     10  C   UNL A   1     -23.459  -1.377  29.429  0.00  0.00    +0.117 C 
BRANCH  10  11
ATOM     11  N   UNL A   1     -23.409  -2.601  29.111  0.00  0.00    -0.192 NA
BRANCH  11  12
ATOM     12  C   UNL A   1     -24.341  -3.428  29.253  0.00  0.00    +0.217 C 
ATOM     13 CL   UNL A   1     -25.667  -3.123  29.958  0.00  0.00    -0.087 Cl
BRANCH  12  14
ATOM     14  C   UNL A   1     -24.225  -4.740  28.575  0.00  0.00    +0.241 C 
ATOM     15  O   UNL A   1     -24.787  -5.658  28.908  0.00  0.00    -0.285 OA
ENDBRANCH  12  14
ENDBRANCH  11  12
ENDBRANCH  10  11
ENDBRANCH   1  10
TORSDOF 5
ENDMDL
ENDMDL
