REMARK  Name = No_2351-gen_results/8p0m/2024-11-26-14-13-15/
REMARK  5 active torsions:
REMARK  status: ('A' for Active; 'I' for Inactive)
REMARK    1  A    between atoms: C_1  and  C_2
REMARK    2  A    between atoms: C_1  and  N_8
REMARK    3  A    between atoms: C_5  and  C_12
REMARK    4  A    between atoms: N_8  and  C_9
REMARK    5  A    between atoms: C_9  and  C_11
REMARK                            x       y       z     vdW  Elec       q    Type
REMARK                         _______ _______ _______ _____ _____    ______ ____
ROOT
ATOM      1  C   UNL A   1     -27.064  -0.119  28.608  0.00  0.00    -0.005 A 
ATOM      2  C   UNL A   1     -26.929   1.171  29.008  0.00  0.00    -0.003 A 
ATOM      3  C   UNL A   1     -25.770   2.034  28.688  0.00  0.00    +0.004 A 
ATOM      4  C   UNL A   1     -24.714   1.443  27.919  0.00  0.00    +0.057 A 
ATOM      5  C   UNL A   1     -24.859   0.078  27.584  0.00  0.00    +0.004 A 
ATOM      6  C   UNL A   1     -25.965  -0.661  27.916  0.00  0.00    -0.003 A 
ENDROOT
BRANCH   4   7
ATOM      7  C   UNL A   1     -23.483   2.119  27.579  0.00  0.00    +0.284 C 
ATOM      8  N   UNL A   1     -22.262   1.629  27.605  0.00  0.00    -0.084 NA
ATOM      9  O   UNL A   1     -23.635   3.092  26.684  0.00  0.00    -0.267 OA
ENDBRANCH   4   7
BRANCH   1  10
ATOM     10  C   UNL A   1     -28.016  -0.814  28.878  0.00  0.00    +0.117 C 
BRANCH  10  11
ATOM     11  N   UNL A   1     -29.170  -0.298  28.947  0.00  0.00    -0.192 NA
BRANCH  11  12
ATOM     12  C   UNL A   1     -29.722   0.373  28.043  0.00  0.00    +0.217 C 
ATOM     13 CL   UNL A   1     -28.989   0.957  26.831  0.00  0.00    -0.087 Cl
BRANCH  12  14
ATOM     14  C   UNL A   1     -31.198   0.494  28.060  0.00  0.00    +0.241 C 
ATOM     15  O   UNL A   1     -31.778   1.074  27.287  0.00  0.00    -0.285 OA
ENDBRANCH  12  14
ENDBRANCH  11  12
ENDBRANCH  10  11
ENDBRANCH   1  10
TORSDOF 5
