REMARK  Name = No_2352-gen_results/8p0m/2024-11-26-14-13-15/
REMARK  4 active torsions:
REMARK  status: ('A' for Active; 'I' for Inactive)
REMARK    1  A    between atoms: C_1  and  C_2
REMARK    2  A    between atoms: C_1  and  N_8
REMARK    3  A    between atoms: C_3  and  C_20
REMARK    4  A    between atoms: C_7  and  C_19
REMARK                            x       y       z     vdW  Elec       q    Type
REMARK                         _______ _______ _______ _____ _____    ______ ____
ROOT
ATOM      1  C   UNL A   1     -27.064  -0.119  28.608  0.00  0.00    +0.004 A 
ATOM      2  C   UNL A   1     -27.001   0.691  27.491  0.00  0.00    +0.077 A 
ATOM      3  C   UNL A   1     -25.855   1.482  27.083  0.00  0.00    +0.006 A 
ATOM      4  C   UNL A   1     -24.690   1.453  27.881  0.00  0.00    +0.000 A 
ATOM      5  C   UNL A   1     -24.738   0.601  29.042  0.00  0.00    -0.001 A 
ATOM      6  C   UNL A   1     -25.823  -0.169  29.389  0.00  0.00    -0.006 A 
ATOM      7  C   UNL A   1     -23.494   2.192  27.545  0.00  0.00    +0.000 A 
ATOM      8  C   UNL A   1     -22.529   2.237  28.530  0.00  0.00    +0.000 A 
ATOM      9  C   UNL A   1     -22.545   1.322  29.550  0.00  0.00    -0.000 A 
ATOM     10  C   UNL A   1     -23.602   0.597  29.890  0.00  0.00    -0.000 A 
ENDROOT
BRANCH   6  11
ATOM     11  C   UNL A   1     -25.810  -0.973  30.582  0.00  0.00    -0.022 C 
ATOM     12  C   UNL A   1     -25.012  -1.743  31.219  0.00  0.00    -0.005 C 
ATOM     13  C   UNL A   1     -26.891  -0.550  31.612  0.00  0.00    +0.031 C 
ENDBRANCH   6  11
BRANCH   2  14
ATOM     14  C   UNL A   1     -28.167   0.783  26.561  0.00  0.00    +0.388 C 
ATOM     15  O   UNL A   1     -28.183   0.569  25.447  0.00  0.00    -0.241 OA
ATOM     16  O   UNL A   1     -29.321   1.106  27.165  0.00  0.00    -0.241 OA
ENDBRANCH   2  14
BRANCH   1  17
ATOM     17  C   UNL A   1     -28.016  -0.814  28.878  0.00  0.00    +0.120 C 
BRANCH  17  18
ATOM     18  N   UNL A   1     -28.730  -0.530  30.043  0.00  0.00    -0.275 N 
ATOM     19  C   UNL A   1     -28.932   0.323  30.538  0.00  0.00    +0.251 C 
ATOM     20  C   UNL A   1     -29.304   1.006  31.266  0.00  0.00    +0.023 C 
ATOM     21  C   UNL A   1     -29.927   0.858  32.535  0.00  0.00    -0.022 C 
ATOM     22  C   UNL A   1     -30.100  -0.412  32.970  0.00  0.00    +0.053 C 
ATOM     23  C   UNL A   1     -29.196  -1.795  30.713  0.00  0.00    +0.059 C 
ATOM     24  C   UNL A   1     -29.685  -1.858  31.749  0.00  0.00    -0.006 C 
ATOM     25  O   UNL A   1     -28.080   0.834  30.419  0.00  0.00    -0.196 OA
ENDBRANCH  17  18
ENDBRANCH   1  17
TORSDOF 4
