MODEL 2353
MODEL 1
REMARK VINA RESULT:    -8.082      0.000      0.000
REMARK INTER + INTRA:         -12.171
REMARK INTER:                 -10.444
REMARK INTRA:                  -1.727
REMARK UNBOUND:                -1.727
REMARK  Name = No_2353-gen_results/8p0m/2024-11-26-14-13-15/
REMARK  5 active torsions:
REMARK  status: ('A' for Active; 'I' for Inactive)
REMARK    1  A    between atoms: C_3  and  C_4
REMARK    2  A    between atoms: C_4  and  C_13
REMARK    3  A    between atoms: C_5  and  C_6
REMARK    4  A    between atoms: C_7  and  C_8
REMARK    5  A    between atoms: C_15  and  C_16
REMARK                            x       y       z     vdW  Elec       q    Type
REMARK                         _______ _______ _______ _____ _____    ______ ____
ROOT
ATOM      1  C   UNL A   1     -10.206   0.007  36.513  0.00  0.00    -0.000 C 
ATOM      2  C   UNL A   1      -9.209   0.123  36.144  0.00  0.00    +0.001 C 
ENDROOT
BRANCH   1   5
ATOM      3  C   UNL A   1     -10.413  -0.370  39.010  0.00  0.00    -0.000 A 
ATOM      4  C   UNL A   1     -10.946  -0.864  39.773  0.00  0.00    -0.000 A 
ATOM      5  C   UNL A   1     -10.731  -0.755  37.665  0.00  0.00    -0.000 A 
ATOM      6  C   UNL A   1     -11.677  -2.104  39.748  0.00  0.00    +0.000 A 
ATOM      7  C   UNL A   1     -11.445  -1.901  37.478  0.00  0.00    -0.000 A 
ATOM      8  C   UNL A   1     -11.935  -2.563  38.512  0.00  0.00    -0.000 A 
ENDBRANCH   1   5
BRANCH   1   9
ATOM      9  C   UNL A   1     -11.224   1.045  36.241  0.00  0.00    -0.004 C 
ATOM     10  C   UNL A   1     -12.217   1.413  36.777  0.00  0.00    -0.018 C 
ATOM     11  C   UNL A   1     -13.172   2.316  36.092  0.00  0.00    +0.066 C 
ATOM     12  C   UNL A   1     -11.221   1.475  34.815  0.00  0.00    -0.004 C 
ATOM     13  C   UNL A   1     -12.256   2.282  34.524  0.00  0.00    -0.018 C 
BRANCH  11  14
ATOM     14  C   UNL A   1     -14.213   2.935  36.790  0.00  0.00    -0.014 A 
ATOM     15  C   UNL A   1     -14.107   2.989  38.067  0.00  0.00    -0.004 A 
ATOM     16  C   UNL A   1     -15.221   3.516  38.845  0.00  0.00    -0.000 A 
ATOM     17  C   UNL A   1     -16.248   4.030  38.122  0.00  0.00    -0.000 A 
ATOM     18  C   UNL A   1     -16.222   3.983  36.751  0.00  0.00    -0.000 A 
ATOM     19  C   UNL A   1     -15.271   3.414  36.055  0.00  0.00    -0.004 A 
ENDBRANCH  11  14
ENDBRANCH   1   9
BRANCH   2  20
ATOM     20  C   UNL A   1      -8.227  -0.151  35.702  0.00  0.00    +0.009 C 
ATOM     21  C   UNL A   1      -7.315  -1.061  35.128  0.00  0.00    +0.052 C 
BRANCH  21  22
ATOM     22  C   UNL A   1      -6.526  -1.711  34.575  0.00  0.00    -0.029 C 
ATOM     23  C   UNL A   1      -5.433  -2.398  34.127  0.00  0.00    +0.111 C 
ATOM     24  F   UNL A   1      -4.360  -1.898  34.046  0.00  0.00    -0.143 F 
ENDBRANCH  21  22
ENDBRANCH   2  20
TORSDOF 5
ENDMDL
ENDMDL
