REMARK  Name = No_2353-gen_results/8p0m/2024-11-26-14-13-15/
REMARK  5 active torsions:
REMARK  status: ('A' for Active; 'I' for Inactive)
REMARK    1  A    between atoms: C_3  and  C_4
REMARK    2  A    between atoms: C_4  and  C_13
REMARK    3  A    between atoms: C_5  and  C_6
REMARK    4  A    between atoms: C_7  and  C_8
REMARK    5  A    between atoms: C_15  and  C_16
REMARK                            x       y       z     vdW  Elec       q    Type
REMARK                         _______ _______ _______ _____ _____    ______ ____
ROOT
ATOM      1  C   UNL A   1     -27.442   0.510  26.795  0.00  0.00    -0.000 C 
ATOM      2  C   UNL A   1     -26.439   0.833  26.614  0.00  0.00    +0.001 C 
ENDROOT
BRANCH   1   5
ATOM      3  C   UNL A   1     -28.016  -0.814  28.878  0.00  0.00    -0.000 A 
ATOM      4  C   UNL A   1     -28.469  -0.785  29.829  0.00  0.00    -0.000 A 
ATOM      5  C   UNL A   1     -28.196   0.348  28.055  0.00  0.00    -0.000 A 
ATOM      6  C   UNL A   1     -29.532   0.046  30.331  0.00  0.00    +0.000 A 
ATOM      7  C   UNL A   1     -29.155   1.246  28.416  0.00  0.00    -0.000 A 
ATOM      8  C   UNL A   1     -29.807   1.110  29.559  0.00  0.00    -0.000 A 
ENDBRANCH   1   5
BRANCH   1   9
ATOM      9  C   UNL A   1     -28.473   0.666  25.746  0.00  0.00    -0.004 C 
ATOM     10  C   UNL A   1     -29.479   0.104  25.462  0.00  0.00    -0.018 C 
ATOM     11  C   UNL A   1     -30.157   0.346  24.167  0.00  0.00    +0.066 C 
ATOM     12  C   UNL A   1     -27.973   1.443  24.578  0.00  0.00    -0.004 C 
ATOM     13  C   UNL A   1     -28.840   1.435  23.551  0.00  0.00    -0.018 C 
BRANCH  11  14
ATOM     14  C   UNL A   1     -31.449  -0.128  23.925  0.00  0.00    -0.014 A 
ATOM     15  C   UNL A   1     -32.350   0.169  24.788  0.00  0.00    -0.004 A 
ATOM     16  C   UNL A   1     -33.683  -0.402  24.641  0.00  0.00    -0.000 A 
ATOM     17  C   UNL A   1     -33.891  -1.117  23.507  0.00  0.00    -0.000 A 
ATOM     18  C   UNL A   1     -32.869  -1.312  22.613  0.00  0.00    -0.000 A 
ATOM     19  C   UNL A   1     -31.644  -0.889  22.796  0.00  0.00    -0.004 A 
ENDBRANCH  11  14
ENDBRANCH   1   9
BRANCH   2  20
ATOM     20  C   UNL A   1     -25.328   0.830  26.631  0.00  0.00    +0.009 C 
ATOM     21  C   UNL A   1     -24.075   1.281  27.097  0.00  0.00    +0.052 C 
BRANCH  21  22
ATOM     22  C   UNL A   1     -23.003   1.526  27.473  0.00  0.00    -0.029 C 
ATOM     23  C   UNL A   1     -21.817   1.673  28.136  0.00  0.00    +0.111 C 
ATOM     24  F   UNL A   1     -21.765   2.008  29.274  0.00  0.00    -0.143 F 
ENDBRANCH  21  22
ENDBRANCH   2  20
TORSDOF 5
