MODEL 2354
MODEL 1
REMARK VINA RESULT:    -6.989      0.000      0.000
REMARK INTER + INTRA:          -8.595
REMARK INTER:                  -8.214
REMARK INTRA:                  -0.381
REMARK UNBOUND:                -0.381
REMARK  Name = No_2354-gen_results/8p0m/2024-11-26-14-13-15/
REMARK  3 active torsions:
REMARK  status: ('A' for Active; 'I' for Inactive)
REMARK    1  A    between atoms: C_11  and  C_16
REMARK    2  A    between atoms: C_16  and  O_18
REMARK    3  A    between atoms: O_18  and  C_20
REMARK                            x       y       z     vdW  Elec       q    Type
REMARK                         _______ _______ _______ _____ _____    ______ ____
ROOT
ATOM      1  C   UNL A   1     -24.716   2.771  27.780  0.00  0.00    +0.213 A 
ATOM      2  C   UNL A   1     -25.488   2.356  26.947  0.00  0.00    +0.120 A 
ATOM      3  N   UNL A   1     -26.555   3.035  26.503  0.00  0.00    -0.242 NA
ATOM      4  C   UNL A   1     -27.505   2.597  25.519  0.00  0.00    +0.081 A 
ATOM      5  C   UNL A   1     -27.153   1.548  24.726  0.00  0.00    +0.014 A 
ATOM      6  C   UNL A   1     -28.008   1.083  23.725  0.00  0.00    +0.001 A 
ATOM      7  C   UNL A   1     -29.137   1.876  23.405  0.00  0.00    +0.000 A 
ATOM      8  C   UNL A   1     -29.470   2.982  24.159  0.00  0.00    +0.002 A 
ATOM      9  C   UNL A   1     -28.599   3.396  25.226  0.00  0.00    +0.019 A 
ATOM     10  C   UNL A   1     -23.900   1.878  28.507  0.00  0.00    +0.050 A 
ATOM     11  C   UNL A   1     -23.591   0.669  27.932  0.00  0.00    +0.079 A 
ATOM     12  C   UNL A   1     -24.323   0.257  26.827  0.00  0.00    +0.008 A 
ATOM     13  C   UNL A   1     -25.378   1.012  26.328  0.00  0.00    +0.017 A 
ATOM     14  C   UNL A   1     -26.176   0.643  25.220  0.00  0.00    -0.019 A 
ATOM     15  C   UNL A   1     -25.944  -0.620  24.553  0.00  0.00    +0.031 C 
ATOM     16  O   UNL A   1     -24.949   3.969  28.409  0.00  0.00    -0.285 OA
ENDROOT
BRANCH  11  17
ATOM     17  C   UNL A   1     -22.695  -0.155  28.699  0.00  0.00    +0.346 C 
ATOM     18  O   UNL A   1     -21.680   0.024  29.039  0.00  0.00    -0.244 OA
BRANCH  17  19
ATOM     19  O   UNL A   1     -23.391  -1.132  29.441  0.00  0.00    -0.418 OA
BRANCH  19  20
ATOM     20  C   UNL A   1     -23.445  -2.404  29.013  0.00  0.00    +0.178 C 
ATOM     21  C   UNL A   1     -24.209  -3.107  29.032  0.00  0.00    +0.015 C 
ATOM     22  C   UNL A   1     -24.165  -4.511  28.614  0.00  0.00    +0.034 C 
ENDBRANCH  19  20
ENDBRANCH  17  19
ENDBRANCH  11  17
TORSDOF 3
ENDMDL
ENDMDL
