REMARK  Name = No_2354-gen_results/8p0m/2024-11-26-14-13-15/
REMARK  3 active torsions:
REMARK  status: ('A' for Active; 'I' for Inactive)
REMARK    1  A    between atoms: C_11  and  C_16
REMARK    2  A    between atoms: C_16  and  O_18
REMARK    3  A    between atoms: O_18  and  C_20
REMARK                            x       y       z     vdW  Elec       q    Type
REMARK                         _______ _______ _______ _____ _____    ______ ____
ROOT
ATOM      1  C   UNL A   1     -28.016  -0.814  28.878  0.00  0.00    +0.213 A 
ATOM      2  C   UNL A   1     -27.064  -0.119  28.608  0.00  0.00    +0.120 A 
ATOM      3  N   UNL A   1     -25.818  -0.343  29.049  0.00  0.00    -0.242 NA
ATOM      4  C   UNL A   1     -24.651   0.444  28.765  0.00  0.00    +0.081 A 
ATOM      5  C   UNL A   1     -24.715   1.312  27.719  0.00  0.00    +0.014 A 
ATOM      6  C   UNL A   1     -23.612   2.090  27.359  0.00  0.00    +0.001 A 
ATOM      7  C   UNL A   1     -22.366   1.779  27.957  0.00  0.00    +0.000 A 
ATOM      8  C   UNL A   1     -22.274   0.851  28.974  0.00  0.00    +0.002 A 
ATOM      9  C   UNL A   1     -23.445   0.114  29.364  0.00  0.00    +0.019 A 
ATOM     10  C   UNL A   1     -29.328  -0.307  28.760  0.00  0.00    +0.050 A 
ATOM     11  C   UNL A   1     -29.549   0.720  27.874  0.00  0.00    +0.079 A 
ATOM     12  C   UNL A   1     -28.451   1.405  27.371  0.00  0.00    +0.008 A 
ATOM     13  C   UNL A   1     -27.156   1.108  27.779  0.00  0.00    +0.017 A 
ATOM     14  C   UNL A   1     -25.997   1.778  27.322  0.00  0.00    -0.019 A 
ATOM     15  C   UNL A   1     -26.121   2.886  26.400  0.00  0.00    +0.031 C 
ATOM     16  O   UNL A   1     -27.887  -1.860  29.758  0.00  0.00    -0.285 OA
ENDROOT
BRANCH  11  17
ATOM     17  C   UNL A   1     -30.922   1.132  27.754  0.00  0.00    +0.346 C 
ATOM     18  O   UNL A   1     -31.356   2.070  27.424  0.00  0.00    -0.244 OA
BRANCH  17  19
ATOM     19  O   UNL A   1     -31.792   0.026  27.660  0.00  0.00    -0.418 OA
BRANCH  19  20
ATOM     20  C   UNL A   1     -32.934   0.113  26.959  0.00  0.00    +0.178 C 
ATOM     21  C   UNL A   1     -33.821   0.620  27.143  0.00  0.00    +0.015 C 
ATOM     22  C   UNL A   1     -35.060   0.601  26.361  0.00  0.00    +0.034 C 
ENDBRANCH  19  20
ENDBRANCH  17  19
ENDBRANCH  11  17
TORSDOF 3
