REMARK  Name = No_2355-gen_results/8p0m/2024-11-26-14-13-15/
REMARK  2 active torsions:
REMARK  status: ('A' for Active; 'I' for Inactive)
REMARK    1  A    between atoms: C_2  and  C_3
REMARK    2  A    between atoms: C_8  and  C_13
REMARK                            x       y       z     vdW  Elec       q    Type
REMARK                         _______ _______ _______ _____ _____    ______ ____
ROOT
ATOM      1  C   UNL A   1     -28.016  -0.814  28.878  0.00  0.00    +0.000 A 
ATOM      2  C   UNL A   1     -27.064  -0.119  28.608  0.00  0.00    +0.002 A 
ATOM      3  C   UNL A   1     -29.345  -0.364  28.765  0.00  0.00    +0.000 A 
ATOM      4  C   UNL A   1     -29.554   0.783  27.996  0.00  0.00    +0.000 A 
ATOM      5  C   UNL A   1     -28.477   1.505  27.550  0.00  0.00    +0.000 A 
ATOM      6  C   UNL A   1     -27.135   1.161  27.915  0.00  0.00    +0.000 A 
ENDROOT
BRANCH   2   7
ATOM      7  C   UNL A   1     -25.765  -0.390  29.036  0.00  0.00    +0.028 A 
ATOM      8  C   UNL A   1     -24.552   0.406  28.765  0.00  0.00    +0.140 A 
ATOM      9  C   UNL A   1     -23.230   0.118  29.258  0.00  0.00    +0.030 A 
ATOM     10  C   UNL A   1     -23.094  -1.131  29.873  0.00  0.00    +0.002 A 
ATOM     11  C   UNL A   1     -25.329  -1.643  29.717  0.00  0.00    +0.002 A 
ATOM     12  C   UNL A   1     -24.082  -1.960  30.087  0.00  0.00    +0.000 A 
ATOM     13  F   UNL A   1     -24.660   1.578  28.154  0.00  0.00    -0.204 F 
ENDBRANCH   2   7
BRANCH   4  14
ATOM     14  C   UNL A   1     -30.919   1.213  27.689  0.00  0.00    +0.000 A 
ATOM     15  C   UNL A   1     -31.836   1.099  28.585  0.00  0.00    +0.000 A 
ATOM     16  C   UNL A   1     -31.172   1.696  26.383  0.00  0.00    +0.000 A 
ATOM     17  C   UNL A   1     -33.205   1.478  28.230  0.00  0.00    +0.000 A 
ATOM     18  C   UNL A   1     -32.517   2.112  26.076  0.00  0.00    +0.000 A 
ATOM     19  C   UNL A   1     -33.460   2.018  27.015  0.00  0.00    +0.000 A 
ENDBRANCH   4  14
TORSDOF 2
