MODEL 2355
MODEL 1
REMARK VINA RESULT:    -7.206      0.000      0.000
REMARK INTER + INTRA:          -8.906
REMARK INTER:                  -8.048
REMARK INTRA:                  -0.857
REMARK UNBOUND:                -0.857
REMARK  Name = No_2355-gen_results/8p0m/2024-11-26-14-13-15/
REMARK  2 active torsions:
REMARK  status: ('A' for Active; 'I' for Inactive)
REMARK    1  A    between atoms: C_2  and  C_3
REMARK    2  A    between atoms: C_8  and  C_13
REMARK                            x       y       z     vdW  Elec       q    Type
REMARK                         _______ _______ _______ _____ _____    ______ ____
ROOT
ATOM      1  C   UNL A   1     -25.571   0.216  25.030  0.00  0.00    +0.000 A 
ATOM      2  C   UNL A   1     -25.200   1.147  25.708  0.00  0.00    +0.002 A 
ATOM      3  C   UNL A   1     -26.882   0.111  24.531  0.00  0.00    +0.000 A 
ATOM      4  C   UNL A   1     -27.649   1.279  24.536  0.00  0.00    +0.000 A 
ATOM      5  C   UNL A   1     -27.176   2.397  25.173  0.00  0.00    +0.000 A 
ATOM      6  C   UNL A   1     -25.945   2.383  25.906  0.00  0.00    +0.000 A 
ENDROOT
BRANCH   2   7
ATOM      7  C   UNL A   1     -24.054   1.115  26.501  0.00  0.00    +0.028 A 
ATOM      8  C   UNL A   1     -22.778   1.814  26.253  0.00  0.00    +0.140 A 
ATOM      9  C   UNL A   1     -21.626   1.792  27.117  0.00  0.00    +0.030 A 
ATOM     10  C   UNL A   1     -21.695   0.864  28.161  0.00  0.00    +0.002 A 
ATOM     11  C   UNL A   1     -23.848   0.222  27.678  0.00  0.00    +0.002 A 
ATOM     12  C   UNL A   1     -22.740   0.124  28.423  0.00  0.00    +0.000 A 
ATOM     13  F   UNL A   1     -22.686   2.674  25.248  0.00  0.00    -0.204 F 
ENDBRANCH   2   7
BRANCH   4  14
ATOM     14  C   UNL A   1     -28.956   1.292  23.877  0.00  0.00    +0.000 A 
ATOM     15  C   UNL A   1     -29.393   2.386  23.359  0.00  0.00    +0.000 A 
ATOM     16  C   UNL A   1     -29.703   0.090  23.887  0.00  0.00    +0.000 A 
ATOM     17  C   UNL A   1     -30.731   2.387  22.762  0.00  0.00    +0.000 A 
ATOM     18  C   UNL A   1     -30.994   0.104  23.246  0.00  0.00    +0.000 A 
ATOM     19  C   UNL A   1     -31.434   1.232  22.687  0.00  0.00    +0.000 A 
ENDBRANCH   4  14
TORSDOF 2
ENDMDL
ENDMDL
