MODEL 2356
MODEL 1
REMARK VINA RESULT:    -4.597      0.000      0.000
REMARK INTER + INTRA:          -4.597
REMARK INTER:                  -4.597
REMARK INTRA:                   0.000
REMARK UNBOUND:                 0.000
REMARK  Name = No_2356-gen_results/8p0m/2024-11-26-14-13-15/
REMARK  0 active torsions:
REMARK  status: ('A' for Active; 'I' for Inactive)
REMARK                            x       y       z     vdW  Elec       q    Type
REMARK                         _______ _______ _______ _____ _____    ______ ____
ROOT
ATOM      1  C   UNL A   1     -24.090  -4.554  28.740  0.00  0.00    +0.042 A 
ATOM      2  C   UNL A   1     -25.009  -5.293  29.008  0.00  0.00    +0.003 A 
ATOM      3  C   UNL A   1     -26.183  -4.805  29.571  0.00  0.00    +0.000 A 
ATOM      4  C   UNL A   1     -26.324  -3.409  29.896  0.00  0.00    +0.003 A 
ATOM      5  C   UNL A   1     -25.205  -2.630  29.575  0.00  0.00    +0.042 A 
ATOM      6  C   UNL A   1     -24.111  -3.143  29.059  0.00  0.00    +0.196 A 
ATOM      7  O   UNL A   1     -23.054  -2.322  28.812  0.00  0.00    -0.287 OA
ENDROOT
TORSDOF 0
ENDMDL
ENDMDL
