MODEL 2357
MODEL 1
REMARK VINA RESULT:    -6.887      0.000      0.000
REMARK INTER + INTRA:          -8.446
REMARK INTER:                  -7.692
REMARK INTRA:                  -0.754
REMARK UNBOUND:                -0.754
REMARK  Name = No_2357-gen_results/8p0m/2024-11-26-14-13-15/
REMARK  2 active torsions:
REMARK  status: ('A' for Active; 'I' for Inactive)
REMARK    1  A    between atoms: C_4  and  C_11
REMARK    2  A    between atoms: C_7  and  C_18
REMARK                            x       y       z     vdW  Elec       q    Type
REMARK                         _______ _______ _______ _____ _____    ______ ____
ROOT
ATOM      1  C   UNL A   1     -24.769  -0.624  29.376  0.00  0.00    +0.007 A 
ATOM      2  C   UNL A   1     -24.969  -0.130  28.291  0.00  0.00    +0.000 A 
ATOM      3  C   UNL A   1     -24.010   0.596  27.585  0.00  0.00    +0.000 A 
ATOM      4  C   UNL A   1     -24.171   1.241  26.267  0.00  0.00    +0.001 A 
ATOM      5  C   UNL A   1     -23.170   2.019  25.584  0.00  0.00    +0.000 A 
ATOM      6  C   UNL A   1     -21.895   1.966  26.159  0.00  0.00    +0.000 A 
ATOM      7  C   UNL A   1     -23.468  -0.298  30.054  0.00  0.00    +0.080 A 
ATOM      8  C   UNL A   1     -22.434   0.333  29.400  0.00  0.00    +0.007 A 
ATOM      9  C   UNL A   1     -22.656   0.857  28.140  0.00  0.00    +0.000 A 
ATOM     10  C   UNL A   1     -21.641   1.497  27.430  0.00  0.00    +0.000 A 
ENDROOT
BRANCH   4  11
ATOM     11  C   UNL A   1     -25.481   1.151  25.544  0.00  0.00    +0.011 A 
ATOM     12  C   UNL A   1     -26.277   2.155  25.624  0.00  0.00    +0.058 A 
ATOM     13  C   UNL A   1     -27.589   2.073  25.124  0.00  0.00    +0.011 A 
ATOM     14  C   UNL A   1     -25.766  -0.003  24.862  0.00  0.00    +0.001 A 
ATOM     15  C   UNL A   1     -27.008  -0.149  24.232  0.00  0.00    +0.000 A 
ATOM     16  C   UNL A   1     -27.901   0.944  24.285  0.00  0.00    +0.001 A 
ATOM     17 CL   UNL A   1     -25.984   3.630  26.513  0.00  0.00    -0.082 Cl
ENDBRANCH   4  11
BRANCH   7  18
ATOM     18  C   UNL A   1     -23.260  -0.871  31.437  0.00  0.00    +0.388 C 
ATOM     19  O   UNL A   1     -22.341  -0.753  31.881  0.00  0.00    -0.241 OA
ATOM     20  O   UNL A   1     -24.317  -1.503  31.920  0.00  0.00    -0.241 OA
ENDBRANCH   7  18
TORSDOF 2
ENDMDL
ENDMDL
