MODEL 2358
MODEL 1
REMARK VINA RESULT:    -4.523      0.000      0.000
REMARK INTER + INTRA:          -4.523
REMARK INTER:                  -4.523
REMARK INTRA:                   0.000
REMARK UNBOUND:                 0.000
REMARK  Name = No_2358-gen_results/8p0m/2024-11-26-14-13-15/
REMARK  0 active torsions:
REMARK  status: ('A' for Active; 'I' for Inactive)
REMARK                            x       y       z     vdW  Elec       q    Type
REMARK                         _______ _______ _______ _____ _____    ______ ____
ROOT
ATOM      1  C   UNL A   1     -26.241  -4.641  29.627  0.00  0.00    +0.030 A 
ATOM      2  C   UNL A   1     -26.244  -3.613  29.858  0.00  0.00    +0.002 A 
ATOM      3  C   UNL A   1     -25.030  -5.083  28.938  0.00  0.00    +0.140 A 
ATOM      4  C   UNL A   1     -23.999  -4.223  28.649  0.00  0.00    +0.030 A 
ATOM      5  C   UNL A   1     -25.320  -2.492  29.684  0.00  0.00    +0.000 A 
ATOM      6  C   UNL A   1     -24.143  -2.910  29.017  0.00  0.00    +0.002 A 
ATOM      7  F   UNL A   1     -24.875  -6.374  28.618  0.00  0.00    -0.204 F 
ENDROOT
TORSDOF 0
ENDMDL
ENDMDL
