REMARK  Name = No_2359-gen_results/8p0m/2024-11-26-14-13-15/
REMARK  3 active torsions:
REMARK  status: ('A' for Active; 'I' for Inactive)
REMARK    1  A    between atoms: C_3  and  C_7
REMARK    2  A    between atoms: C_8  and  C_14
REMARK    3  A    between atoms: C_11  and  C_13
REMARK                            x       y       z     vdW  Elec       q    Type
REMARK                         _______ _______ _______ _____ _____    ______ ____
ROOT
ATOM      1  C   UNL A   1     -26.483   0.210  27.128  0.00  0.00    +0.006 A 
ATOM      2  C   UNL A   1     -27.020   0.649  26.137  0.00  0.00    +0.080 A 
ATOM      3  C   UNL A   1     -26.410   0.489  24.842  0.00  0.00    +0.007 A 
ATOM      4  C   UNL A   1     -25.082  -0.028  24.836  0.00  0.00    +0.000 A 
ATOM      5  C   UNL A   1     -25.109  -0.313  27.052  0.00  0.00    +0.000 A 
ATOM      6  C   UNL A   1     -24.454  -0.351  25.921  0.00  0.00    +0.000 A 
ENDROOT
BRANCH   1   9
ATOM      7  C   UNL A   1     -28.016  -0.814  28.878  0.00  0.00    +0.000 A 
ATOM      8  C   UNL A   1     -28.469  -0.785  29.829  0.00  0.00    +0.000 A 
ATOM      9  C   UNL A   1     -27.136   0.236  28.535  0.00  0.00    +0.000 A 
ATOM     10  C   UNL A   1     -26.805   1.051  29.276  0.00  0.00    +0.000 A 
ATOM     11  C   UNL A   1     -27.316   1.149  30.605  0.00  0.00    +0.000 A 
ATOM     12  C   UNL A   1     -28.192   0.143  30.949  0.00  0.00    +0.000 A 
ENDBRANCH   1   9
BRANCH   5  13
ATOM     13  C   UNL A   1     -24.409  -0.765  28.324  0.00  0.00    +0.000 A 
ATOM     14  C   UNL A   1     -23.322  -0.343  28.877  0.00  0.00    +0.000 A 
ATOM     15  C   UNL A   1     -22.680  -0.925  29.936  0.00  0.00    +0.000 A 
ATOM     16  C   UNL A   1     -23.413  -1.772  30.761  0.00  0.00    +0.000 A 
ATOM     17  C   UNL A   1     -24.943  -1.816  29.170  0.00  0.00    +0.000 A 
ATOM     18  C   UNL A   1     -24.505  -2.302  30.264  0.00  0.00    +0.000 A 
ENDBRANCH   5  13
BRANCH   2  19
ATOM     19  C   UNL A   1     -28.459   1.090  26.076  0.00  0.00    +0.388 C 
ATOM     20  O   UNL A   1     -28.602   2.257  26.275  0.00  0.00    -0.241 OA
ATOM     21  O   UNL A   1     -29.350   0.231  25.975  0.00  0.00    -0.241 OA
ENDBRANCH   2  19
TORSDOF 3
