MODEL 2359
MODEL 1
REMARK VINA RESULT:    -7.239      0.000      0.000
REMARK INTER + INTRA:          -9.715
REMARK INTER:                  -8.509
REMARK INTRA:                  -1.206
REMARK UNBOUND:                -1.206
REMARK  Name = No_2359-gen_results/8p0m/2024-11-26-14-13-15/
REMARK  3 active torsions:
REMARK  status: ('A' for Active; 'I' for Inactive)
REMARK    1  A    between atoms: C_3  and  C_7
REMARK    2  A    between atoms: C_8  and  C_14
REMARK    3  A    between atoms: C_11  and  C_13
REMARK                            x       y       z     vdW  Elec       q    Type
REMARK                         _______ _______ _______ _____ _____    ______ ____
ROOT
ATOM      1  C   UNL A   1     -23.613   0.739  27.307  0.00  0.00    +0.006 A 
ATOM      2  C   UNL A   1     -22.877   1.624  26.936  0.00  0.00    +0.080 A 
ATOM      3  C   UNL A   1     -21.505   1.667  27.373  0.00  0.00    +0.007 A 
ATOM      4  C   UNL A   1     -21.145   0.741  28.394  0.00  0.00    +0.000 A 
ATOM      5  C   UNL A   1     -23.177  -0.187  28.365  0.00  0.00    +0.000 A 
ATOM      6  C   UNL A   1     -21.987  -0.103  28.899  0.00  0.00    +0.000 A 
ENDROOT
BRANCH   1   9
ATOM      7  C   UNL A   1     -26.101   1.235  27.461  0.00  0.00    +0.000 A 
ATOM      8  C   UNL A   1     -27.086   1.098  27.112  0.00  0.00    +0.000 A 
ATOM      9  C   UNL A   1     -25.062   0.559  26.784  0.00  0.00    +0.000 A 
ATOM     10  C   UNL A   1     -25.222  -0.036  25.813  0.00  0.00    +0.000 A 
ATOM     11  C   UNL A   1     -26.508  -0.236  25.226  0.00  0.00    +0.000 A 
ATOM     12  C   UNL A   1     -27.536   0.401  25.885  0.00  0.00    +0.000 A 
ENDBRANCH   1   9
BRANCH   5  13
ATOM     13  C   UNL A   1     -24.150  -1.228  28.896  0.00  0.00    +0.000 A 
ATOM     14  C   UNL A   1     -25.125  -1.114  29.733  0.00  0.00    +0.000 A 
ATOM     15  C   UNL A   1     -25.843  -2.144  30.278  0.00  0.00    +0.000 A 
ATOM     16  C   UNL A   1     -25.841  -3.366  29.614  0.00  0.00    +0.000 A 
ATOM     17  C   UNL A   1     -24.114  -2.613  28.464  0.00  0.00    +0.000 A 
ATOM     18  C   UNL A   1     -24.852  -3.601  28.785  0.00  0.00    +0.000 A 
ENDBRANCH   5  13
BRANCH   2  19
ATOM     19  C   UNL A   1     -23.171   2.544  25.780  0.00  0.00    +0.388 C 
ATOM     20  O   UNL A   1     -22.480   2.340  24.829  0.00  0.00    -0.241 OA
ATOM     21  O   UNL A   1     -23.963   3.486  25.944  0.00  0.00    -0.241 OA
ENDBRANCH   2  19
TORSDOF 3
ENDMDL
ENDMDL
