MODEL 235
MODEL 1
REMARK VINA RESULT:    -6.664      0.000      0.000
REMARK INTER + INTRA:          -8.001
REMARK INTER:                  -7.443
REMARK INTRA:                  -0.558
REMARK UNBOUND:                -0.558
REMARK  Name = No_235-gen_results/8p0m/2024-11-26-14-13-15/
REMARK  2 active torsions:
REMARK  status: ('A' for Active; 'I' for Inactive)
REMARK    1  A    between atoms: C_6  and  O_16
REMARK    2  A    between atoms: O_16  and  C_17
REMARK                            x       y       z     vdW  Elec       q    Type
REMARK                         _______ _______ _______ _____ _____    ______ ____
ROOT
ATOM      1  C   UNL A   1     -12.658   2.065  37.258  0.00  0.00    +0.048 A 
ATOM      2  C   UNL A   1     -13.190   2.319  36.202  0.00  0.00    +0.033 A 
ATOM      3  C   UNL A   1     -12.637   2.085  34.954  0.00  0.00    +0.015 A 
ATOM      4  C   UNL A   1     -11.352   1.469  34.919  0.00  0.00    +0.071 A 
ATOM      5  C   UNL A   1     -10.856   1.064  36.106  0.00  0.00    +0.103 A 
ATOM      6  C   UNL A   1     -11.515   1.262  37.249  0.00  0.00    +0.157 A 
ATOM      7 CL   UNL A   1      -9.356   0.267  36.041  0.00  0.00    -0.078 Cl
ATOM      8  C   UNL A   1     -14.541   3.146  36.136  0.00  0.00    +0.146 A 
ATOM      9  C   UNL A   1     -15.100   3.469  36.976  0.00  0.00    +0.063 A 
ATOM     10  C   UNL A   1     -14.492   3.192  38.381  0.00  0.00    +0.020 A 
ATOM     11  C   UNL A   1     -13.352   2.507  38.463  0.00  0.00    +0.061 A 
ATOM     12 CL   UNL A   1     -12.726   2.196  40.027  0.00  0.00    -0.082 Cl
ATOM     13  F   UNL A   1     -15.012   3.437  34.864  0.00  0.00    -0.204 F 
ATOM     14 CL   UNL A   1     -10.678   1.140  33.363  0.00  0.00    -0.081 Cl
ATOM     15 BR   UNL A   1     -16.739   4.477  37.033  0.00  0.00    -0.047 Br
ENDROOT
BRANCH   6  16
ATOM     16  O   UNL A   1     -10.951   0.885  38.383  0.00  0.00    -0.453 OA
BRANCH  16  17
ATOM     17  C   UNL A   1     -10.875  -0.247  39.076  0.00  0.00    +0.145 A 
ATOM     18  C   UNL A   1     -11.764  -1.024  38.997  0.00  0.00    +0.037 A 
ATOM     19  C   UNL A   1     -11.884  -2.026  39.916  0.00  0.00    +0.003 A 
ATOM     20  C   UNL A   1      -9.765  -0.389  39.949  0.00  0.00    +0.037 A 
ATOM     21  C   UNL A   1      -9.696  -1.408  40.840  0.00  0.00    +0.003 A 
ATOM     22  C   UNL A   1     -10.790  -2.314  40.771  0.00  0.00    +0.000 A 
ENDBRANCH  16  17
ENDBRANCH   6  16
TORSDOF 2
ENDMDL
ENDMDL
