REMARK  Name = No_2360-gen_results/8p0m/2024-11-26-14-13-15/
REMARK  2 active torsions:
REMARK  status: ('A' for Active; 'I' for Inactive)
REMARK    1  A    between atoms: C_3  and  C_7
REMARK    2  A    between atoms: C_8  and  C_9
REMARK                            x       y       z     vdW  Elec       q    Type
REMARK                         _______ _______ _______ _____ _____    ______ ____
ROOT
ATOM      1  C   UNL A   1     -27.459   0.379  26.705  0.00  0.00    +0.001 A 
ATOM      2  C   UNL A   1     -26.135   0.356  26.818  0.00  0.00    +0.001 A 
ATOM      3  C   UNL A   1     -25.365   0.901  25.673  0.00  0.00    +0.000 A 
ATOM      4  C   UNL A   1     -28.111   1.095  25.770  0.00  0.00    +0.000 A 
ATOM      5  C   UNL A   1     -27.490   1.117  24.509  0.00  0.00    +0.000 A 
ATOM      6  C   UNL A   1     -26.069   1.152  24.542  0.00  0.00    +0.000 A 
ENDROOT
BRANCH   2   7
ATOM      7  C   UNL A   1     -25.387   0.025  27.921  0.00  0.00    +0.011 A 
ATOM      8  C   UNL A   1     -23.978   0.023  27.913  0.00  0.00    +0.012 A 
ATOM      9  C   UNL A   1     -23.213  -0.372  29.087  0.00  0.00    +0.058 A 
ATOM     10  C   UNL A   1     -23.814  -1.195  30.021  0.00  0.00    +0.012 A 
ATOM     11  C   UNL A   1     -25.181  -1.303  30.003  0.00  0.00    +0.012 A 
ATOM     12  C   UNL A   1     -25.940  -0.800  29.009  0.00  0.00    +0.058 A 
ATOM     13 CL   UNL A   1     -25.779  -2.249  28.575  0.00  0.00    -0.082 Cl
ATOM     14 CL   UNL A   1     -21.525  -0.124  29.092  0.00  0.00    -0.082 Cl
ENDBRANCH   2   7
BRANCH   1  17
ATOM     15  C   UNL A   1     -28.016  -0.814  28.878  0.00  0.00    +0.058 A 
ATOM     16  C   UNL A   1     -28.469  -0.785  29.829  0.00  0.00    +0.011 A 
ATOM     17  C   UNL A   1     -28.196   0.348  28.055  0.00  0.00    +0.011 A 
ATOM     18  C   UNL A   1     -29.019   1.350  28.378  0.00  0.00    +0.001 A 
ATOM     19  C   UNL A   1     -29.625   1.268  29.601  0.00  0.00    +0.000 A 
ATOM     20  C   UNL A   1     -29.382   0.182  30.400  0.00  0.00    +0.001 A 
ATOM     21 CL   UNL A   1     -29.130  -1.646  28.130  0.00  0.00    -0.082 Cl
ENDBRANCH   1  17
TORSDOF 2
