MODEL 2360
MODEL 1
REMARK VINA RESULT:    -7.048      0.000      0.000
REMARK INTER + INTRA:          -9.027
REMARK INTER:                  -7.872
REMARK INTRA:                  -1.155
REMARK UNBOUND:                -1.155
REMARK  Name = No_2360-gen_results/8p0m/2024-11-26-14-13-15/
REMARK  2 active torsions:
REMARK  status: ('A' for Active; 'I' for Inactive)
REMARK    1  A    between atoms: C_3  and  C_7
REMARK    2  A    between atoms: C_8  and  C_9
REMARK                            x       y       z     vdW  Elec       q    Type
REMARK                         _______ _______ _______ _____ _____    ______ ____
ROOT
ATOM      1  C   UNL A   1     -23.062  -0.373  28.863  0.00  0.00    +0.001 A 
ATOM      2  C   UNL A   1     -23.532   0.498  27.977  0.00  0.00    +0.001 A 
ATOM      3  C   UNL A   1     -22.524   1.285  27.225  0.00  0.00    +0.000 A 
ATOM      4  C   UNL A   1     -21.774  -0.761  28.910  0.00  0.00    +0.000 A 
ATOM      5  C   UNL A   1     -20.844   0.262  28.656  0.00  0.00    +0.000 A 
ATOM      6  C   UNL A   1     -21.247   1.208  27.674  0.00  0.00    +0.000 A 
ENDROOT
BRANCH   2   7
ATOM      7  C   UNL A   1     -24.831   0.663  27.561  0.00  0.00    +0.011 A 
ATOM      8  C   UNL A   1     -25.277   0.270  26.284  0.00  0.00    +0.012 A 
ATOM      9  C   UNL A   1     -26.651   0.495  25.858  0.00  0.00    +0.058 A 
ATOM     10  C   UNL A   1     -27.376   1.500  26.469  0.00  0.00    +0.012 A 
ATOM     11  C   UNL A   1     -26.923   1.986  27.669  0.00  0.00    +0.012 A 
ATOM     12  C   UNL A   1     -25.717   1.665  28.178  0.00  0.00    +0.058 A 
ATOM     13 CL   UNL A   1     -25.421   2.986  27.485  0.00  0.00    -0.082 Cl
ATOM     14 CL   UNL A   1     -27.189  -0.216  24.403  0.00  0.00    -0.082 Cl
ENDBRANCH   2   7
BRANCH   1  17
ATOM     15  C   UNL A   1     -25.081  -1.240  30.139  0.00  0.00    +0.058 A 
ATOM     16  C   UNL A   1     -25.785  -2.009  30.294  0.00  0.00    +0.011 A 
ATOM     17  C   UNL A   1     -24.041  -1.514  29.189  0.00  0.00    +0.011 A 
ATOM     18  C   UNL A   1     -23.852  -2.719  28.643  0.00  0.00    +0.001 A 
ATOM     19  C   UNL A   1     -24.771  -3.681  28.960  0.00  0.00    +0.000 A 
ATOM     20  C   UNL A   1     -25.797  -3.374  29.814  0.00  0.00    +0.001 A 
ATOM     21 CL   UNL A   1     -24.161  -1.530  31.389  0.00  0.00    -0.082 Cl
ENDBRANCH   1  17
TORSDOF 2
ENDMDL
ENDMDL
