MODEL 2361
MODEL 1
REMARK VINA RESULT:    -8.530      0.000      0.000
REMARK INTER + INTRA:         -11.885
REMARK INTER:                 -10.026
REMARK INTRA:                  -1.859
REMARK UNBOUND:                -1.859
REMARK  Name = No_2361-gen_results/8p0m/2024-11-26-14-13-15/
REMARK  3 active torsions:
REMARK  status: ('A' for Active; 'I' for Inactive)
REMARK    1  A    between atoms: C_3  and  C_7
REMARK    2  A    between atoms: C_7  and  C_15
REMARK    3  A    between atoms: C_8  and  C_9
REMARK                            x       y       z     vdW  Elec       q    Type
REMARK                         _______ _______ _______ _____ _____    ______ ____
ROOT
ATOM      1  C   UNL A   1     -24.610  -1.327  30.001  0.00  0.00    +0.028 C 
ATOM      2  C   UNL A   1     -24.287  -0.507  28.956  0.00  0.00    +0.140 C 
ATOM      3  F   UNL A   1     -25.523  -0.258  28.283  0.00  0.00    -0.204 F 
ENDROOT
BRANCH   1   6
ATOM      4  C   UNL A   1     -23.856  -3.527  28.926  0.00  0.00    +0.000 A 
ATOM      5  C   UNL A   1     -24.086  -4.534  28.714  0.00  0.00    +0.000 A 
ATOM      6  C   UNL A   1     -24.826  -2.760  29.608  0.00  0.00    +0.002 A 
ATOM      7  C   UNL A   1     -26.045  -3.289  29.983  0.00  0.00    +0.000 A 
ATOM      8  C   UNL A   1     -25.292  -5.334  29.003  0.00  0.00    +0.000 A 
ATOM      9  C   UNL A   1     -26.247  -4.636  29.655  0.00  0.00    +0.000 A 
ENDBRANCH   1   6
BRANCH   2  10
ATOM     10  C   UNL A   1     -23.445  -0.018  28.604  0.00  0.00    +0.028 A 
ATOM     11  C   UNL A   1     -22.043  -0.424  28.887  0.00  0.00    +0.002 A 
ATOM     12  C   UNL A   1     -20.912   0.330  28.426  0.00  0.00    +0.000 A 
ATOM     13  C   UNL A   1     -21.242   1.408  27.634  0.00  0.00    +0.000 A 
ATOM     14  C   UNL A   1     -23.269   1.161  27.728  0.00  0.00    +0.002 A 
ATOM     15  C   UNL A   1     -22.208   1.768  27.227  0.00  0.00    +0.000 A 
ENDBRANCH   2  10
BRANCH   1  16
ATOM     16  C   UNL A   1     -24.606  -0.988  31.337  0.00  0.00    +0.002 A 
ATOM     17  C   UNL A   1     -23.642  -1.383  32.241  0.00  0.00    +0.000 A 
ATOM     18  C   UNL A   1     -23.865  -1.097  33.585  0.00  0.00    +0.000 A 
ATOM     19  C   UNL A   1     -25.671  -0.255  31.832  0.00  0.00    +0.000 A 
ATOM     20  C   UNL A   1     -25.844   0.057  33.109  0.00  0.00    +0.000 A 
ATOM     21  C   UNL A   1     -24.906  -0.374  33.988  0.00  0.00    +0.000 A 
ENDBRANCH   1  16
TORSDOF 3
ENDMDL
ENDMDL
