REMARK  Name = No_2361-gen_results/8p0m/2024-11-26-14-13-15/
REMARK  3 active torsions:
REMARK  status: ('A' for Active; 'I' for Inactive)
REMARK    1  A    between atoms: C_3  and  C_7
REMARK    2  A    between atoms: C_7  and  C_15
REMARK    3  A    between atoms: C_8  and  C_9
REMARK                            x       y       z     vdW  Elec       q    Type
REMARK                         _______ _______ _______ _____ _____    ______ ____
ROOT
ATOM      1  C   UNL A   1     -26.399   0.295  27.228  0.00  0.00    +0.028 C 
ATOM      2  C   UNL A   1     -25.039   0.236  27.354  0.00  0.00    +0.140 C 
ATOM      3  F   UNL A   1     -24.747  -1.143  27.590  0.00  0.00    -0.204 F 
ENDROOT
BRANCH   1   6
ATOM      4  C   UNL A   1     -28.016  -0.814  28.878  0.00  0.00    +0.000 A 
ATOM      5  C   UNL A   1     -28.469  -0.785  29.829  0.00  0.00    +0.000 A 
ATOM      6  C   UNL A   1     -27.136   0.236  28.535  0.00  0.00    +0.002 A 
ATOM      7  C   UNL A   1     -26.875   1.282  29.398  0.00  0.00    +0.000 A 
ATOM      8  C   UNL A   1     -28.361   0.199  30.924  0.00  0.00    +0.000 A 
ATOM      9  C   UNL A   1     -27.528   1.223  30.636  0.00  0.00    +0.000 A 
ENDBRANCH   1   6
BRANCH   2  10
ATOM     10  C   UNL A   1     -24.238   0.886  27.266  0.00  0.00    +0.028 A 
ATOM     11  C   UNL A   1     -24.306   2.248  26.674  0.00  0.00    +0.002 A 
ATOM     12  C   UNL A   1     -23.148   3.082  26.518  0.00  0.00    +0.000 A 
ATOM     13  C   UNL A   1     -21.993   2.540  27.040  0.00  0.00    +0.000 A 
ATOM     14  C   UNL A   1     -22.819   0.781  27.673  0.00  0.00    +0.002 A 
ATOM     15  C   UNL A   1     -21.796   1.615  27.617  0.00  0.00    +0.000 A 
ENDBRANCH   2  10
BRANCH   1  16
ATOM     16  C   UNL A   1     -27.103   0.542  26.069  0.00  0.00    +0.002 A 
ATOM     17  C   UNL A   1     -28.438   0.882  26.022  0.00  0.00    +0.000 A 
ATOM     18  C   UNL A   1     -29.044   0.939  24.770  0.00  0.00    +0.000 A 
ATOM     19  C   UNL A   1     -26.452   0.379  24.858  0.00  0.00    +0.000 A 
ATOM     20  C   UNL A   1     -27.029   0.489  23.669  0.00  0.00    +0.000 A 
ATOM     21  C   UNL A   1     -28.352   0.785  23.645  0.00  0.00    +0.000 A 
ENDBRANCH   1  16
TORSDOF 3
