MODEL 2362
MODEL 1
REMARK VINA RESULT:    -6.811      0.000      0.000
REMARK INTER + INTRA:         -11.250
REMARK INTER:                  -9.598
REMARK INTRA:                  -1.652
REMARK UNBOUND:                -1.652
REMARK  Name = No_2362-gen_results/8p0m/2024-11-26-14-13-15/
REMARK  7 active torsions:
REMARK  status: ('A' for Active; 'I' for Inactive)
REMARK    1  A    between atoms: C_1  and  C_2
REMARK    2  A    between atoms: C_1  and  C_8
REMARK    3  A    between atoms: C_3  and  C_19
REMARK    4  A    between atoms: C_5  and  C_10
REMARK    5  A    between atoms: C_8  and  C_9
REMARK    6  A    between atoms: C_8  and  C_18
REMARK    7  A    between atoms: C_23  and  C_24
REMARK                            x       y       z     vdW  Elec       q    Type
REMARK                         _______ _______ _______ _____ _____    ______ ____
ROOT
ATOM      1  C   UNL A   1     -11.617   2.135  37.161  0.00  0.00    -0.017 A 
ATOM      2  C   UNL A   1     -12.241   2.394  35.952  0.00  0.00    +0.051 A 
ATOM      3  C   UNL A   1     -13.607   2.822  35.771  0.00  0.00    +0.011 A 
ATOM      4  C   UNL A   1     -14.418   3.000  36.917  0.00  0.00    +0.080 A 
ATOM      5  C   UNL A   1     -13.840   2.748  38.188  0.00  0.00    +0.006 A 
ATOM      6  C   UNL A   1     -12.533   2.375  38.257  0.00  0.00    -0.004 A 
ENDROOT
BRANCH   2   7
ATOM      7  C   UNL A   1     -11.492   2.274  34.692  0.00  0.00    +0.265 C 
ATOM      8  O   UNL A   1     -10.730   3.083  34.294  0.00  0.00    -0.268 OA
ATOM      9  N   UNL A   1     -11.730   1.178  33.919  0.00  0.00    -0.200 NA
ATOM     10  C   UNL A   1     -11.193   0.943  32.635  0.00  0.00    +0.139 C 
ENDBRANCH   2   7
BRANCH   4  11
ATOM     11  C   UNL A   1     -15.815   3.414  36.825  0.00  0.00    +0.388 C 
ATOM     12  O   UNL A   1     -16.486   3.383  37.876  0.00  0.00    -0.241 OA
ATOM     13  O   UNL A   1     -16.304   3.688  35.667  0.00  0.00    -0.241 OA
ENDBRANCH   4  11
BRANCH   1  14
ATOM     14  C   UNL A   1     -10.451   1.843  37.294  0.00  0.00    +0.035 C 
BRANCH  14  15
ATOM     15  C   UNL A   1     -10.160   0.385  37.214  0.00  0.00    +0.049 C 
BRANCH  15  16
ATOM     16  C   UNL A   1     -10.749  -0.516  38.210  0.00  0.00    -0.018 A 
ATOM     17  C   UNL A   1     -10.544  -0.329  39.304  0.00  0.00    -0.004 A 
ATOM     18  C   UNL A   1     -11.090  -1.356  40.243  0.00  0.00    -0.000 A 
ATOM     19  C   UNL A   1     -11.799  -2.361  39.793  0.00  0.00    -0.000 A 
ATOM     20  C   UNL A   1     -12.034  -2.538  38.474  0.00  0.00    -0.000 A 
ATOM     21  C   UNL A   1     -11.491  -1.624  37.575  0.00  0.00    -0.004 A 
ENDBRANCH  15  16
BRANCH  15  22
ATOM     22  C   UNL A   1      -9.312  -0.160  36.132  0.00  0.00    -0.022 C 
ATOM     23  C   UNL A   1      -8.498   0.275  35.366  0.00  0.00    -0.004 C 
BRANCH  23  24
ATOM     24  C   UNL A   1      -7.745  -0.520  34.449  0.00  0.00    -0.000 C 
ATOM     25  C   UNL A   1      -7.026  -1.529  34.930  0.00  0.00    -0.000 C 
ENDBRANCH  23  24
ENDBRANCH  15  22
ENDBRANCH  14  15
ENDBRANCH   1  14
TORSDOF 7
ENDMDL
ENDMDL
