REMARK  Name = No_2362-gen_results/8p0m/2024-11-26-14-13-15/
REMARK  7 active torsions:
REMARK  status: ('A' for Active; 'I' for Inactive)
REMARK    1  A    between atoms: C_1  and  C_2
REMARK    2  A    between atoms: C_1  and  C_8
REMARK    3  A    between atoms: C_3  and  C_19
REMARK    4  A    between atoms: C_5  and  C_10
REMARK    5  A    between atoms: C_8  and  C_9
REMARK    6  A    between atoms: C_8  and  C_18
REMARK    7  A    between atoms: C_23  and  C_24
REMARK                            x       y       z     vdW  Elec       q    Type
REMARK                         _______ _______ _______ _____ _____    ______ ____
ROOT
ATOM      1  C   UNL A   1     -27.064  -0.119  28.608  0.00  0.00    -0.017 A 
ATOM      2  C   UNL A   1     -26.972   0.714  27.506  0.00  0.00    +0.051 A 
ATOM      3  C   UNL A   1     -25.820   1.491  27.116  0.00  0.00    +0.011 A 
ATOM      4  C   UNL A   1     -24.656   1.424  27.918  0.00  0.00    +0.080 A 
ATOM      5  C   UNL A   1     -24.685   0.590  29.066  0.00  0.00    +0.006 A 
ATOM      6  C   UNL A   1     -25.810  -0.127  29.334  0.00  0.00    -0.004 A 
ENDROOT
BRANCH   2   7
ATOM      7  C   UNL A   1     -28.107   0.843  26.579  0.00  0.00    +0.265 C 
ATOM      8  O   UNL A   1     -29.161   1.283  26.878  0.00  0.00    -0.268 OA
ATOM      9  N   UNL A   1     -27.938   0.384  25.308  0.00  0.00    -0.200 NA
ATOM     10  C   UNL A   1     -28.938   0.323  24.314  0.00  0.00    +0.139 C 
ENDBRANCH   2   7
BRANCH   4  11
ATOM     11  C   UNL A   1     -23.452   2.189  27.608  0.00  0.00    +0.388 C 
ATOM     12  O   UNL A   1     -22.579   2.258  28.496  0.00  0.00    -0.241 OA
ATOM     13  O   UNL A   1     -23.396   2.828  26.493  0.00  0.00    -0.241 OA
ENDBRANCH   4  11
BRANCH   1  14
ATOM     14  C   UNL A   1     -28.016  -0.814  28.878  0.00  0.00    +0.035 C 
BRANCH  14  15
ATOM     15  C   UNL A   1     -28.694  -0.473  30.159  0.00  0.00    +0.049 C 
BRANCH  15  16
ATOM     16  C   UNL A   1     -29.787  -1.325  30.637  0.00  0.00    -0.018 A 
ATOM     17  C   UNL A   1     -30.002  -2.292  30.096  0.00  0.00    -0.004 A 
ATOM     18  C   UNL A   1     -31.200  -3.045  30.579  0.00  0.00    -0.000 A 
ATOM     19  C   UNL A   1     -31.896  -2.607  31.599  0.00  0.00    -0.000 A 
ATOM     20  C   UNL A   1     -31.593  -1.450  32.229  0.00  0.00    -0.000 A 
ATOM     21  C   UNL A   1     -30.513  -0.704  31.763  0.00  0.00    -0.004 A 
ENDBRANCH  15  16
BRANCH  15  22
ATOM     22  C   UNL A   1     -28.259   0.692  30.960  0.00  0.00    -0.022 C 
ATOM     23  C   UNL A   1     -27.573   1.659  30.780  0.00  0.00    -0.004 C 
BRANCH  23  24
ATOM     24  C   UNL A   1     -27.383   2.704  31.736  0.00  0.00    -0.000 C 
ATOM     25  C   UNL A   1     -28.005   2.609  32.907  0.00  0.00    -0.000 C 
ENDBRANCH  23  24
ENDBRANCH  15  22
ENDBRANCH  14  15
ENDBRANCH   1  14
TORSDOF 7
