MODEL 2363
MODEL 1
REMARK VINA RESULT:    -5.235      0.000      0.000
REMARK INTER + INTRA:          -5.644
REMARK INTER:                  -5.542
REMARK INTRA:                  -0.102
REMARK UNBOUND:                -0.102
REMARK  Name = No_2363-gen_results/8p0m/2024-11-26-14-13-15/
REMARK  1 active torsions:
REMARK  status: ('A' for Active; 'I' for Inactive)
REMARK    1  A    between atoms: C_5  and  C_7
REMARK                            x       y       z     vdW  Elec       q    Type
REMARK                         _______ _______ _______ _____ _____    ______ ____
ROOT
ATOM      1  F   UNL A   1     -27.683  -3.748  30.376  0.00  0.00    -0.204 F 
ATOM      2  C   UNL A   1     -26.526  -3.851  29.949  0.00  0.00    +0.140 A 
ATOM      3  C   UNL A   1     -26.090  -4.891  29.537  0.00  0.00    +0.030 A 
ATOM      4  C   UNL A   1     -25.757  -2.597  29.842  0.00  0.00    +0.034 A 
ATOM      5  C   UNL A   1     -24.508  -2.633  29.152  0.00  0.00    +0.074 A 
ATOM      6  C   UNL A   1     -24.724  -5.067  28.857  0.00  0.00    +0.002 A 
ATOM      7  C   UNL A   1     -23.965  -3.859  28.676  0.00  0.00    +0.004 A 
ENDROOT
BRANCH   5   8
ATOM      8  C   UNL A   1     -23.676  -1.434  28.998  0.00  0.00    +0.419 C 
ATOM      9  F   UNL A   1     -23.936  -0.673  29.996  0.00  0.00    -0.166 F 
ATOM     10  F   UNL A   1     -24.044  -0.741  27.832  0.00  0.00    -0.166 F 
ATOM     11  F   UNL A   1     -22.393  -1.691  28.950  0.00  0.00    -0.166 F 
ENDBRANCH   5   8
TORSDOF 1
ENDMDL
ENDMDL
