REMARK  Name = No_2363-gen_results/8p0m/2024-11-26-14-13-15/
REMARK  1 active torsions:
REMARK  status: ('A' for Active; 'I' for Inactive)
REMARK    1  A    between atoms: C_5  and  C_7
REMARK                            x       y       z     vdW  Elec       q    Type
REMARK                         _______ _______ _______ _____ _____    ______ ____
ROOT
ATOM      1  F   UNL A   1     -28.073  -1.254  28.532  0.00  0.00    -0.204 F 
ATOM      2  C   UNL A   1     -27.061  -0.629  28.872  0.00  0.00    +0.140 A 
ATOM      3  C   UNL A   1     -26.153  -1.156  29.454  0.00  0.00    +0.030 A 
ATOM      4  C   UNL A   1     -26.968   0.765  28.400  0.00  0.00    +0.034 A 
ATOM      5  C   UNL A   1     -25.729   1.452  28.576  0.00  0.00    +0.074 A 
ATOM      6  C   UNL A   1     -24.807  -0.489  29.777  0.00  0.00    +0.002 A 
ATOM      7  C   UNL A   1     -24.649   0.852  29.282  0.00  0.00    +0.004 A 
ENDROOT
BRANCH   5   8
ATOM      8  C   UNL A   1     -25.546   2.840  28.138  0.00  0.00    +0.419 C 
ATOM      9  F   UNL A   1     -26.424   3.060  27.230  0.00  0.00    -0.166 F 
ATOM     10  F   UNL A   1     -24.280   2.994  27.546  0.00  0.00    -0.166 F 
ATOM     11  F   UNL A   1     -25.669   3.714  29.105  0.00  0.00    -0.166 F 
ENDBRANCH   5   8
TORSDOF 1
