MODEL 2364
MODEL 1
REMARK VINA RESULT:    -4.536      0.000      0.000
REMARK INTER + INTRA:          -4.867
REMARK INTER:                  -4.801
REMARK INTRA:                  -0.066
REMARK UNBOUND:                -0.066
REMARK  Name = No_2364-gen_results/8p0m/2024-11-26-14-13-15/
REMARK  1 active torsions:
REMARK  status: ('A' for Active; 'I' for Inactive)
REMARK    1  A    between atoms: C_5  and  C_9
REMARK                            x       y       z     vdW  Elec       q    Type
REMARK                         _______ _______ _______ _____ _____    ______ ____
ROOT
ATOM      1  O   UNL A   1     -26.842 -10.735  34.962  0.00  0.00    -0.249 OA
ATOM      2  C   UNL A   1     -27.210 -10.977  33.897  0.00  0.00    +0.340 C 
ATOM      3  N   UNL A   1     -28.166 -10.331  33.356  0.00  0.00    -0.172 NA
ATOM      4  C   UNL A   1     -28.885 -10.725  32.134  0.00  0.00    +0.188 C 
ATOM      5  C   UNL A   1     -28.380 -11.705  31.513  0.00  0.00    +0.160 C 
ATOM      6  N   UNL A   1     -26.755 -12.284  33.307  0.00  0.00    -0.186 NA
ATOM      7  C   UNL A   1     -27.413 -12.636  32.102  0.00  0.00    +0.131 C 
ATOM      8 CL   UNL A   1     -30.000  -9.712  31.475  0.00  0.00    -0.090 Cl
ENDROOT
BRANCH   5   9
ATOM      9  C   UNL A   1     -29.002 -12.167  30.215  0.00  0.00    +0.369 C 
ATOM     10  O   UNL A   1     -28.724 -11.637  29.082  0.00  0.00    -0.245 OA
ATOM     11  O   UNL A   1     -29.947 -13.129  30.278  0.00  0.00    -0.245 OA
ENDBRANCH   5   9
TORSDOF 1
ENDMDL
ENDMDL
