REMARK  Name = No_2364-gen_results/8p0m/2024-11-26-14-13-15/
REMARK  1 active torsions:
REMARK  status: ('A' for Active; 'I' for Inactive)
REMARK    1  A    between atoms: C_5  and  C_9
REMARK                            x       y       z     vdW  Elec       q    Type
REMARK                         _______ _______ _______ _____ _____    ______ ____
ROOT
ATOM      1  O   UNL A   1     -28.123  -1.335  28.487  0.00  0.00    -0.249 OA
ATOM      2  C   UNL A   1     -27.481  -0.404  28.709  0.00  0.00    +0.340 C 
ATOM      3  N   UNL A   1     -26.460  -0.110  28.005  0.00  0.00    -0.172 NA
ATOM      4  C   UNL A   1     -25.430   0.879  28.357  0.00  0.00    +0.188 C 
ATOM      5  C   UNL A   1     -25.698   1.587  29.371  0.00  0.00    +0.160 C 
ATOM      6  N   UNL A   1     -27.688   0.254  30.046  0.00  0.00    -0.186 NA
ATOM      7  C   UNL A   1     -26.724   1.244  30.360  0.00  0.00    +0.131 C 
ATOM      8 CL   UNL A   1     -24.249   1.254  27.277  0.00  0.00    -0.090 Cl
ENDROOT
BRANCH   5   9
ATOM      9  C   UNL A   1     -24.737   2.674  29.798  0.00  0.00    +0.369 C 
ATOM     10  O   UNL A   1     -23.712   3.008  29.106  0.00  0.00    -0.245 OA
ATOM     11  O   UNL A   1     -24.939   3.255  30.999  0.00  0.00    -0.245 OA
ENDBRANCH   5   9
TORSDOF 1
