MODEL 2365
MODEL 1
REMARK VINA RESULT:    -6.870      0.000      0.000
REMARK INTER + INTRA:         -10.964
REMARK INTER:                  -9.682
REMARK INTRA:                  -1.282
REMARK UNBOUND:                -1.282
REMARK  Name = No_2365-gen_results/8p0m/2024-11-26-14-13-15/
REMARK  7 active torsions:
REMARK  status: ('A' for Active; 'I' for Inactive)
REMARK    1  A    between atoms: C_1  and  C_2
REMARK    2  A    between atoms: C_1  and  N_8
REMARK    3  A    between atoms: C_5  and  C_17
REMARK    4  A    between atoms: C_9  and  C_10
REMARK    5  A    between atoms: C_10  and  C_11
REMARK    6  A    between atoms: N_18  and  C_21
REMARK    7  A    between atoms: C_21  and  C_22
REMARK                            x       y       z     vdW  Elec       q    Type
REMARK                         _______ _______ _______ _____ _____    ______ ____
ROOT
ATOM      1  C   UNL A   1     -24.230   0.231  32.024  0.00  0.00    -0.001 A 
ATOM      2  C   UNL A   1     -25.362   0.792  32.520  0.00  0.00    -0.003 A 
ATOM      3  C   UNL A   1     -25.976   0.438  33.819  0.00  0.00    +0.001 A 
ATOM      4  C   UNL A   1     -25.330  -0.587  34.584  0.00  0.00    +0.013 A 
ATOM      5  C   UNL A   1     -24.196  -1.197  34.001  0.00  0.00    +0.001 A 
ATOM      6  C   UNL A   1     -23.682  -0.815  32.789  0.00  0.00    -0.003 A 
ENDROOT
BRANCH   4   7
ATOM      7  C   UNL A   1     -25.844  -1.036  35.842  0.00  0.00    +0.054 C 
ATOM      8  N   UNL A   1     -25.359  -1.432  36.851  0.00  0.00    -0.275 NA
ATOM      9  C   UNL A   1     -27.335  -0.690  35.937  0.00  0.00    +0.052 C 
BRANCH   8  10
ATOM     10  C   UNL A   1     -24.594  -0.759  37.842  0.00  0.00    +0.125 C 
BRANCH  10  11
ATOM     11  C   UNL A   1     -24.877  -1.128  39.258  0.00  0.00    +0.026 C 
ATOM     12  C   UNL A   1     -25.883  -2.216  39.255  0.00  0.00    +0.002 C 
ENDBRANCH  10  11
ENDBRANCH   8  10
ENDBRANCH   4   7
BRANCH   1  13
ATOM     13  C   UNL A   1     -23.739   0.529  30.959  0.00  0.00    +0.141 C 
BRANCH  13  14
ATOM     14  N   UNL A   1     -22.644  -0.172  30.463  0.00  0.00    -0.200 NA
ATOM     15  C   UNL A   1     -22.620  -0.966  29.328  0.00  0.00    +0.246 C 
ATOM     16  O   UNL A   1     -21.461  -1.364  28.921  0.00  0.00    -0.273 OA
BRANCH  15  17
ATOM     17  C   UNL A   1     -23.674  -1.229  28.705  0.00  0.00    +0.113 C 
BRANCH  17  18
ATOM     18  C   UNL A   1     -24.271  -2.486  29.002  0.00  0.00    -0.013 A 
ATOM     19  C   UNL A   1     -23.947  -3.354  28.624  0.00  0.00    -0.004 A 
ATOM     20  C   UNL A   1     -24.523  -4.702  28.909  0.00  0.00    -0.000 A 
ATOM     21  C   UNL A   1     -25.756  -4.663  29.520  0.00  0.00    -0.000 A 
ATOM     22  C   UNL A   1     -26.329  -3.525  29.899  0.00  0.00    -0.000 A 
ATOM     23  C   UNL A   1     -25.610  -2.366  29.618  0.00  0.00    -0.004 A 
ENDBRANCH  17  18
ENDBRANCH  15  17
ENDBRANCH  13  14
ENDBRANCH   1  13
TORSDOF 7
ENDMDL
ENDMDL
