REMARK  Name = No_2367-gen_results/8p0m/2024-11-26-14-13-15/
REMARK  4 active torsions:
REMARK  status: ('A' for Active; 'I' for Inactive)
REMARK    1  A    between atoms: C_3  and  C_5
REMARK    2  A    between atoms: C_6  and  C_20
REMARK    3  A    between atoms: C_9  and  C_10
REMARK    4  A    between atoms: C_14  and  C_17
REMARK                            x       y       z     vdW  Elec       q    Type
REMARK                         _______ _______ _______ _____ _____    ______ ____
ROOT
ATOM      1  C   UNL A   1     -27.651   0.126  30.880  0.00  0.00    -0.017 C 
ATOM      2  C   UNL A   1     -28.609   0.656  31.375  0.00  0.00    -0.002 C 
ENDROOT
BRANCH   1   5
ATOM      3  O   UNL A   1     -28.123  -1.335  28.487  0.00  0.00    -0.273 OA
ATOM      4  C   UNL A   1     -27.481  -0.404  28.709  0.00  0.00    +0.245 C 
ATOM      5  C   UNL A   1     -27.190   0.246  29.527  0.00  0.00    +0.100 C 
ATOM      6  N   UNL A   1     -26.687  -0.000  27.442  0.00  0.00    -0.202 NA
ATOM      7  C   UNL A   1     -25.751   1.005  27.434  0.00  0.00    +0.117 C 
ATOM      8  C   UNL A   1     -25.554   1.702  28.601  0.00  0.00    +0.027 C 
ATOM      9  C   UNL A   1     -26.149   1.378  29.667  0.00  0.00    +0.016 C 
BRANCH   7  10
ATOM     10  C   UNL A   1     -25.154   1.286  26.152  0.00  0.00    -0.009 C 
ATOM     11  C   UNL A   1     -24.158   2.284  26.117  0.00  0.00    -0.029 C 
ATOM     12  C   UNL A   1     -23.896   3.052  27.307  0.00  0.00    +0.030 C 
ENDBRANCH   7  10
ENDBRANCH   1   5
BRANCH   2  13
ATOM     13  C   UNL A   1     -29.229   1.772  30.633  0.00  0.00    +0.027 A 
ATOM     14  C   UNL A   1     -30.323   2.479  31.255  0.00  0.00    +0.002 A 
ATOM     15  C   UNL A   1     -30.911   3.539  30.587  0.00  0.00    -0.000 A 
ATOM     16  C   UNL A   1     -30.456   3.874  29.274  0.00  0.00    -0.001 A 
ATOM     17  C   UNL A   1     -29.424   3.138  28.688  0.00  0.00    +0.023 A 
ATOM     18  C   UNL A   1     -28.855   2.158  29.357  0.00  0.00    +0.137 A 
ATOM     19  F   UNL A   1     -28.998   0.971  28.557  0.00  0.00    -0.204 F 
BRANCH  17  20
ATOM     20  C   UNL A   1     -29.087   3.574  27.321  0.00  0.00    +0.116 C 
ATOM     21  N   UNL A   1     -27.990   4.103  27.125  0.00  0.00    -0.128 NA
ATOM     22  C   UNL A   1     -29.924   3.185  26.261  0.00  0.00    +0.025 C 
ENDBRANCH  17  20
ENDBRANCH   2  13
TORSDOF 4
