MODEL 2367
MODEL 1
REMARK VINA RESULT:    -6.765      0.000      0.000
REMARK INTER + INTRA:          -8.691
REMARK INTER:                  -8.347
REMARK INTRA:                  -0.344
REMARK UNBOUND:                -0.344
REMARK  Name = No_2367-gen_results/8p0m/2024-11-26-14-13-15/
REMARK  4 active torsions:
REMARK  status: ('A' for Active; 'I' for Inactive)
REMARK    1  A    between atoms: C_3  and  C_5
REMARK    2  A    between atoms: C_6  and  C_20
REMARK    3  A    between atoms: C_9  and  C_10
REMARK    4  A    between atoms: C_14  and  C_17
REMARK                            x       y       z     vdW  Elec       q    Type
REMARK                         _______ _______ _______ _____ _____    ______ ____
ROOT
ATOM      1  C   UNL A   1     -23.886   1.107  31.173  0.00  0.00    -0.017 C 
ATOM      2  C   UNL A   1     -24.397   0.273  31.871  0.00  0.00    -0.002 C 
ENDROOT
BRANCH   1   5
ATOM      3  O   UNL A   1     -21.837   0.070  29.496  0.00  0.00    -0.273 OA
ATOM      4  C   UNL A   1     -22.833   0.601  29.260  0.00  0.00    +0.245 C 
ATOM      5  C   UNL A   1     -23.686   1.053  29.754  0.00  0.00    +0.100 C 
ATOM      6  N   UNL A   1     -22.950   0.842  27.735  0.00  0.00    -0.202 NA
ATOM      7  C   UNL A   1     -23.977   1.555  27.167  0.00  0.00    +0.117 C 
ATOM      8  C   UNL A   1     -24.959   2.033  28.001  0.00  0.00    +0.027 C 
ATOM      9  C   UNL A   1     -24.880   1.895  29.254  0.00  0.00    +0.016 C 
BRANCH   7  10
ATOM     10  C   UNL A   1     -23.960   1.628  25.727  0.00  0.00    -0.009 C 
ATOM     11  C   UNL A   1     -24.796   0.728  25.033  0.00  0.00    -0.029 C 
ATOM     12  C   UNL A   1     -25.499  -0.287  25.775  0.00  0.00    +0.030 C 
ENDBRANCH   7  10
ENDBRANCH   1   5
BRANCH   2  13
ATOM     13  C   UNL A   1     -25.168  -0.795  31.203  0.00  0.00    +0.027 A 
ATOM     14  C   UNL A   1     -26.604  -0.790  31.348  0.00  0.00    +0.002 A 
ATOM     15  C   UNL A   1     -27.351  -1.771  30.719  0.00  0.00    -0.000 A 
ATOM     16  C   UNL A   1     -26.678  -2.797  29.985  0.00  0.00    -0.001 A 
ATOM     17  C   UNL A   1     -25.284  -2.791  29.905  0.00  0.00    +0.023 A 
ATOM     18  C   UNL A   1     -24.597  -1.828  30.480  0.00  0.00    +0.137 A 
ATOM     19  F   UNL A   1     -23.684  -2.458  31.396  0.00  0.00    -0.204 F 
BRANCH  17  20
ATOM     20  C   UNL A   1     -24.729  -3.928  29.147  0.00  0.00    +0.116 C 
ATOM     21  N   UNL A   1     -23.678  -3.763  28.524  0.00  0.00    -0.128 NA
ATOM     22  C   UNL A   1     -25.292  -5.202  29.331  0.00  0.00    +0.025 C 
ENDBRANCH  17  20
ENDBRANCH   2  13
TORSDOF 4
ENDMDL
ENDMDL
