REMARK  Name = No_2368-gen_results/8p0m/2024-11-26-14-13-15/
REMARK  0 active torsions:
REMARK  status: ('A' for Active; 'I' for Inactive)
REMARK                            x       y       z     vdW  Elec       q    Type
REMARK                         _______ _______ _______ _____ _____    ______ ____
ROOT
ATOM      1  C   UNL A   1     -28.016  -0.814  28.878  0.00  0.00    +0.030 A 
ATOM      2  C   UNL A   1     -28.469  -0.785  29.829  0.00  0.00    +0.002 A 
ATOM      3  C   UNL A   1     -28.196   0.348  28.055  0.00  0.00    +0.140 A 
ATOM      4  C   UNL A   1     -29.019   1.350  28.378  0.00  0.00    +0.030 A 
ATOM      5  C   UNL A   1     -29.625   1.268  29.601  0.00  0.00    +0.002 A 
ATOM      6  C   UNL A   1     -29.379   0.147  30.392  0.00  0.00    +0.000 A 
ATOM      7  F   UNL A   1     -27.542   0.340  26.847  0.00  0.00    -0.204 F 
ENDROOT
TORSDOF 0
