MODEL 2368
MODEL 1
REMARK VINA RESULT:    -4.628      0.000      0.000
REMARK INTER + INTRA:          -4.628
REMARK INTER:                  -4.628
REMARK INTRA:                   0.000
REMARK UNBOUND:                 0.000
REMARK  Name = No_2368-gen_results/8p0m/2024-11-26-14-13-15/
REMARK  0 active torsions:
REMARK  status: ('A' for Active; 'I' for Inactive)
REMARK                            x       y       z     vdW  Elec       q    Type
REMARK                         _______ _______ _______ _____ _____    ______ ____
ROOT
ATOM      1  C   UNL A   1      -9.372  -9.183  20.226  0.00  0.00    +0.030 A 
ATOM      2  C   UNL A   1     -10.103  -9.205  19.467  0.00  0.00    +0.002 A 
ATOM      3  C   UNL A   1      -8.143  -9.867  19.942  0.00  0.00    +0.140 A 
ATOM      4  C   UNL A   1      -7.969 -10.635  18.863  0.00  0.00    +0.030 A 
ATOM      5  C   UNL A   1      -9.001 -10.666  17.966  0.00  0.00    +0.002 A 
ATOM      6  C   UNL A   1     -10.156  -9.941  18.255  0.00  0.00    +0.000 A 
ATOM      7  F   UNL A   1      -7.164  -9.773  20.901  0.00  0.00    -0.204 F 
ENDROOT
TORSDOF 0
ENDMDL
ENDMDL
