MODEL 2369
MODEL 1
REMARK VINA RESULT:    -4.953      0.000      0.000
REMARK INTER + INTRA:          -5.263
REMARK INTER:                  -5.243
REMARK INTRA:                  -0.020
REMARK UNBOUND:                -0.020
REMARK  Name = No_2369-gen_results/8p0m/2024-11-26-14-13-15/
REMARK  1 active torsions:
REMARK  status: ('A' for Active; 'I' for Inactive)
REMARK    1  A    between atoms: C_3  and  C_7
REMARK                            x       y       z     vdW  Elec       q    Type
REMARK                         _______ _______ _______ _____ _____    ______ ____
ROOT
ATOM      1  C   UNL A   1     -25.689  -2.659  29.951  0.00  0.00    -0.000 A 
ATOM      2  C   UNL A   1     -26.304  -3.514  29.971  0.00  0.00    -0.000 A 
ATOM      3  C   UNL A   1     -24.447  -2.788  29.242  0.00  0.00    -0.000 A 
ATOM      4  C   UNL A   1     -23.995  -3.954  28.770  0.00  0.00    -0.000 A 
ATOM      5  C   UNL A   1     -26.013  -4.876  29.545  0.00  0.00    -0.000 A 
ATOM      6  C   UNL A   1     -24.858  -5.017  28.908  0.00  0.00    -0.000 A 
ENDROOT
BRANCH   3   7
ATOM      7  C   UNL A   1     -23.586  -1.523  29.098  0.00  0.00    -0.005 C 
ATOM      8  C   UNL A   1     -23.806  -0.614  28.391  0.00  0.00    -0.026 C 
ATOM      9  C   UNL A   1     -24.935  -0.688  27.527  0.00  0.00    +0.031 C 
ENDBRANCH   3   7
TORSDOF 1
ENDMDL
ENDMDL
