MODEL 236
MODEL 1
REMARK VINA RESULT:    -6.579      0.000      0.000
REMARK INTER + INTRA:          -7.228
REMARK INTER:                  -6.963
REMARK INTRA:                  -0.265
REMARK UNBOUND:                -0.265
REMARK  Name = No_236-gen_results/8p0m/2024-11-26-14-13-15/
REMARK  1 active torsions:
REMARK  status: ('A' for Active; 'I' for Inactive)
REMARK    1  A    between atoms: C_4  and  C_7
REMARK                            x       y       z     vdW  Elec       q    Type
REMARK                         _______ _______ _______ _____ _____    ______ ____
ROOT
ATOM      1  C   UNL A   1     -24.000   0.376  27.528  0.00  0.00    +0.011 A 
ATOM      2  C   UNL A   1     -23.029   0.563  27.892  0.00  0.00    +0.058 A 
ATOM      3  C   UNL A   1     -24.598  -0.955  27.925  0.00  0.00    +0.001 A 
ATOM      4  C   UNL A   1     -23.909  -1.775  28.844  0.00  0.00    -0.000 A 
ATOM      5  C   UNL A   1     -22.126  -0.090  28.867  0.00  0.00    +0.011 A 
ATOM      6  C   UNL A   1     -22.646  -1.315  29.260  0.00  0.00    +0.001 A 
ATOM      7 CL   UNL A   1     -22.289   2.166  27.356  0.00  0.00    -0.082 Cl
ENDROOT
BRANCH   4   8
ATOM      8  C   UNL A   1     -24.415  -3.045  29.240  0.00  0.00    -0.004 C 
ATOM      9  C   UNL A   1     -25.644  -3.289  29.430  0.00  0.00    -0.021 C 
ATOM     10  C   UNL A   1     -26.166  -4.640  29.705  0.00  0.00    +0.052 C 
ATOM     11  C   UNL A   1     -23.992  -4.298  28.585  0.00  0.00    -0.004 C 
ATOM     12  C   UNL A   1     -25.128  -5.324  29.080  0.00  0.00    -0.021 C 
ENDBRANCH   4   8
TORSDOF 1
ENDMDL
ENDMDL
