REMARK  Name = No_237-gen_results/8p0m/2024-11-26-14-13-15/
REMARK  5 active torsions:
REMARK  status: ('A' for Active; 'I' for Inactive)
REMARK    1  A    between atoms: C_2  and  O_8
REMARK    2  A    between atoms: O_8  and  C_9
REMARK    3  A    between atoms: C_13  and  C_16
REMARK    4  A    between atoms: C_16  and  N_17
REMARK    5  A    between atoms: N_17  and  C_18
REMARK                            x       y       z     vdW  Elec       q    Type
REMARK                         _______ _______ _______ _____ _____    ______ ____
ROOT
ATOM      1  C   UNL A   1     -30.587  -1.738  30.280  0.00  0.00    +0.145 A 
ATOM      2  C   UNL A   1     -31.206  -2.984  30.205  0.00  0.00    +0.041 A 
ATOM      3  C   UNL A   1     -32.212  -3.133  30.528  0.00  0.00    +0.045 A 
ATOM      4  C   UNL A   1     -33.103  -1.949  30.858  0.00  0.00    +0.194 A 
ATOM      5  C   UNL A   1     -32.529  -0.756  30.910  0.00  0.00    +0.041 A 
ATOM      6  C   UNL A   1     -31.187  -0.625  30.700  0.00  0.00    +0.038 A 
ATOM      7  O   UNL A   1     -34.433  -2.173  31.136  0.00  0.00    -0.287 OA
ENDROOT
BRANCH   1   8
ATOM      8  O   UNL A   1     -29.379  -1.899  30.167  0.00  0.00    -0.454 OA
BRANCH   8  10
ATOM      9  C   UNL A   1     -28.016  -0.814  28.878  0.00  0.00    +0.049 A 
ATOM     10  C   UNL A   1     -28.469  -0.785  29.829  0.00  0.00    +0.146 A 
ATOM     11  C   UNL A   1     -27.087   0.290  28.638  0.00  0.00    +0.061 A 
ATOM     12  C   UNL A   1     -26.832   1.249  29.587  0.00  0.00    +0.012 A 
ATOM     13  C   UNL A   1     -28.391   0.080  31.006  0.00  0.00    +0.037 A 
ATOM     14  C   UNL A   1     -27.494   1.152  30.784  0.00  0.00    +0.004 A 
ATOM     15 CL   UNL A   1     -26.209   0.394  27.165  0.00  0.00    -0.082 Cl
ENDBRANCH   8  10
ENDBRANCH   1   8
BRANCH   5  16
ATOM     16  C   UNL A   1     -33.291   0.451  31.329  0.00  0.00    +0.142 C 
BRANCH  16  17
ATOM     17  N   UNL A   1     -32.904   1.562  31.037  0.00  0.00    -0.231 NA
BRANCH  17  18
ATOM     18  C   UNL A   1     -33.549   2.680  30.924  0.00  0.00    +0.081 C 
ATOM     19  C   UNL A   1     -32.906   3.922  30.547  0.00  0.00    +0.019 C 
ENDBRANCH  17  18
ENDBRANCH  16  17
ENDBRANCH   5  16
TORSDOF 5
