MODEL 2370
MODEL 1
REMARK VINA RESULT:    -3.688      0.000      0.000
REMARK INTER + INTRA:          -4.449
REMARK INTER:                  -4.335
REMARK INTRA:                  -0.114
REMARK UNBOUND:                -0.114
REMARK  Name = No_2370-gen_results/8p0m/2024-11-26-14-13-15/
REMARK  3 active torsions:
REMARK  status: ('A' for Active; 'I' for Inactive)
REMARK    1  A    between atoms: C_2  and  C_3
REMARK    2  A    between atoms: C_3  and  C_4
REMARK    3  A    between atoms: C_5  and  C_6
REMARK                            x       y       z     vdW  Elec       q    Type
REMARK                         _______ _______ _______ _____ _____    ______ ____
ROOT
ATOM      1  C   UNL A   1     -24.729  -2.241  28.491  0.00  0.00    -0.025 C 
ATOM      2  C   UNL A   1     -24.133  -1.036  28.653  0.00  0.00    -0.018 C 
ENDROOT
BRANCH   2   3
ATOM      3  C   UNL A   1     -23.077  -0.863  29.510  0.00  0.00    +0.094 C 
ATOM      4  S   UNL A   1     -21.520  -0.343  28.995  0.00  0.00    -0.077 S 
ENDBRANCH   2   3
BRANCH   1   5
ATOM      5  C   UNL A   1     -24.155  -3.320  29.230  0.00  0.00    +0.052 C 
BRANCH   5   7
ATOM      6  C   UNL A   1     -24.826  -5.466  29.044  0.00  0.00    -0.005 C 
ATOM      7  C   UNL A   1     -24.177  -4.508  28.695  0.00  0.00    -0.021 C 
ENDBRANCH   5   7
ENDBRANCH   1   5
TORSDOF 3
ENDMDL
ENDMDL
