REMARK  Name = No_2370-gen_results/8p0m/2024-11-26-14-13-15/
REMARK  3 active torsions:
REMARK  status: ('A' for Active; 'I' for Inactive)
REMARK    1  A    between atoms: C_2  and  C_3
REMARK    2  A    between atoms: C_3  and  C_4
REMARK    3  A    between atoms: C_5  and  C_6
REMARK                            x       y       z     vdW  Elec       q    Type
REMARK                         _______ _______ _______ _____ _____    ______ ____
ROOT
ATOM      1  C   UNL A   1     -27.901   1.807  29.644  0.00  0.00    -0.025 C 
ATOM      2  C   UNL A   1     -28.945   1.039  30.036  0.00  0.00    -0.018 C 
ENDROOT
BRANCH   2   3
ATOM      3  C   UNL A   1     -29.027  -0.289  29.705  0.00  0.00    +0.094 C 
ATOM      4  S   UNL A   1     -30.329  -1.303  30.192  0.00  0.00    -0.077 S 
ENDBRANCH   2   3
BRANCH   1   5
ATOM      5  C   UNL A   1     -26.876   1.133  28.913  0.00  0.00    +0.052 C 
BRANCH   5   7
ATOM      6  C   UNL A   1     -28.016  -0.814  28.878  0.00  0.00    -0.005 C 
ATOM      7  C   UNL A   1     -27.064  -0.119  28.608  0.00  0.00    -0.021 C 
ENDBRANCH   5   7
ENDBRANCH   1   5
TORSDOF 3
