MODEL 2371
MODEL 1
REMARK VINA RESULT:    -7.830      0.000      0.000
REMARK INTER + INTRA:         -11.031
REMARK INTER:                  -9.662
REMARK INTRA:                  -1.370
REMARK UNBOUND:                -1.370
REMARK  Name = No_2371-gen_results/8p0m/2024-11-26-14-13-15/
REMARK  4 active torsions:
REMARK  status: ('A' for Active; 'I' for Inactive)
REMARK    1  A    between atoms: C_3  and  C_4
REMARK    2  A    between atoms: C_4  and  C_15
REMARK    3  A    between atoms: C_5  and  C_6
REMARK    4  A    between atoms: C_13  and  C_16
REMARK                            x       y       z     vdW  Elec       q    Type
REMARK                         _______ _______ _______ _____ _____    ______ ____
ROOT
ATOM      1  C   UNL A   1     -24.527  -1.363  30.049  0.00  0.00    -0.022 C 
ATOM      2  C   UNL A   1     -24.056  -0.558  29.520  0.00  0.00    -0.004 C 
ENDROOT
BRANCH   1   5
ATOM      3  C   UNL A   1     -25.997  -3.460  30.036  0.00  0.00    -0.000 A 
ATOM      4  C   UNL A   1     -26.109  -4.401  29.575  0.00  0.00    -0.000 A 
ATOM      5  C   UNL A   1     -24.757  -2.768  29.661  0.00  0.00    -0.004 A 
ATOM      6  C   UNL A   1     -25.215  -5.268  28.868  0.00  0.00    -0.000 A 
ATOM      7  C   UNL A   1     -23.814  -3.465  28.962  0.00  0.00    -0.000 A 
ATOM      8  C   UNL A   1     -24.068  -4.704  28.554  0.00  0.00    -0.000 A 
ENDBRANCH   1   5
BRANCH   2   9
ATOM      9  C   UNL A   1     -24.002   0.224  28.499  0.00  0.00    -0.000 A 
ATOM     10  C   UNL A   1     -22.981   1.122  28.231  0.00  0.00    -0.000 A 
ATOM     11  C   UNL A   1     -22.854   1.963  27.093  0.00  0.00    -0.000 A 
ATOM     12  C   UNL A   1     -23.560   1.576  25.954  0.00  0.00    +0.004 A 
ATOM     13  C   UNL A   1     -24.565   0.571  26.066  0.00  0.00    +0.071 A 
ATOM     14  C   UNL A   1     -24.782  -0.116  27.259  0.00  0.00    +0.004 A 
BRANCH  13  15
ATOM     15  C   UNL A   1     -25.380   0.295  24.867  0.00  0.00    +0.419 C 
ATOM     16  F   UNL A   1     -26.287   1.011  24.782  0.00  0.00    -0.166 F 
ATOM     17  F   UNL A   1     -24.599   0.388  23.686  0.00  0.00    -0.166 F 
ATOM     18  F   UNL A   1     -25.701  -1.064  24.748  0.00  0.00    -0.166 F 
ENDBRANCH  13  15
ENDBRANCH   2   9
BRANCH   1  19
ATOM     19  C   UNL A   1     -25.352  -1.122  31.315  0.00  0.00    +0.026 C 
ATOM     20  C   UNL A   1     -24.465  -0.782  32.497  0.00  0.00    +0.005 C 
ENDBRANCH   1  19
TORSDOF 4
ENDMDL
ENDMDL
