REMARK  Name = No_2371-gen_results/8p0m/2024-11-26-14-13-15/
REMARK  4 active torsions:
REMARK  status: ('A' for Active; 'I' for Inactive)
REMARK    1  A    between atoms: C_3  and  C_4
REMARK    2  A    between atoms: C_4  and  C_15
REMARK    3  A    between atoms: C_5  and  C_6
REMARK    4  A    between atoms: C_13  and  C_16
REMARK                            x       y       z     vdW  Elec       q    Type
REMARK                         _______ _______ _______ _____ _____    ______ ____
ROOT
ATOM      1  C   UNL A   1     -27.450   0.643  26.850  0.00  0.00    -0.022 C 
ATOM      2  C   UNL A   1     -26.453   0.994  26.668  0.00  0.00    -0.004 C 
ENDROOT
BRANCH   1   5
ATOM      3  C   UNL A   1     -28.016  -0.814  28.878  0.00  0.00    -0.000 A 
ATOM      4  C   UNL A   1     -28.469  -0.785  29.829  0.00  0.00    -0.000 A 
ATOM      5  C   UNL A   1     -28.182   0.428  28.113  0.00  0.00    -0.004 A 
ATOM      6  C   UNL A   1     -29.421   0.090  30.445  0.00  0.00    -0.000 A 
ATOM      7  C   UNL A   1     -29.046   1.371  28.590  0.00  0.00    -0.000 A 
ATOM      8  C   UNL A   1     -29.639   1.197  29.767  0.00  0.00    -0.000 A 
ENDBRANCH   1   5
BRANCH   2   9
ATOM      9  C   UNL A   1     -25.181   0.862  26.816  0.00  0.00    -0.000 A 
ATOM     10  C   UNL A   1     -24.219   1.677  26.240  0.00  0.00    -0.000 A 
ATOM     11  C   UNL A   1     -22.812   1.602  26.418  0.00  0.00    -0.000 A 
ATOM     12  C   UNL A   1     -22.366   0.954  27.570  0.00  0.00    +0.004 A 
ATOM     13  C   UNL A   1     -23.286   0.171  28.328  0.00  0.00    +0.071 A 
ATOM     14  C   UNL A   1     -24.643   0.129  28.013  0.00  0.00    +0.004 A 
BRANCH  13  15
ATOM     15  C   UNL A   1     -22.740  -0.608  29.456  0.00  0.00    +0.419 C 
ATOM     16  F   UNL A   1     -21.663  -0.981  29.247  0.00  0.00    -0.166 F 
ATOM     17  F   UNL A   1     -22.746   0.154  30.653  0.00  0.00    -0.166 F 
ATOM     18  F   UNL A   1     -23.625  -1.605  29.888  0.00  0.00    -0.166 F 
ENDBRANCH  13  15
ENDBRANCH   2   9
BRANCH   1  19
ATOM     19  C   UNL A   1     -28.291  -0.002  25.746  0.00  0.00    +0.026 C 
ATOM     20  C   UNL A   1     -29.299   0.977  25.174  0.00  0.00    +0.005 C 
ENDBRANCH   1  19
TORSDOF 4
