MODEL 2372
MODEL 1
REMARK VINA RESULT:    -5.237      0.000      0.000
REMARK INTER + INTRA:          -5.237
REMARK INTER:                  -5.237
REMARK INTRA:                   0.000
REMARK UNBOUND:                 0.000
REMARK  Name = No_2372-gen_results/8p0m/2024-11-26-14-13-15/
REMARK  0 active torsions:
REMARK  status: ('A' for Active; 'I' for Inactive)
REMARK                            x       y       z     vdW  Elec       q    Type
REMARK                         _______ _______ _______ _____ _____    ______ ____
ROOT
ATOM      1  C   UNL A   1      -9.582 -10.015  17.983  0.00  0.00    +0.030 C 
ATOM      2  C   UNL A   1     -10.060 -10.562  17.219  0.00  0.00    +0.125 C 
ATOM      3  C   UNL A   1     -10.413  -9.592  19.074  0.00  0.00    +0.033 C 
ATOM      4  C   UNL A   1      -9.822  -9.004  20.294  0.00  0.00    +0.005 C 
ATOM      5  C   UNL A   1      -8.526  -9.392  20.682  0.00  0.00    +0.001 C 
ATOM      6  C   UNL A   1      -7.757 -10.179  19.800  0.00  0.00    +0.005 C 
ATOM      7  C   UNL A   1      -8.257 -10.574  18.615  0.00  0.00    +0.033 C 
ATOM      8  O   UNL A   1     -11.074 -10.347  16.670  0.00  0.00    -0.232 OA
ENDROOT
TORSDOF 0
ENDMDL
ENDMDL
