REMARK  Name = No_2373-gen_results/8p0m/2024-11-26-14-13-15/
REMARK  5 active torsions:
REMARK  status: ('A' for Active; 'I' for Inactive)
REMARK    1  A    between atoms: C_3  and  C_7
REMARK    2  A    between atoms: C_8  and  C_13
REMARK    3  A    between atoms: N_14  and  C_15
REMARK    4  A    between atoms: C_15  and  C_17
REMARK    5  A    between atoms: C_17  and  C_20
REMARK                            x       y       z     vdW  Elec       q    Type
REMARK                         _______ _______ _______ _____ _____    ______ ____
ROOT
ATOM      1  C   UNL A   1     -29.365   0.746  25.355  0.00  0.00    +0.265 C 
ATOM      2  N   UNL A   1     -30.188   0.150  25.936  0.00  0.00    -0.203 NA
ATOM      3  O   UNL A   1     -29.732   1.621  24.545  0.00  0.00    -0.268 OA
ENDROOT
BRANCH   1   5
ATOM      4  C   UNL A   1     -27.460   0.380  26.709  0.00  0.00    +0.004 A 
ATOM      5  C   UNL A   1     -27.930   0.584  25.680  0.00  0.00    +0.055 A 
ATOM      6  C   UNL A   1     -27.125   0.528  24.426  0.00  0.00    +0.005 A 
ATOM      7  C   UNL A   1     -26.035   0.137  26.781  0.00  0.00    +0.000 A 
ATOM      8  C   UNL A   1     -25.168   0.214  25.726  0.00  0.00    +0.000 A 
ATOM      9  C   UNL A   1     -25.762   0.353  24.524  0.00  0.00    +0.000 A 
BRANCH   4  12
ATOM     10  C   UNL A   1     -28.016  -0.814  28.878  0.00  0.00    +0.000 A 
ATOM     11  C   UNL A   1     -28.469  -0.785  29.829  0.00  0.00    +0.000 A 
ATOM     12  C   UNL A   1     -28.196   0.348  28.055  0.00  0.00    +0.000 A 
ATOM     13  C   UNL A   1     -29.019   1.350  28.378  0.00  0.00    +0.000 A 
ATOM     14  C   UNL A   1     -29.411   0.180  30.378  0.00  0.00    +0.000 A 
ATOM     15  C   UNL A   1     -29.606   1.250  29.619  0.00  0.00    +0.000 A 
ENDBRANCH   4  12
ENDBRANCH   1   5
BRANCH   2  16
ATOM     16  C   UNL A   1     -31.306  -0.337  25.506  0.00  0.00    +0.097 C 
ATOM     17  C   UNL A   1     -31.091  -1.297  24.362  0.00  0.00    +0.023 C 
ATOM     18  C   UNL A   1     -32.219   0.831  25.003  0.00  0.00    +0.023 C 
BRANCH  16  19
ATOM     19  C   UNL A   1     -32.124  -1.027  26.480  0.00  0.00    +0.120 C 
ATOM     20 CL   UNL A   1     -32.412  -2.688  26.271  0.00  0.00    -0.108 Cl
BRANCH  19  21
ATOM     21  C   UNL A   1     -32.472  -0.510  27.669  0.00  0.00    -0.006 A 
ATOM     22  C   UNL A   1     -32.979  -1.220  28.764  0.00  0.00    -0.003 A 
ATOM     23  C   UNL A   1     -33.385  -0.593  29.928  0.00  0.00    -0.000 A 
ATOM     24  C   UNL A   1     -33.504   0.816  29.972  0.00  0.00    -0.000 A 
ATOM     25  C   UNL A   1     -33.087   1.566  28.864  0.00  0.00    -0.000 A 
ATOM     26  C   UNL A   1     -32.604   0.939  27.758  0.00  0.00    -0.003 A 
ENDBRANCH  19  21
ENDBRANCH  16  19
ENDBRANCH   2  16
TORSDOF 5
