MODEL 2373
MODEL 1
REMARK VINA RESULT:    -7.858      0.000      0.000
REMARK INTER + INTRA:         -11.189
REMARK INTER:                 -10.155
REMARK INTRA:                  -1.034
REMARK UNBOUND:                -1.034
REMARK  Name = No_2373-gen_results/8p0m/2024-11-26-14-13-15/
REMARK  5 active torsions:
REMARK  status: ('A' for Active; 'I' for Inactive)
REMARK    1  A    between atoms: C_3  and  C_7
REMARK    2  A    between atoms: C_8  and  C_13
REMARK    3  A    between atoms: N_14  and  C_15
REMARK    4  A    between atoms: C_15  and  C_17
REMARK    5  A    between atoms: C_17  and  C_20
REMARK                            x       y       z     vdW  Elec       q    Type
REMARK                         _______ _______ _______ _____ _____    ______ ____
ROOT
ATOM      1  C   UNL A   1     -23.886   0.744  27.144  0.00  0.00    +0.265 C 
ATOM      2  N   UNL A   1     -23.810  -0.095  27.957  0.00  0.00    -0.203 NA
ATOM      3  O   UNL A   1     -22.868   1.422  26.899  0.00  0.00    -0.268 OA
ENDROOT
BRANCH   1   5
ATOM      4  C   UNL A   1     -25.783   1.821  26.227  0.00  0.00    +0.004 A 
ATOM      5  C   UNL A   1     -25.103   0.898  26.315  0.00  0.00    +0.055 A 
ATOM      6  C   UNL A   1     -25.260  -0.279  25.413  0.00  0.00    +0.005 A 
ATOM      7  C   UNL A   1     -26.860   1.795  25.261  0.00  0.00    +0.000 A 
ATOM      8  C   UNL A   1     -27.201   0.719  24.489  0.00  0.00    +0.000 A 
ATOM      9  C   UNL A   1     -26.326  -0.305  24.542  0.00  0.00    +0.000 A 
BRANCH   4  12
ATOM     10  C   UNL A   1     -24.918   4.192  26.495  0.00  0.00    +0.000 A 
ATOM     11  C   UNL A   1     -24.920   5.092  27.042  0.00  0.00    +0.000 A 
ATOM     12  C   UNL A   1     -25.678   3.110  27.053  0.00  0.00    +0.000 A 
ATOM     13  C   UNL A   1     -26.227   3.156  28.271  0.00  0.00    +0.000 A 
ATOM     14  C   UNL A   1     -25.426   5.363  28.380  0.00  0.00    +0.000 A 
ATOM     15  C   UNL A   1     -26.112   4.364  28.920  0.00  0.00    +0.000 A 
ENDBRANCH   4  12
ENDBRANCH   1   5
BRANCH   2  16
ATOM     16  C   UNL A   1     -23.223  -0.070  29.109  0.00  0.00    +0.097 C 
ATOM     17  C   UNL A   1     -23.443   1.244  29.817  0.00  0.00    +0.023 C 
ATOM     18  C   UNL A   1     -21.683  -0.269  28.908  0.00  0.00    +0.023 C 
BRANCH  16  19
ATOM     19  C   UNL A   1     -23.593  -1.113  30.042  0.00  0.00    +0.120 C 
ATOM     20 CL   UNL A   1     -23.261  -0.884  31.692  0.00  0.00    -0.108 Cl
BRANCH  19  21
ATOM     21  C   UNL A   1     -24.399  -2.142  29.736  0.00  0.00    -0.006 A 
ATOM     22  C   UNL A   1     -25.682  -2.369  30.250  0.00  0.00    -0.003 A 
ATOM     23  C   UNL A   1     -26.414  -3.500  29.937  0.00  0.00    -0.000 A 
ATOM     24  C   UNL A   1     -25.801  -4.577  29.254  0.00  0.00    -0.000 A 
ATOM     25  C   UNL A   1     -24.486  -4.427  28.794  0.00  0.00    -0.000 A 
ATOM     26  C   UNL A   1     -23.808  -3.272  29.030  0.00  0.00    -0.003 A 
ENDBRANCH  19  21
ENDBRANCH  16  19
ENDBRANCH   2  16
TORSDOF 5
ENDMDL
ENDMDL
