MODEL 2374
MODEL 1
REMARK VINA RESULT:    -5.141      0.000      0.000
REMARK INTER + INTRA:          -5.612
REMARK INTER:                  -5.441
REMARK INTRA:                  -0.171
REMARK UNBOUND:                -0.171
REMARK  Name = No_2374-gen_results/8p0m/2024-11-26-14-13-15/
REMARK  1 active torsions:
REMARK  status: ('A' for Active; 'I' for Inactive)
REMARK    1  A    between atoms: C_3  and  C_7
REMARK                            x       y       z     vdW  Elec       q    Type
REMARK                         _______ _______ _______ _____ _____    ______ ____
ROOT
ATOM      1  C   UNL A   1     -24.196  -4.932  28.580  0.00  0.00    -0.000 A 
ATOM      2  C   UNL A   1     -23.862  -3.770  28.568  0.00  0.00    +0.004 A 
ATOM      3  C   UNL A   1     -24.636  -2.713  29.017  0.00  0.00    +0.071 A 
ATOM      4  C   UNL A   1     -25.915  -3.032  29.562  0.00  0.00    +0.004 A 
ATOM      5  C   UNL A   1     -26.195  -4.337  29.710  0.00  0.00    -0.000 A 
ATOM      6  C   UNL A   1     -25.384  -5.267  29.297  0.00  0.00    -0.000 A 
ENDROOT
BRANCH   3   7
ATOM      7  C   UNL A   1     -24.232  -1.271  28.851  0.00  0.00    +0.419 C 
ATOM      8  F   UNL A   1     -24.672  -0.819  27.913  0.00  0.00    -0.166 F 
ATOM      9  F   UNL A   1     -22.838  -1.203  28.728  0.00  0.00    -0.166 F 
ATOM     10  F   UNL A   1     -24.458  -0.544  29.976  0.00  0.00    -0.166 F 
ENDBRANCH   3   7
TORSDOF 1
ENDMDL
ENDMDL
