REMARK  Name = No_2374-gen_results/8p0m/2024-11-26-14-13-15/
REMARK  1 active torsions:
REMARK  status: ('A' for Active; 'I' for Inactive)
REMARK    1  A    between atoms: C_3  and  C_7
REMARK                            x       y       z     vdW  Elec       q    Type
REMARK                         _______ _______ _______ _____ _____    ______ ____
ROOT
ATOM      1  C   UNL A   1     -28.016  -0.814  28.878  0.00  0.00    -0.000 A 
ATOM      2  C   UNL A   1     -27.064  -0.119  28.608  0.00  0.00    +0.004 A 
ATOM      3  C   UNL A   1     -26.972   0.714  27.506  0.00  0.00    +0.071 A 
ATOM      4  C   UNL A   1     -28.105   0.774  26.642  0.00  0.00    +0.004 A 
ATOM      5  C   UNL A   1     -29.204   0.118  27.048  0.00  0.00    -0.000 A 
ATOM      6  C   UNL A   1     -29.213  -0.609  28.128  0.00  0.00    -0.000 A 
ENDROOT
BRANCH   3   7
ATOM      7  C   UNL A   1     -25.711   1.452  27.138  0.00  0.00    +0.419 C 
ATOM      8  F   UNL A   1     -24.792   0.810  27.287  0.00  0.00    -0.166 F 
ATOM      9  F   UNL A   1     -25.578   2.566  27.977  0.00  0.00    -0.166 F 
ATOM     10  F   UNL A   1     -25.794   2.025  25.909  0.00  0.00    -0.166 F 
ENDBRANCH   3   7
TORSDOF 1
