REMARK  Name = No_2375-gen_results/8p0m/2024-11-26-14-13-15/
REMARK  5 active torsions:
REMARK  status: ('A' for Active; 'I' for Inactive)
REMARK    1  A    between atoms: C_3  and  C_7
REMARK    2  A    between atoms: C_6  and  C_13
REMARK    3  A    between atoms: N_14  and  C_16
REMARK    4  A    between atoms: C_16  and  C_17
REMARK    5  A    between atoms: C_21  and  C_23
REMARK                            x       y       z     vdW  Elec       q    Type
REMARK                         _______ _______ _______ _____ _____    ______ ____
ROOT
ATOM      1  C   UNL A   1     -31.367  -3.104  30.569  0.00  0.00    +0.116 C 
ATOM      2  C   UNL A   1     -31.454  -2.947  32.073  0.00  0.00    -0.005 A 
ATOM      3  C   UNL A   1     -31.175  -1.878  32.729  0.00  0.00    -0.003 A 
ATOM      4  C   UNL A   1     -31.281  -1.747  34.151  0.00  0.00    -0.000 A 
ATOM      5  C   UNL A   1     -31.704  -2.852  34.821  0.00  0.00    -0.000 A 
ATOM      6  C   UNL A   1     -31.925  -4.058  34.183  0.00  0.00    -0.004 A 
ATOM      7  C   UNL A   1     -31.816  -4.136  32.807  0.00  0.00    -0.024 A 
ATOM      8  C   UNL A   1     -31.041  -4.575  30.134  0.00  0.00    +0.026 C 
ATOM      9  C   UNL A   1     -31.137  -5.413  31.090  0.00  0.00    +0.007 C 
ATOM     10  C   UNL A   1     -31.639  -5.384  32.250  0.00  0.00    +0.026 C 
ATOM     11  C   UNL A   1     -30.855  -4.864  28.838  0.00  0.00    +0.002 C 
ENDROOT
BRANCH   1  12
ATOM     12  C   UNL A   1     -32.428  -2.758  29.928  0.00  0.00    -0.000 A 
ATOM     13  C   UNL A   1     -33.171  -3.283  29.313  0.00  0.00    -0.002 A 
ATOM     14  C   UNL A   1     -34.342  -2.815  28.467  0.00  0.00    -0.000 A 
ATOM     15  C   UNL A   1     -34.535  -1.443  28.478  0.00  0.00    +0.007 A 
ATOM     16  C   UNL A   1     -33.695  -0.651  29.159  0.00  0.00    +0.080 A 
ATOM     17  C   UNL A   1     -32.620  -1.167  29.851  0.00  0.00    +0.004 A 
BRANCH  16  18
ATOM     18  C   UNL A   1     -33.899   0.833  29.165  0.00  0.00    +0.388 C 
ATOM     19  O   UNL A   1     -34.841   1.364  28.918  0.00  0.00    -0.241 OA
ATOM     20  O   UNL A   1     -32.764   1.566  29.504  0.00  0.00    -0.241 OA
ENDBRANCH  16  18
ENDBRANCH   1  12
BRANCH   1  22
ATOM     21  C   UNL A   1     -29.021  -2.783  30.183  0.00  0.00    +0.265 C 
ATOM     22  N   UNL A   1     -30.163  -2.328  30.192  0.00  0.00    -0.197 NA
ATOM     23  O   UNL A   1     -28.804  -3.974  30.605  0.00  0.00    -0.268 OA
BRANCH  21  29
ATOM     24  C   UNL A   1     -28.016  -0.814  28.878  0.00  0.00    +0.005 A 
ATOM     25  C   UNL A   1     -27.064  -0.119  28.608  0.00  0.00    +0.000 A 
ATOM     26  C   UNL A   1     -25.765  -0.390  29.036  0.00  0.00    +0.000 A 
ATOM     27  C   UNL A   1     -25.530  -1.530  29.901  0.00  0.00    +0.000 A 
ATOM     28  C   UNL A   1     -26.658  -2.292  30.203  0.00  0.00    +0.005 A 
ATOM     29  C   UNL A   1     -27.855  -1.956  29.763  0.00  0.00    +0.055 A 
BRANCH  26  30
ATOM     30  C   UNL A   1     -24.544   0.413  28.738  0.00  0.00    +0.000 A 
ATOM     31  C   UNL A   1     -23.323   0.048  29.050  0.00  0.00    +0.000 A 
ATOM     32  C   UNL A   1     -22.200   0.841  28.719  0.00  0.00    +0.000 A 
ATOM     33  C   UNL A   1     -22.363   1.839  27.717  0.00  0.00    +0.000 A 
ATOM     34  C   UNL A   1     -24.604   1.516  27.812  0.00  0.00    +0.000 A 
ATOM     35  C   UNL A   1     -23.558   2.190  27.359  0.00  0.00    +0.000 A 
ENDBRANCH  26  30
ENDBRANCH  21  29
ENDBRANCH   1  22
TORSDOF 5
