MODEL 2376
MODEL 1
REMARK VINA RESULT:    -5.839      0.000      0.000
REMARK INTER + INTRA:          -6.672
REMARK INTER:                  -6.521
REMARK INTRA:                  -0.150
REMARK UNBOUND:                -0.150
REMARK  Name = No_2376-gen_results/8p0m/2024-11-26-14-13-15/
REMARK  2 active torsions:
REMARK  status: ('A' for Active; 'I' for Inactive)
REMARK    1  A    between atoms: C_1  and  C_7
REMARK    2  A    between atoms: C_5  and  C_10
REMARK                            x       y       z     vdW  Elec       q    Type
REMARK                         _______ _______ _______ _____ _____    ______ ____
ROOT
ATOM      1  C   UNL A   1     -26.411  -3.897  29.791  0.00  0.00    +0.080 A 
ATOM      2  C   UNL A   1     -25.872  -4.938  29.494  0.00  0.00    +0.007 A 
ATOM      3  C   UNL A   1     -24.592  -5.016  28.979  0.00  0.00    +0.000 A 
ATOM      4  C   UNL A   1     -23.859  -3.805  28.829  0.00  0.00    +0.005 A 
ATOM      5  C   UNL A   1     -24.440  -2.691  29.332  0.00  0.00    +0.055 A 
ATOM      6  C   UNL A   1     -25.655  -2.717  29.846  0.00  0.00    +0.011 A 
ENDROOT
BRANCH   5   7
ATOM      7  C   UNL A   1     -23.649  -1.445  29.201  0.00  0.00    +0.265 C 
ATOM      8  N   UNL A   1     -22.463  -1.516  28.970  0.00  0.00    -0.200 NA
ATOM      9  O   UNL A   1     -24.148  -0.293  29.378  0.00  0.00    -0.268 OA
ATOM     10  C   UNL A   1     -21.524  -0.367  28.895  0.00  0.00    +0.139 C 
ENDBRANCH   5   7
BRANCH   1  11
ATOM     11  C   UNL A   1     -27.809  -3.907  30.358  0.00  0.00    +0.388 C 
ATOM     12  O   UNL A   1     -28.230  -4.953  30.837  0.00  0.00    -0.241 OA
ATOM     13  O   UNL A   1     -28.603  -2.900  30.220  0.00  0.00    -0.241 OA
ENDBRANCH   1  11
TORSDOF 2
ENDMDL
ENDMDL
