MODEL 2377
MODEL 1
REMARK VINA RESULT:    -6.679      0.000      0.000
REMARK INTER + INTRA:          -8.218
REMARK INTER:                  -7.851
REMARK INTRA:                  -0.367
REMARK UNBOUND:                -0.367
REMARK  Name = No_2377-gen_results/8p0m/2024-11-26-14-13-15/
REMARK  3 active torsions:
REMARK  status: ('A' for Active; 'I' for Inactive)
REMARK    1  A    between atoms: C_5  and  C_7
REMARK    2  A    between atoms: C_10  and  C_11
REMARK    3  A    between atoms: C_14  and  C_17
REMARK                            x       y       z     vdW  Elec       q    Type
REMARK                         _______ _______ _______ _____ _____    ______ ____
ROOT
ATOM      1  C   UNL A   1     -29.150 -10.439  32.442  0.00  0.00    +0.007 A 
ATOM      2  C   UNL A   1     -29.416 -10.344  31.266  0.00  0.00    +0.005 A 
ATOM      3  C   UNL A   1     -28.937 -11.220  30.293  0.00  0.00    +0.000 A 
ATOM      4  C   UNL A   1     -28.219 -11.983  30.453  0.00  0.00    +0.000 A 
ATOM      5  C   UNL A   1     -28.123 -11.456  32.789  0.00  0.00    +0.080 A 
ATOM      6  C   UNL A   1     -27.696 -12.268  31.794  0.00  0.00    +0.007 A 
ATOM      7  C   UNL A   1     -30.472  -9.344  30.652  0.00  0.00    +0.054 A 
ATOM      8  C   UNL A   1     -30.924  -9.504  29.321  0.00  0.00    +0.004 A 
ATOM      9  C   UNL A   1     -30.769 -10.470  28.544  0.00  0.00    +0.000 A 
ATOM     10  C   UNL A   1     -29.633 -11.409  28.896  0.00  0.00    -0.000 A 
ENDROOT
BRANCH   7  11
ATOM     11  C   UNL A   1     -30.899  -8.489  31.341  0.00  0.00    +0.249 C 
ATOM     12  O   UNL A   1     -30.633  -7.421  31.505  0.00  0.00    -0.270 OA
ATOM     13  N   UNL A   1     -32.221  -8.660  31.868  0.00  0.00    -0.273 N 
ATOM     14  C   UNL A   1     -33.005  -7.622  32.443  0.00  0.00    +0.115 C 
ATOM     15  C   UNL A   1     -32.777  -9.977  31.814  0.00  0.00    +0.115 C 
ENDBRANCH   7  11
BRANCH   5  16
ATOM     16  C   UNL A   1     -27.633 -11.700  34.126  0.00  0.00    +0.388 C 
ATOM     17  O   UNL A   1     -27.793 -12.598  34.682  0.00  0.00    -0.241 OA
ATOM     18  O   UNL A   1     -26.907 -10.679  34.662  0.00  0.00    -0.241 OA
ENDBRANCH   5  16
BRANCH  10  19
ATOM     19  C   UNL A   1     -29.199 -12.432  28.016  0.00  0.00    -0.005 C 
ATOM     20  C   UNL A   1     -29.907 -13.744  27.923  0.00  0.00    -0.026 C 
ATOM     21  C   UNL A   1     -30.849 -14.048  28.817  0.00  0.00    +0.031 C 
ENDBRANCH  10  19
TORSDOF 3
ENDMDL
ENDMDL
