REMARK  Name = No_2377-gen_results/8p0m/2024-11-26-14-13-15/
REMARK  3 active torsions:
REMARK  status: ('A' for Active; 'I' for Inactive)
REMARK    1  A    between atoms: C_5  and  C_7
REMARK    2  A    between atoms: C_10  and  C_11
REMARK    3  A    between atoms: C_14  and  C_17
REMARK                            x       y       z     vdW  Elec       q    Type
REMARK                         _______ _______ _______ _____ _____    ______ ____
ROOT
ATOM      1  C   UNL A   1     -28.016  -0.814  28.878  0.00  0.00    +0.007 A 
ATOM      2  C   UNL A   1     -27.064  -0.119  28.608  0.00  0.00    +0.005 A 
ATOM      3  C   UNL A   1     -25.765  -0.390  29.036  0.00  0.00    +0.000 A 
ATOM      4  C   UNL A   1     -25.489  -1.154  29.717  0.00  0.00    +0.000 A 
ATOM      5  C   UNL A   1     -27.761  -1.903  29.857  0.00  0.00    +0.080 A 
ATOM      6  C   UNL A   1     -26.478  -2.106  30.236  0.00  0.00    +0.007 A 
ATOM      7  C   UNL A   1     -27.082   1.093  27.597  0.00  0.00    +0.054 A 
ATOM      8  C   UNL A   1     -25.872   1.656  27.128  0.00  0.00    +0.004 A 
ATOM      9  C   UNL A   1     -24.706   1.220  27.229  0.00  0.00    +0.000 A 
ATOM     10  C   UNL A   1     -24.491   0.191  28.321  0.00  0.00    -0.000 A 
ENDROOT
BRANCH   7  11
ATOM     11  C   UNL A   1     -28.125   1.490  27.218  0.00  0.00    +0.249 C 
ATOM     12  O   UNL A   1     -29.180   1.302  27.516  0.00  0.00    -0.270 OA
ATOM     13  N   UNL A   1     -28.133   2.697  26.445  0.00  0.00    -0.273 N 
ATOM     14  C   UNL A   1     -29.290   3.480  26.177  0.00  0.00    +0.115 C 
ATOM     15  C   UNL A   1     -26.882   3.131  25.903  0.00  0.00    +0.115 C 
ENDBRANCH   7  11
BRANCH   5  16
ATOM     16  C   UNL A   1     -28.768  -2.817  30.344  0.00  0.00    +0.388 C 
ATOM     17  O   UNL A   1     -29.819  -2.627  30.344  0.00  0.00    -0.241 OA
ATOM     18  O   UNL A   1     -28.283  -4.001  30.813  0.00  0.00    -0.241 OA
ENDBRANCH   5  16
BRANCH  10  19
ATOM     19  C   UNL A   1     -23.198  -0.252  28.697  0.00  0.00    -0.005 C 
ATOM     20  C   UNL A   1     -22.100   0.707  29.023  0.00  0.00    -0.026 C 
ATOM     21  C   UNL A   1     -22.266   2.006  28.773  0.00  0.00    +0.031 C 
ENDBRANCH  10  19
TORSDOF 3
