MODEL 2378
MODEL 1
REMARK VINA RESULT:    -5.206      0.000      0.000
REMARK INTER + INTRA:          -5.567
REMARK INTER:                  -5.510
REMARK INTRA:                  -0.057
REMARK UNBOUND:                -0.057
REMARK  Name = No_2378-gen_results/8p0m/2024-11-26-14-13-15/
REMARK  1 active torsions:
REMARK  status: ('A' for Active; 'I' for Inactive)
REMARK    1  A    between atoms: C_2  and  C_8
REMARK                            x       y       z     vdW  Elec       q    Type
REMARK                         _______ _______ _______ _____ _____    ______ ____
ROOT
ATOM      1  C   UNL A   1     -28.219 -11.660  31.632  0.00  0.00    +0.014 A 
ATOM      2  C   UNL A   1     -28.202 -11.272  32.612  0.00  0.00    +0.080 A 
ATOM      3  C   UNL A   1     -29.152 -11.114  30.723  0.00  0.00    +0.045 A 
ATOM      4  C   UNL A   1     -29.807 -10.199  30.963  0.00  0.00    +0.064 A 
ATOM      5  C   UNL A   1     -28.946 -10.141  33.166  0.00  0.00    +0.007 A 
ATOM      6  C   UNL A   1     -29.801  -9.592  32.269  0.00  0.00    +0.012 A 
ATOM      7 BR   UNL A   1     -29.177 -11.847  28.922  0.00  0.00    -0.048 Br
ATOM      8 CL   UNL A   1     -31.014  -9.470  29.826  0.00  0.00    -0.082 Cl
ENDROOT
BRANCH   2   9
ATOM      9  C   UNL A   1     -27.168 -11.780  33.733  0.00  0.00    +0.388 C 
ATOM     10  O   UNL A   1     -26.746 -10.842  34.575  0.00  0.00    -0.241 OA
ATOM     11  O   UNL A   1     -26.730 -12.874  33.667  0.00  0.00    -0.241 OA
ENDBRANCH   2   9
TORSDOF 1
ENDMDL
ENDMDL
