REMARK  Name = No_2378-gen_results/8p0m/2024-11-26-14-13-15/
REMARK  1 active torsions:
REMARK  status: ('A' for Active; 'I' for Inactive)
REMARK    1  A    between atoms: C_2  and  C_8
REMARK                            x       y       z     vdW  Elec       q    Type
REMARK                         _______ _______ _______ _____ _____    ______ ____
ROOT
ATOM      1  C   UNL A   1     -28.016  -0.814  28.878  0.00  0.00    +0.014 A 
ATOM      2  C   UNL A   1     -28.469  -0.785  29.829  0.00  0.00    +0.080 A 
ATOM      3  C   UNL A   1     -27.136   0.236  28.535  0.00  0.00    +0.045 A 
ATOM      4  C   UNL A   1     -26.805   1.051  29.276  0.00  0.00    +0.064 A 
ATOM      5  C   UNL A   1     -28.237   0.150  30.930  0.00  0.00    +0.007 A 
ATOM      6  C   UNL A   1     -27.352   1.124  30.607  0.00  0.00    +0.012 A 
ATOM      7 BR   UNL A   1     -26.315   0.173  26.773  0.00  0.00    -0.048 Br
ATOM      8 CL   UNL A   1     -25.681   2.413  28.875  0.00  0.00    -0.082 Cl
ENDROOT
BRANCH   2   9
ATOM      9  C   UNL A   1     -29.462  -1.933  30.357  0.00  0.00    +0.388 C 
ATOM     10  O   UNL A   1     -29.883  -1.781  31.609  0.00  0.00    -0.241 OA
ATOM     11  O   UNL A   1     -29.641  -2.896  29.698  0.00  0.00    -0.241 OA
ENDBRANCH   2   9
TORSDOF 1
