REMARK  Name = No_2379-gen_results/8p0m/2024-11-26-14-13-15/
REMARK  3 active torsions:
REMARK  status: ('A' for Active; 'I' for Inactive)
REMARK    1  A    between atoms: C_3  and  C_4
REMARK    2  A    between atoms: C_4  and  C_8
REMARK    3  A    between atoms: C_9  and  C_10
REMARK                            x       y       z     vdW  Elec       q    Type
REMARK                         _______ _______ _______ _____ _____    ______ ____
ROOT
ATOM      1  C   UNL A   1     -28.016  -0.814  28.878  0.00  0.00    -0.004 A 
ATOM      2  C   UNL A   1     -28.469  -0.785  29.829  0.00  0.00    -0.000 A 
ATOM      3  C   UNL A   1     -26.504  -0.778  28.877  0.00  0.00    -0.018 A 
ATOM      4  C   UNL A   1     -27.918  -0.937  31.182  0.00  0.00    -0.000 A 
ATOM      5  C   UNL A   1     -26.542  -0.940  31.261  0.00  0.00    -0.000 A 
ATOM      6  C   UNL A   1     -25.783  -0.893  30.120  0.00  0.00    -0.004 A 
ENDROOT
BRANCH   3   7
ATOM      7  C   UNL A   1     -25.654  -0.660  27.719  0.00  0.00    +0.048 C 
BRANCH   7   8
ATOM      8  C   UNL A   1     -25.899   0.315  26.747  0.00  0.00    -0.040 C 
ATOM      9  C   UNL A   1     -24.919   0.824  26.006  0.00  0.00    -0.008 C 
ATOM     10  C   UNL A   1     -27.255   0.801  26.603  0.00  0.00    +0.027 C 
BRANCH   9  11
ATOM     11  C   UNL A   1     -24.153   1.797  26.152  0.00  0.00    -0.001 C 
ATOM     12  C   UNL A   1     -24.242   2.614  27.358  0.00  0.00    -0.000 C 
ENDBRANCH   9  11
ENDBRANCH   7   8
ENDBRANCH   3   7
TORSDOF 3
