MODEL 2379
MODEL 1
REMARK VINA RESULT:    -5.726      0.000      0.000
REMARK INTER + INTRA:          -7.528
REMARK INTER:                  -6.731
REMARK INTRA:                  -0.798
REMARK UNBOUND:                -0.798
REMARK  Name = No_2379-gen_results/8p0m/2024-11-26-14-13-15/
REMARK  3 active torsions:
REMARK  status: ('A' for Active; 'I' for Inactive)
REMARK    1  A    between atoms: C_3  and  C_4
REMARK    2  A    between atoms: C_4  and  C_8
REMARK    3  A    between atoms: C_9  and  C_10
REMARK                            x       y       z     vdW  Elec       q    Type
REMARK                         _______ _______ _______ _____ _____    ______ ____
ROOT
ATOM      1  C   UNL A   1     -25.689  -2.458  29.749  0.00  0.00    -0.004 A 
ATOM      2  C   UNL A   1     -26.368  -3.227  29.989  0.00  0.00    -0.000 A 
ATOM      3  C   UNL A   1     -24.366  -2.916  29.176  0.00  0.00    -0.018 A 
ATOM      4  C   UNL A   1     -26.377  -4.661  29.674  0.00  0.00    -0.000 A 
ATOM      5  C   UNL A   1     -25.212  -5.150  29.123  0.00  0.00    -0.000 A 
ATOM      6  C   UNL A   1     -24.178  -4.301  28.823  0.00  0.00    -0.004 A 
ENDROOT
BRANCH   3   7
ATOM      7  C   UNL A   1     -23.220  -2.085  28.905  0.00  0.00    +0.048 C 
BRANCH   7   8
ATOM      8  C   UNL A   1     -23.230  -0.724  29.227  0.00  0.00    -0.040 C 
ATOM      9  C   UNL A   1     -22.860  -0.288  30.428  0.00  0.00    -0.008 C 
ATOM     10  C   UNL A   1     -23.709   0.205  28.226  0.00  0.00    +0.027 C 
BRANCH   9  11
ATOM     11  C   UNL A   1     -23.476  -0.090  31.493  0.00  0.00    -0.001 C 
ATOM     12  C   UNL A   1     -23.446  -1.100  32.546  0.00  0.00    -0.000 C 
ENDBRANCH   9  11
ENDBRANCH   7   8
ENDBRANCH   3   7
TORSDOF 3
ENDMDL
ENDMDL
