REMARK  Name = No_238-gen_results/8p0m/2024-11-26-14-13-15/
REMARK  5 active torsions:
REMARK  status: ('A' for Active; 'I' for Inactive)
REMARK    1  A    between atoms: C_1  and  O_14
REMARK    2  A    between atoms: C_2  and  C_8
REMARK    3  A    between atoms: O_14  and  C_15
REMARK    4  A    between atoms: C_15  and  C_16
REMARK    5  A    between atoms: C_15  and  C_17
REMARK                            x       y       z     vdW  Elec       q    Type
REMARK                         _______ _______ _______ _____ _____    ______ ____
ROOT
ATOM      1  C   UNL A   1     -28.016  -0.814  28.878  0.00  0.00    +0.140 A 
ATOM      2  C   UNL A   1     -27.064  -0.119  28.608  0.00  0.00    +0.034 A 
ATOM      3  C   UNL A   1     -27.001   0.691  27.491  0.00  0.00    +0.004 A 
ATOM      4  C   UNL A   1     -28.137   0.736  26.635  0.00  0.00    +0.012 A 
ATOM      5  C   UNL A   1     -29.236   0.076  27.069  0.00  0.00    +0.061 A 
ATOM      6  C   UNL A   1     -29.218  -0.643  28.175  0.00  0.00    +0.048 A 
ATOM      7 CL   UNL A   1     -30.612   0.165  26.071  0.00  0.00    -0.082 Cl
ENDROOT
BRANCH   2   8
ATOM      8  C   UNL A   1     -25.712  -0.216  29.410  0.00  0.00    +0.003 A 
ATOM      9  C   UNL A   1     -24.566  -0.481  28.815  0.00  0.00    +0.000 A 
ATOM     10  C   UNL A   1     -23.320  -0.469  29.509  0.00  0.00    +0.000 A 
ATOM     11  C   UNL A   1     -23.326  -0.354  30.846  0.00  0.00    +0.000 A 
ATOM     12  C   UNL A   1     -25.605  -0.021  30.807  0.00  0.00    +0.000 A 
ATOM     13  C   UNL A   1     -24.459  -0.075  31.538  0.00  0.00    +0.000 A 
ENDBRANCH   2   8
BRANCH   1  14
ATOM     14  O   UNL A   1     -28.086  -1.636  29.992  0.00  0.00    -0.463 OA
BRANCH  14  15
ATOM     15  C   UNL A   1     -28.466  -2.495  30.386  0.00  0.00    +0.324 C 
BRANCH  15  16
ATOM     16  C   UNL A   1     -29.567  -2.383  31.184  0.00  0.00    +0.442 C 
ATOM     17  F   UNL A   1     -29.929  -1.266  31.559  0.00  0.00    -0.166 F 
ATOM     18  F   UNL A   1     -29.321  -3.044  32.422  0.00  0.00    -0.166 F 
ATOM     19  F   UNL A   1     -30.596  -3.072  30.596  0.00  0.00    -0.166 F 
ENDBRANCH  15  16
BRANCH  15  20
ATOM     20  C   UNL A   1     -28.015  -3.854  30.100  0.00  0.00    +0.260 C 
ATOM     21  O   UNL A   1     -28.626  -4.702  30.247  0.00  0.00    -0.284 OA
ENDBRANCH  15  20
ENDBRANCH  14  15
ENDBRANCH   1  14
TORSDOF 5
