MODEL 2380
MODEL 1
REMARK VINA RESULT:    -6.879      0.000      0.000
REMARK INTER + INTRA:          -8.342
REMARK INTER:                  -7.684
REMARK INTRA:                  -0.659
REMARK UNBOUND:                -0.659
REMARK  Name = No_2380-gen_results/8p0m/2024-11-26-14-13-15/
REMARK  2 active torsions:
REMARK  status: ('A' for Active; 'I' for Inactive)
REMARK    1  A    between atoms: C_2  and  C_5
REMARK    2  A    between atoms: C_3  and  C_4
REMARK                            x       y       z     vdW  Elec       q    Type
REMARK                         _______ _______ _______ _____ _____    ______ ____
ROOT
ATOM      1  C   UNL A   1     -24.659  -0.281  27.815  0.00  0.00    +0.007 A 
ATOM      2  C   UNL A   1     -23.851   0.307  27.478  0.00  0.00    +0.080 A 
ATOM      3  C   UNL A   1     -24.294  -1.231  28.865  0.00  0.00    +0.000 A 
ATOM      4  C   UNL A   1     -22.470   0.524  28.175  0.00  0.00    +0.007 A 
ATOM      5  C   UNL A   1     -22.150  -0.222  29.183  0.00  0.00    +0.000 A 
ATOM      6  C   UNL A   1     -23.038  -1.195  29.544  0.00  0.00    +0.000 A 
ENDROOT
BRANCH   3   7
ATOM      7  C   UNL A   1     -24.872  -2.447  28.988  0.00  0.00    +0.000 A 
ATOM      8  C   UNL A   1     -25.828  -2.726  29.422  0.00  0.00    +0.000 A 
ATOM      9  C   UNL A   1     -26.281  -4.144  29.697  0.00  0.00    +0.000 A 
ATOM     10  C   UNL A   1     -25.422  -5.115  29.230  0.00  0.00    +0.000 A 
ATOM     11  C   UNL A   1     -24.186  -4.854  28.666  0.00  0.00    +0.000 A 
ATOM     12  C   UNL A   1     -23.839  -3.526  28.561  0.00  0.00    +0.000 A 
ENDBRANCH   3   7
BRANCH   2  13
ATOM     13  C   UNL A   1     -23.961   1.095  26.269  0.00  0.00    +0.388 C 
ATOM     14  O   UNL A   1     -23.456   2.264  26.286  0.00  0.00    -0.241 OA
ATOM     15  O   UNL A   1     -24.574   0.741  25.250  0.00  0.00    -0.241 OA
ENDBRANCH   2  13
TORSDOF 2
ENDMDL
ENDMDL
