REMARK  Name = No_2380-gen_results/8p0m/2024-11-26-14-13-15/
REMARK  2 active torsions:
REMARK  status: ('A' for Active; 'I' for Inactive)
REMARK    1  A    between atoms: C_2  and  C_5
REMARK    2  A    between atoms: C_3  and  C_4
REMARK                            x       y       z     vdW  Elec       q    Type
REMARK                         _______ _______ _______ _____ _____    ______ ____
ROOT
ATOM      1  C   UNL A   1     -28.016  -0.814  28.878  0.00  0.00    +0.007 A 
ATOM      2  C   UNL A   1     -28.469  -0.785  29.829  0.00  0.00    +0.080 A 
ATOM      3  C   UNL A   1     -27.087   0.290  28.638  0.00  0.00    +0.000 A 
ATOM      4  C   UNL A   1     -28.025   0.044  31.076  0.00  0.00    +0.007 A 
ATOM      5  C   UNL A   1     -27.121   0.959  30.933  0.00  0.00    +0.000 A 
ATOM      6  C   UNL A   1     -26.645   1.172  29.671  0.00  0.00    +0.000 A 
ENDROOT
BRANCH   3   7
ATOM      7  C   UNL A   1     -26.910   0.849  27.420  0.00  0.00    +0.000 A 
ATOM      8  C   UNL A   1     -27.642   1.143  26.673  0.00  0.00    +0.000 A 
ATOM      9  C   UNL A   1     -27.319   1.565  25.255  0.00  0.00    +0.000 A 
ATOM     10  C   UNL A   1     -25.973   1.679  24.989  0.00  0.00    +0.000 A 
ATOM     11  C   UNL A   1     -24.972   1.327  25.877  0.00  0.00    +0.000 A 
ATOM     12  C   UNL A   1     -25.389   0.860  27.102  0.00  0.00    +0.000 A 
ENDBRANCH   3   7
BRANCH   2  13
ATOM     13  C   UNL A   1     -29.607  -1.627  30.134  0.00  0.00    +0.388 C 
ATOM     14  O   UNL A   1     -29.366  -2.803  30.560  0.00  0.00    -0.241 OA
ATOM     15  O   UNL A   1     -30.791  -1.310  29.939  0.00  0.00    -0.241 OA
ENDBRANCH   2  13
TORSDOF 2
