REMARK  Name = No_2381-gen_results/8p0m/2024-11-26-14-13-15/
REMARK  6 active torsions:
REMARK  status: ('A' for Active; 'I' for Inactive)
REMARK    1  A    between atoms: C_1  and  C_8
REMARK    2  A    between atoms: C_3  and  C_14
REMARK    3  A    between atoms: C_5  and  C_11
REMARK    4  A    between atoms: C_8  and  O_10
REMARK    5  A    between atoms: O_10  and  C_17
REMARK    6  A    between atoms: C_18  and  C_19
REMARK                            x       y       z     vdW  Elec       q    Type
REMARK                         _______ _______ _______ _____ _____    ______ ____
ROOT
ATOM      1  C   UNL A   1     -28.016  -0.814  28.878  0.00  0.00    +0.074 C 
ATOM      2  C   UNL A   1     -27.064  -0.119  28.608  0.00  0.00    -0.028 C 
ATOM      3  C   UNL A   1     -26.972   0.714  27.506  0.00  0.00    +0.122 C 
ATOM      4  C   UNL A   1     -25.820   1.491  27.116  0.00  0.00    +0.024 C 
ATOM      5  C   UNL A   1     -24.656   1.424  27.918  0.00  0.00    +0.074 C 
ATOM      6  C   UNL A   1     -24.685   0.590  29.066  0.00  0.00    +0.013 C 
ATOM      7  C   UNL A   1     -25.810  -0.127  29.334  0.00  0.00    +0.023 C 
ENDROOT
BRANCH   5   8
ATOM      8  C   UNL A   1     -23.469   2.208  27.604  0.00  0.00    +0.230 C 
ATOM      9 CL   UNL A   1     -22.306   2.269  28.748  0.00  0.00    -0.043 Cl
ATOM     10  O   UNL A   1     -23.223   2.718  26.482  0.00  0.00    -0.279 OA
ENDBRANCH   5   8
BRANCH   3  11
ATOM     11  C   UNL A   1     -28.070   0.807  26.553  0.00  0.00    +0.368 C 
ATOM     12  O   UNL A   1     -28.924   1.499  26.672  0.00  0.00    -0.245 OA
ATOM     13  O   UNL A   1     -28.044  -0.060  25.549  0.00  0.00    -0.245 OA
ENDBRANCH   3  11
BRANCH   1  14
ATOM     14  C   UNL A   1     -28.709  -0.459  30.175  0.00  0.00    +0.345 C 
ATOM     15  O   UNL A   1     -28.670   0.380  30.752  0.00  0.00    -0.244 OA
BRANCH  14  16
ATOM     16  O   UNL A   1     -29.172  -1.692  30.734  0.00  0.00    -0.418 OA
BRANCH  16  17
ATOM     17  C   UNL A   1     -30.011  -1.631  31.741  0.00  0.00    +0.183 C 
ATOM     18  C   UNL A   1     -30.271  -2.815  32.236  0.00  0.00    +0.044 C 
BRANCH  18  19
ATOM     19  C   UNL A   1     -29.805  -3.979  31.677  0.00  0.00    +0.042 A 
ATOM     20  C   UNL A   1     -30.220  -5.165  31.750  0.00  0.00    +0.003 A 
ATOM     21  C   UNL A   1     -29.733  -6.234  30.899  0.00  0.00    +0.000 A 
ATOM     22  C   UNL A   1     -28.839  -5.712  29.964  0.00  0.00    +0.003 A 
ATOM     23  C   UNL A   1     -28.290  -4.528  29.830  0.00  0.00    +0.042 A 
ATOM     24  C   UNL A   1     -28.795  -3.556  30.790  0.00  0.00    +0.196 A 
ATOM     25  O   UNL A   1     -27.614  -3.061  31.608  0.00  0.00    -0.287 OA
ENDBRANCH  18  19
ENDBRANCH  16  17
ENDBRANCH  14  16
ENDBRANCH   1  14
TORSDOF 6
