MODEL 2381
MODEL 1
REMARK VINA RESULT:    -6.876      0.000      0.000
REMARK INTER + INTRA:         -10.214
REMARK INTER:                  -9.288
REMARK INTRA:                  -0.925
REMARK UNBOUND:                -0.925
REMARK  Name = No_2381-gen_results/8p0m/2024-11-26-14-13-15/
REMARK  6 active torsions:
REMARK  status: ('A' for Active; 'I' for Inactive)
REMARK    1  A    between atoms: C_1  and  C_8
REMARK    2  A    between atoms: C_3  and  C_14
REMARK    3  A    between atoms: C_5  and  C_11
REMARK    4  A    between atoms: C_8  and  O_10
REMARK    5  A    between atoms: O_10  and  C_17
REMARK    6  A    between atoms: C_18  and  C_19
REMARK                            x       y       z     vdW  Elec       q    Type
REMARK                         _______ _______ _______ _____ _____    ______ ____
ROOT
ATOM      1  C   UNL A   1     -30.667 -11.829  10.862  0.00  0.00    +0.074 C 
ATOM      2  C   UNL A   1     -30.008 -10.999  10.279  0.00  0.00    -0.028 C 
ATOM      3  C   UNL A   1     -30.432  -9.719   9.967  0.00  0.00    +0.122 C 
ATOM      4  C   UNL A   1     -29.700  -8.738   9.203  0.00  0.00    +0.024 C 
ATOM      5  C   UNL A   1     -28.417  -9.081   8.715  0.00  0.00    +0.074 C 
ATOM      6  C   UNL A   1     -27.920 -10.379   9.003  0.00  0.00    +0.013 C 
ATOM      7  C   UNL A   1     -28.700 -11.245   9.707  0.00  0.00    +0.023 C 
ENDROOT
BRANCH   5   8
ATOM      8  C   UNL A   1     -27.607  -8.129   7.967  0.00  0.00    +0.230 C 
ATOM      9 CL   UNL A   1     -27.205  -6.745   8.734  0.00  0.00    -0.043 Cl
ATOM     10  O   UNL A   1     -27.090  -8.354   6.843  0.00  0.00    -0.279 OA
ENDBRANCH   5   8
BRANCH   3  11
ATOM     11  C   UNL A   1     -31.768  -9.270  10.337  0.00  0.00    +0.368 C 
ATOM     12  O   UNL A   1     -31.984  -8.688  11.252  0.00  0.00    -0.245 OA
ATOM     13  O   UNL A   1     -32.757  -9.673   9.550  0.00  0.00    -0.245 OA
ENDBRANCH   3  11
BRANCH   1  14
ATOM     14  C   UNL A   1     -30.107 -12.252  12.202  0.00  0.00    +0.345 C 
ATOM     15  O   UNL A   1     -29.277 -11.951  12.711  0.00  0.00    -0.244 OA
BRANCH  14  16
ATOM     16  O   UNL A   1     -30.731 -13.498  12.523  0.00  0.00    -0.418 OA
BRANCH  16  17
ATOM     17  C   UNL A   1     -29.967 -14.471  12.961  0.00  0.00    +0.183 C 
ATOM     18  C   UNL A   1     -29.791 -15.402  12.056  0.00  0.00    +0.044 C 
BRANCH  18  19
ATOM     19  C   UNL A   1     -30.436 -15.400  10.844  0.00  0.00    +0.042 A 
ATOM     20  C   UNL A   1     -31.659 -15.427  10.549  0.00  0.00    +0.003 A 
ATOM     21  C   UNL A   1     -32.162 -15.182   9.211  0.00  0.00    +0.000 A 
ATOM     22  C   UNL A   1     -31.103 -14.830   8.374  0.00  0.00    +0.003 A 
ATOM     23  C   UNL A   1     -29.802 -14.827   8.547  0.00  0.00    +0.042 A 
ATOM     24  C   UNL A   1     -29.409 -15.167   9.908  0.00  0.00    +0.196 A 
ATOM     25  O   UNL A   1     -28.533 -16.406   9.838  0.00  0.00    -0.287 OA
ENDBRANCH  18  19
ENDBRANCH  16  17
ENDBRANCH  14  16
ENDBRANCH   1  14
TORSDOF 6
ENDMDL
ENDMDL
