REMARK  Name = No_2382-gen_results/8p0m/2024-11-26-14-13-15/
REMARK  2 active torsions:
REMARK  status: ('A' for Active; 'I' for Inactive)
REMARK    1  A    between atoms: C_3  and  C_8
REMARK    2  A    between atoms: C_9  and  C_11
REMARK                            x       y       z     vdW  Elec       q    Type
REMARK                         _______ _______ _______ _____ _____    ______ ____
ROOT
ATOM      1  C   UNL A   1     -28.016  -0.814  28.878  0.00  0.00    +0.042 A 
ATOM      2  C   UNL A   1     -27.064  -0.119  28.608  0.00  0.00    +0.003 A 
ATOM      3  C   UNL A   1     -25.765  -0.390  29.036  0.00  0.00    -0.000 A 
ATOM      4  C   UNL A   1     -25.530  -1.530  29.901  0.00  0.00    +0.003 A 
ATOM      5  C   UNL A   1     -26.689  -2.289  30.181  0.00  0.00    +0.042 A 
ATOM      6  C   UNL A   1     -27.873  -1.951  29.737  0.00  0.00    +0.196 A 
ATOM      7  O   UNL A   1     -28.930  -2.730  30.115  0.00  0.00    -0.287 OA
ENDROOT
BRANCH   3   8
ATOM      8  C   UNL A   1     -24.418   0.227  28.782  0.00  0.00    -0.007 C 
ATOM      9  C   UNL A   1     -24.343   1.246  27.847  0.00  0.00    -0.025 C 
ATOM     10  C   UNL A   1     -25.365   1.821  27.127  0.00  0.00    +0.028 C 
BRANCH   9  11
ATOM     11  C   UNL A   1     -22.991   1.848  27.642  0.00  0.00    +0.131 C 
ATOM     12  N   UNL A   1     -22.015   1.521  28.519  0.00  0.00    -0.127 NA
ENDBRANCH   9  11
ENDBRANCH   3   8
TORSDOF 2
