MODEL 2383
MODEL 1
REMARK VINA RESULT:    -5.272      0.000      0.000
REMARK INTER + INTRA:          -6.410
REMARK INTER:                  -6.196
REMARK INTRA:                  -0.214
REMARK UNBOUND:                -0.214
REMARK  Name = No_2383-gen_results/8p0m/2024-11-26-14-13-15/
REMARK  3 active torsions:
REMARK  status: ('A' for Active; 'I' for Inactive)
REMARK    1  A    between atoms: C_1  and  C_2
REMARK    2  A    between atoms: C_1  and  C_4
REMARK    3  A    between atoms: C_7  and  C_11
REMARK                            x       y       z     vdW  Elec       q    Type
REMARK                         _______ _______ _______ _____ _____    ______ ____
ROOT
ATOM      1  C   UNL A   1     -23.533  -0.089  29.292  0.00  0.00    +0.070 A 
ATOM      2  N   UNL A   1     -23.613  -1.004  30.216  0.00  0.00    -0.248 NA
ATOM      3  C   UNL A   1     -24.074  -1.914  30.472  0.00  0.00    +0.098 A 
ATOM      4  C   UNL A   1     -25.071  -2.534  29.457  0.00  0.00    +0.019 A 
ATOM      5  C   UNL A   1     -25.154  -1.717  28.293  0.00  0.00    +0.003 A 
ATOM      6  C   UNL A   1     -24.365  -0.528  28.144  0.00  0.00    +0.015 A 
ENDROOT
BRANCH   4   7
ATOM      7  C   UNL A   1     -25.863  -3.708  29.593  0.00  0.00    -0.003 C 
ATOM      8  C   UNL A   1     -25.264  -4.952  29.222  0.00  0.00    -0.026 C 
ATOM      9  C   UNL A   1     -24.021  -4.932  28.447  0.00  0.00    +0.031 C 
ENDBRANCH   4   7
BRANCH   1  10
ATOM     10  C   UNL A   1     -22.719   0.805  29.311  0.00  0.00    +0.160 C 
BRANCH  10  11
ATOM     11  C   UNL A   1     -21.698   0.637  28.335  0.00  0.00    +0.371 C 
ATOM     12  O   UNL A   1     -20.893  -0.216  28.524  0.00  0.00    -0.245 OA
ATOM     13  O   UNL A   1     -21.568   1.460  27.325  0.00  0.00    -0.245 OA
ENDBRANCH  10  11
ENDBRANCH   1  10
TORSDOF 3
ENDMDL
ENDMDL
