REMARK  Name = No_2383-gen_results/8p0m/2024-11-26-14-13-15/
REMARK  3 active torsions:
REMARK  status: ('A' for Active; 'I' for Inactive)
REMARK    1  A    between atoms: C_1  and  C_2
REMARK    2  A    between atoms: C_1  and  C_4
REMARK    3  A    between atoms: C_7  and  C_11
REMARK                            x       y       z     vdW  Elec       q    Type
REMARK                         _______ _______ _______ _____ _____    ______ ____
ROOT
ATOM      1  C   UNL A   1     -27.064  -0.119  28.608  0.00  0.00    +0.070 A 
ATOM      2  N   UNL A   1     -26.985   0.597  27.522  0.00  0.00    -0.248 NA
ATOM      3  C   UNL A   1     -26.339   1.191  26.942  0.00  0.00    +0.098 A 
ATOM      4  C   UNL A   1     -24.883   1.384  27.444  0.00  0.00    +0.019 A 
ATOM      5  C   UNL A   1     -24.681   0.653  28.650  0.00  0.00    +0.003 A 
ATOM      6  C   UNL A   1     -25.717  -0.152  29.230  0.00  0.00    +0.015 A 
ENDROOT
BRANCH   4   7
ATOM      7  C   UNL A   1     -23.848   2.183  26.882  0.00  0.00    -0.003 C 
ATOM      8  C   UNL A   1     -22.518   1.968  27.360  0.00  0.00    -0.026 C 
ATOM      9  C   UNL A   1     -22.328   1.190  28.588  0.00  0.00    +0.031 C 
ENDBRANCH   4   7
BRANCH   1  10
ATOM     10  C   UNL A   1     -28.016  -0.814  28.878  0.00  0.00    +0.160 C 
BRANCH  10  11
ATOM     11  C   UNL A   1     -28.685  -0.390  30.060  0.00  0.00    +0.371 C 
ATOM     12  O   UNL A   1     -29.805  -0.753  30.217  0.00  0.00    -0.245 OA
ATOM     13  O   UNL A   1     -28.141   0.463  30.890  0.00  0.00    -0.245 OA
ENDBRANCH  10  11
ENDBRANCH   1  10
TORSDOF 3
