MODEL 2384
MODEL 1
REMARK VINA RESULT:    -7.758      0.000      0.000
REMARK INTER + INTRA:         -14.775
REMARK INTER:                 -11.387
REMARK INTRA:                  -3.388
REMARK UNBOUND:                -3.388
REMARK  Name = No_2384-gen_results/8p0m/2024-11-26-14-13-15/
REMARK  8 active torsions:
REMARK  status: ('A' for Active; 'I' for Inactive)
REMARK    1  A    between atoms: C_3  and  C_7
REMARK    2  A    between atoms: C_7  and  N_8
REMARK    3  A    between atoms: N_8  and  C_9
REMARK    4  A    between atoms: C_15  and  C_16
REMARK    5  A    between atoms: C_18  and  C_30
REMARK    6  A    between atoms: C_21  and  C_23
REMARK    7  A    between atoms: C_30  and  N_31
REMARK    8  A    between atoms: N_31  and  C_32
REMARK                            x       y       z     vdW  Elec       q    Type
REMARK                         _______ _______ _______ _____ _____    ______ ____
ROOT
ATOM      1  C   UNL A   1     -10.443   1.213  35.405  0.00  0.00    +0.054 A 
ATOM      2  C   UNL A   1     -10.758   0.890  36.665  0.00  0.00    +0.002 A 
ATOM      3  C   UNL A   1      -9.872   0.164  37.543  0.00  0.00    -0.001 A 
ATOM      4  C   UNL A   1      -8.687  -0.310  36.970  0.00  0.00    -0.003 A 
ATOM      5  C   UNL A   1      -9.243   0.705  34.926  0.00  0.00    +0.004 A 
ATOM      6  C   UNL A   1      -8.411  -0.065  35.706  0.00  0.00    -0.000 A 
ENDROOT
BRANCH   6   7
ATOM      7  C   UNL A   1      -7.127  -0.557  35.180  0.00  0.00    +0.000 A 
ATOM      8  C   UNL A   1      -5.950   0.301  35.361  0.00  0.00    +0.001 A 
ATOM      9  C   UNL A   1      -4.744  -0.160  35.016  0.00  0.00    +0.007 A 
ATOM     10  C   UNL A   1      -4.677  -1.494  34.413  0.00  0.00    +0.035 A 
ATOM     11  C   UNL A   1      -5.801  -2.214  34.161  0.00  0.00    +0.007 A 
ATOM     12  C   UNL A   1      -7.007  -1.815  34.630  0.00  0.00    +0.001 A 
ATOM     13 BR   UNL A   1      -2.974  -2.146  33.831  0.00  0.00    -0.049 Br
ENDBRANCH   6   7
BRANCH   1  15
ATOM     14  N   UNL A   1     -11.493   3.368  34.955  0.00  0.00    -0.251 N 
ATOM     15  C   UNL A   1     -11.201   1.931  34.590  0.00  0.00    +0.253 C 
ATOM     16  O   UNL A   1     -11.367   1.786  33.352  0.00  0.00    -0.270 OA
BRANCH  14  17
ATOM     17  C   UNL A   1     -12.547   3.633  35.654  0.00  0.00    +0.054 A 
ATOM     18  C   UNL A   1     -12.473   4.337  36.841  0.00  0.00    +0.015 A 
ATOM     19  C   UNL A   1     -13.807   2.924  35.442  0.00  0.00    +0.015 A 
ATOM     20  C   UNL A   1     -14.758   2.927  36.489  0.00  0.00    +0.001 A 
ATOM     21  C   UNL A   1     -14.453   3.560  37.650  0.00  0.00    +0.000 A 
ATOM     22  C   UNL A   1     -13.355   4.261  37.862  0.00  0.00    +0.001 A 
ENDBRANCH  14  17
BRANCH  14  23
ATOM     23  C   UNL A   1     -10.481   4.167  34.538  0.00  0.00    +0.125 C 
BRANCH  23  26
ATOM     24  C   UNL A   1      -8.075   3.848  34.361  0.00  0.00    -0.003 A 
ATOM     25  C   UNL A   1      -7.117   3.808  34.798  0.00  0.00    -0.000 A 
ATOM     26  C   UNL A   1      -9.185   4.006  35.221  0.00  0.00    -0.002 A 
ATOM     27  C   UNL A   1      -9.041   4.094  36.591  0.00  0.00    -0.003 A 
ATOM     28  C   UNL A   1      -6.692   3.880  36.210  0.00  0.00    -0.000 A 
ATOM     29  C   UNL A   1      -7.725   4.030  37.067  0.00  0.00    -0.000 A 
ENDBRANCH  23  26
ENDBRANCH  14  23
ENDBRANCH   1  15
BRANCH   3  30
ATOM     30  C   UNL A   1     -10.261  -0.148  38.949  0.00  0.00    +0.139 C 
BRANCH  30  31
ATOM     31  N   UNL A   1     -10.720  -1.074  39.184  0.00  0.00    -0.227 NA
BRANCH  31  32
ATOM     32  C   UNL A   1     -11.529  -1.754  38.930  0.00  0.00    +0.141 C 
ATOM     33  C   UNL A   1     -11.892  -2.632  38.567  0.00  0.00    +0.295 C 
ATOM     34  F   UNL A   1     -12.992  -2.981  38.765  0.00  0.00    -0.171 F 
ATOM     35  F   UNL A   1     -11.787  -2.770  37.178  0.00  0.00    -0.171 F 
ENDBRANCH  31  32
ENDBRANCH  30  31
ENDBRANCH   3  30
TORSDOF 8
ENDMDL
ENDMDL
