MODEL 2385
MODEL 1
REMARK VINA RESULT:    -7.254      0.000      0.000
REMARK INTER + INTRA:          -9.916
REMARK INTER:                  -9.375
REMARK INTRA:                  -0.541
REMARK UNBOUND:                -0.541
REMARK  Name = No_2385-gen_results/8p0m/2024-11-26-14-13-15/
REMARK  5 active torsions:
REMARK  status: ('A' for Active; 'I' for Inactive)
REMARK    1  A    between atoms: C_1  and  C_2
REMARK    2  A    between atoms: C_1  and  C_9
REMARK    3  A    between atoms: C_3  and  C_18
REMARK    4  A    between atoms: C_7  and  C_17
REMARK    5  A    between atoms: C_15  and  C_24
REMARK                            x       y       z     vdW  Elec       q    Type
REMARK                         _______ _______ _______ _____ _____    ______ ____
ROOT
ATOM      1  C   UNL A   1     -25.703   1.590  26.893  0.00  0.00    -0.008 A 
ATOM      2  C   UNL A   1     -24.334   1.503  26.726  0.00  0.00    +0.064 A 
ATOM      3  C   UNL A   1     -23.451   0.600  27.439  0.00  0.00    -0.012 A 
ATOM      4  C   UNL A   1     -24.004  -0.273  28.403  0.00  0.00    +0.051 A 
ATOM      5  C   UNL A   1     -23.279  -1.226  29.156  0.00  0.00    +0.265 C 
ATOM      6  C   UNL A   1     -26.282   0.638  27.895  0.00  0.00    +0.076 A 
ATOM      7  C   UNL A   1     -25.466  -0.280  28.630  0.00  0.00    +0.011 A 
ATOM      8  N   UNL A   1     -22.009  -1.214  29.215  0.00  0.00    -0.201 NA
ATOM      9  O   UNL A   1     -23.841  -2.251  29.732  0.00  0.00    -0.268 OA
ATOM     10  C   UNL A   1     -21.243  -0.082  28.692  0.00  0.00    +0.120 C 
ATOM     11  C   UNL A   1     -21.946   0.759  27.806  0.00  0.00    +0.050 C 
ENDROOT
BRANCH   2  12
ATOM     12  C   UNL A   1     -23.570   2.375  25.817  0.00  0.00    +0.418 C 
ATOM     13  F   UNL A   1     -24.094   3.460  25.618  0.00  0.00    -0.166 F 
ATOM     14  F   UNL A   1     -23.464   1.646  24.652  0.00  0.00    -0.166 F 
ATOM     15  F   UNL A   1     -22.363   2.567  26.209  0.00  0.00    -0.166 F 
ENDBRANCH   2  12
BRANCH   6  16
ATOM     16  C   UNL A   1     -27.686   0.626  28.201  0.00  0.00    +0.388 C 
ATOM     17  O   UNL A   1     -28.444  -0.019  27.668  0.00  0.00    -0.241 OA
ATOM     18  O   UNL A   1     -28.100   1.447  29.164  0.00  0.00    -0.241 OA
ENDBRANCH   6  16
BRANCH   1  19
ATOM     19  C   UNL A   1     -26.413   2.311  26.231  0.00  0.00    +0.053 C 
BRANCH  19  20
ATOM     20  C   UNL A   1     -26.812   1.783  24.877  0.00  0.00    -0.018 A 
ATOM     21  C   UNL A   1     -26.646   0.422  24.597  0.00  0.00    -0.004 A 
ATOM     22  C   UNL A   1     -27.657  -0.302  24.301  0.00  0.00    -0.000 A 
ATOM     23  C   UNL A   1     -28.825   0.321  23.639  0.00  0.00    +0.007 A 
ATOM     24  C   UNL A   1     -28.926   1.728  23.754  0.00  0.00    +0.080 A 
ATOM     25  C   UNL A   1     -28.021   2.366  24.356  0.00  0.00    +0.003 A 
BRANCH  24  26
ATOM     26  C   UNL A   1     -30.165   2.333  23.188  0.00  0.00    +0.388 C 
ATOM     27  O   UNL A   1     -30.595   3.261  23.474  0.00  0.00    -0.241 OA
ATOM     28  O   UNL A   1     -30.947   1.471  22.519  0.00  0.00    -0.241 OA
ENDBRANCH  24  26
ENDBRANCH  19  20
ENDBRANCH   1  19
TORSDOF 5
ENDMDL
ENDMDL
