REMARK  Name = No_2385-gen_results/8p0m/2024-11-26-14-13-15/
REMARK  5 active torsions:
REMARK  status: ('A' for Active; 'I' for Inactive)
REMARK    1  A    between atoms: C_1  and  C_2
REMARK    2  A    between atoms: C_1  and  C_9
REMARK    3  A    between atoms: C_3  and  C_18
REMARK    4  A    between atoms: C_7  and  C_17
REMARK    5  A    between atoms: C_15  and  C_24
REMARK                            x       y       z     vdW  Elec       q    Type
REMARK                         _______ _______ _______ _____ _____    ______ ____
ROOT
ATOM      1  C   UNL A   1     -27.064  -0.119  28.608  0.00  0.00    -0.008 A 
ATOM      2  C   UNL A   1     -27.001   0.691  27.491  0.00  0.00    +0.064 A 
ATOM      3  C   UNL A   1     -25.855   1.482  27.083  0.00  0.00    -0.012 A 
ATOM      4  C   UNL A   1     -24.690   1.453  27.881  0.00  0.00    +0.051 A 
ATOM      5  C   UNL A   1     -23.488   2.145  27.601  0.00  0.00    +0.265 C 
ATOM      6  C   UNL A   1     -25.812  -0.166  29.430  0.00  0.00    +0.076 A 
ATOM      7  C   UNL A   1     -24.646   0.589  29.081  0.00  0.00    +0.011 A 
ATOM      8  N   UNL A   1     -23.428   3.065  26.725  0.00  0.00    -0.201 NA
ATOM      9  O   UNL A   1     -22.340   1.810  28.118  0.00  0.00    -0.268 OA
ATOM     10  C   UNL A   1     -24.646   3.609  26.123  0.00  0.00    +0.120 C 
ATOM     11  C   UNL A   1     -25.798   2.811  26.273  0.00  0.00    +0.050 C 
ENDROOT
BRANCH   2  12
ATOM     12  C   UNL A   1     -28.136   0.901  26.575  0.00  0.00    +0.418 C 
ATOM     13  F   UNL A   1     -28.962   1.700  26.988  0.00  0.00    -0.166 F 
ATOM     14  F   UNL A   1     -28.685  -0.354  26.417  0.00  0.00    -0.166 F 
ATOM     15  F   UNL A   1     -27.767   1.262  25.400  0.00  0.00    -0.166 F 
ENDBRANCH   2  12
BRANCH   6  16
ATOM     16  C   UNL A   1     -25.730  -0.940  30.638  0.00  0.00    +0.388 C 
ATOM     17  O   UNL A   1     -24.775  -1.393  31.034  0.00  0.00    -0.241 OA
ATOM     18  O   UNL A   1     -26.864  -1.138  31.306  0.00  0.00    -0.241 OA
ENDBRANCH   6  16
BRANCH   1  19
ATOM     19  C   UNL A   1     -28.016  -0.814  28.878  0.00  0.00    +0.053 C 
BRANCH  19  20
ATOM     20  C   UNL A   1     -29.229  -0.095  29.410  0.00  0.00    -0.018 A 
ATOM     21  C   UNL A   1     -30.360  -0.836  29.771  0.00  0.00    -0.004 A 
ATOM     22  C   UNL A   1     -30.792  -0.806  30.974  0.00  0.00    -0.000 A 
ATOM     23  C   UNL A   1     -30.567   0.406  31.794  0.00  0.00    +0.007 A 
ATOM     24  C   UNL A   1     -29.540   1.273  31.350  0.00  0.00    +0.080 A 
ATOM     25  C   UNL A   1     -28.919   1.004  30.287  0.00  0.00    +0.003 A 
BRANCH  24  26
ATOM     26  C   UNL A   1     -29.240   2.427  32.245  0.00  0.00    +0.388 C 
ATOM     27  O   UNL A   1     -28.527   3.192  32.061  0.00  0.00    -0.241 OA
ATOM     28  O   UNL A   1     -29.672   2.276  33.507  0.00  0.00    -0.241 OA
ENDBRANCH  24  26
ENDBRANCH  19  20
ENDBRANCH   1  19
TORSDOF 5
