REMARK  Name = No_2386-gen_results/8p0m/2024-11-26-14-13-15/
REMARK  1 active torsions:
REMARK  status: ('A' for Active; 'I' for Inactive)
REMARK    1  A    between atoms: C_5  and  N_7
REMARK                            x       y       z     vdW  Elec       q    Type
REMARK                         _______ _______ _______ _____ _____    ______ ____
ROOT
ATOM      1  C   UNL A   1     -28.016  -0.814  28.878  0.00  0.00    +0.002 A 
ATOM      2  C   UNL A   1     -27.064  -0.119  28.608  0.00  0.00    +0.011 A 
ATOM      3  C   UNL A   1     -26.972   0.714  27.506  0.00  0.00    +0.059 A 
ATOM      4  C   UNL A   1     -28.105   0.774  26.642  0.00  0.00    +0.026 A 
ATOM      5  C   UNL A   1     -29.204   0.118  27.048  0.00  0.00    +0.049 A 
ATOM      6  C   UNL A   1     -29.213  -0.609  28.128  0.00  0.00    +0.015 A 
ATOM      7 CL   UNL A   1     -25.470   1.496  27.045  0.00  0.00    -0.082 Cl
ENDROOT
BRANCH   5   8
ATOM      8  N   UNL A   1     -30.305   0.226  26.193  0.00  0.00    -0.304 N 
ATOM      9  C   UNL A   1     -30.206   0.016  24.903  0.00  0.00    +0.112 C 
ATOM     10  C   UNL A   1     -31.628   0.373  26.707  0.00  0.00    +0.112 C 
ENDBRANCH   5   8
TORSDOF 1
