REMARK  Name = No_2387-gen_results/8p0m/2024-11-26-14-13-15/
REMARK  2 active torsions:
REMARK  status: ('A' for Active; 'I' for Inactive)
REMARK    1  A    between atoms: C_5  and  C_8
REMARK    2  A    between atoms: C_13  and  C_23
REMARK                            x       y       z     vdW  Elec       q    Type
REMARK                         _______ _______ _______ _____ _____    ______ ____
ROOT
ATOM      1  C   UNL A   1     -30.027  -0.028  31.761  0.00  0.00    +0.067 C 
ATOM      2  C   UNL A   1     -29.989   0.952  32.573  0.00  0.00    -0.011 A 
ATOM      3  C   UNL A   1     -30.798   0.908  33.807  0.00  0.00    +0.036 A 
ATOM      4  C   UNL A   1     -30.780   1.984  34.726  0.00  0.00    +0.004 A 
ATOM      5  C   UNL A   1     -29.988   3.108  34.385  0.00  0.00    +0.010 A 
ATOM      6  C   UNL A   1     -29.212   3.169  33.248  0.00  0.00    +0.068 A 
ATOM      7  C   UNL A   1     -29.170   2.094  32.359  0.00  0.00    +0.007 A 
ATOM      8  C   UNL A   1     -30.634  -1.287  31.942  0.00  0.00    -0.011 A 
ATOM      9  C   UNL A   1     -30.532  -2.413  31.128  0.00  0.00    -0.004 A 
ATOM     10  C   UNL A   1     -31.212  -3.527  31.576  0.00  0.00    -0.000 A 
ATOM     11  C   UNL A   1     -31.885  -3.523  32.752  0.00  0.00    +0.000 A 
ATOM     12  C   UNL A   1     -31.966  -2.447  33.548  0.00  0.00    +0.003 A 
ATOM     13  C   UNL A   1     -31.368  -1.299  33.216  0.00  0.00    +0.036 A 
ATOM     14  C   UNL A   1     -31.378  -0.201  34.075  0.00  0.00    +0.195 C 
ATOM     15  O   UNL A   1     -32.262  -0.174  34.998  0.00  0.00    -0.287 OA
ENDROOT
BRANCH   1  20
ATOM     16  C   UNL A   1     -28.016  -0.814  28.878  0.00  0.00    +0.011 A 
ATOM     17  C   UNL A   1     -28.469  -0.785  29.829  0.00  0.00    -0.003 A 
ATOM     18  C   UNL A   1     -28.196   0.348  28.055  0.00  0.00    +0.058 A 
ATOM     19  C   UNL A   1     -29.019   1.350  28.378  0.00  0.00    +0.011 A 
ATOM     20  C   UNL A   1     -29.411   0.180  30.378  0.00  0.00    -0.014 A 
ATOM     21  C   UNL A   1     -29.606   1.250  29.619  0.00  0.00    -0.003 A 
ATOM     22 CL   UNL A   1     -27.347   0.376  26.515  0.00  0.00    -0.082 Cl
ENDBRANCH   1  20
BRANCH   6  23
ATOM     23  C   UNL A   1     -28.372   4.387  32.948  0.00  0.00    +0.100 C 
ATOM     24  N   UNL A   1     -27.677   4.514  32.071  0.00  0.00    -0.191 NA
ENDBRANCH   6  23
TORSDOF 2
