MODEL 2387
MODEL 1
REMARK VINA RESULT:    -7.777      0.000      0.000
REMARK INTER + INTRA:          -9.426
REMARK INTER:                  -8.687
REMARK INTRA:                  -0.739
REMARK UNBOUND:                -0.739
REMARK  Name = No_2387-gen_results/8p0m/2024-11-26-14-13-15/
REMARK  2 active torsions:
REMARK  status: ('A' for Active; 'I' for Inactive)
REMARK    1  A    between atoms: C_5  and  C_8
REMARK    2  A    between atoms: C_13  and  C_23
REMARK                            x       y       z     vdW  Elec       q    Type
REMARK                         _______ _______ _______ _____ _____    ______ ____
ROOT
ATOM      1  C   UNL A   1     -25.625  -1.397  29.177  0.00  0.00    +0.067 C 
ATOM      2  C   UNL A   1     -26.589  -0.918  29.857  0.00  0.00    -0.011 A 
ATOM      3  C   UNL A   1     -27.585  -1.830  30.452  0.00  0.00    +0.036 A 
ATOM      4  C   UNL A   1     -28.671  -1.326  31.209  0.00  0.00    +0.004 A 
ATOM      5  C   UNL A   1     -28.773   0.081  31.329  0.00  0.00    +0.010 A 
ATOM      6  C   UNL A   1     -27.849   0.954  30.796  0.00  0.00    +0.068 A 
ATOM      7  C   UNL A   1     -26.740   0.475  30.098  0.00  0.00    +0.007 A 
ATOM      8  C   UNL A   1     -25.251  -2.747  29.027  0.00  0.00    -0.011 A 
ATOM      9  C   UNL A   1     -24.103  -3.257  28.425  0.00  0.00    -0.004 A 
ATOM     10  C   UNL A   1     -23.982  -4.631  28.456  0.00  0.00    -0.000 A 
ATOM     11  C   UNL A   1     -24.901  -5.411  29.076  0.00  0.00    +0.000 A 
ATOM     12  C   UNL A   1     -25.996  -4.921  29.675  0.00  0.00    +0.003 A 
ATOM     13  C   UNL A   1     -26.238  -3.607  29.696  0.00  0.00    +0.036 A 
ATOM     14  C   UNL A   1     -27.330  -3.082  30.386  0.00  0.00    +0.195 C 
ATOM     15  O   UNL A   1     -28.288  -3.876  30.679  0.00  0.00    -0.287 OA
ENDROOT
BRANCH   1  20
ATOM     16  C   UNL A   1     -24.735   0.589  26.307  0.00  0.00    +0.011 A 
ATOM     17  C   UNL A   1     -25.163  -0.104  26.975  0.00  0.00    -0.003 A 
ATOM     18  C   UNL A   1     -23.500   1.190  26.724  0.00  0.00    +0.058 A 
ATOM     19  C   UNL A   1     -22.986   1.028  27.946  0.00  0.00    +0.011 A 
ATOM     20  C   UNL A   1     -24.794  -0.418  28.348  0.00  0.00    -0.014 A 
ATOM     21  C   UNL A   1     -23.666   0.147  28.757  0.00  0.00    -0.003 A 
ATOM     22 CL   UNL A   1     -22.701   2.255  25.574  0.00  0.00    -0.082 Cl
ENDBRANCH   1  20
BRANCH   6  23
ATOM     23  C   UNL A   1     -28.001   2.446  30.975  0.00  0.00    +0.100 C 
ATOM     24  N   UNL A   1     -27.188   3.164  31.276  0.00  0.00    -0.191 NA
ENDBRANCH   6  23
TORSDOF 2
ENDMDL
ENDMDL
