REMARK  Name = No_2388-gen_results/8p0m/2024-11-26-14-13-15/
REMARK  7 active torsions:
REMARK  status: ('A' for Active; 'I' for Inactive)
REMARK    1  A    between atoms: C_2  and  O_19
REMARK    2  A    between atoms: C_3  and  C_4
REMARK    3  A    between atoms: C_4  and  C_11
REMARK    4  A    between atoms: C_5  and  C_9
REMARK    5  A    between atoms: C_10  and  C_12
REMARK    6  A    between atoms: C_11  and  O_15
REMARK    7  A    between atoms: C_11  and  C_16
REMARK                            x       y       z     vdW  Elec       q    Type
REMARK                         _______ _______ _______ _____ _____    ______ ____
ROOT
ATOM      1  C   UNL A   1     -24.546   0.349  28.823  0.00  0.00    +0.012 C 
ATOM      2  C   UNL A   1     -23.241   0.022  29.332  0.00  0.00    -0.002 C 
ENDROOT
BRANCH   1   5
ATOM      3  C   UNL A   1     -28.016  -0.814  28.878  0.00  0.00    +0.037 A 
ATOM      4  C   UNL A   1     -27.064  -0.119  28.608  0.00  0.00    +0.138 A 
ATOM      5  C   UNL A   1     -25.792  -0.430  29.076  0.00  0.00    +0.033 A 
ATOM      6  C   UNL A   1     -27.882  -1.899  29.863  0.00  0.00    +0.003 A 
ATOM      7  C   UNL A   1     -26.671  -2.327  30.321  0.00  0.00    +0.000 A 
ATOM      8  C   UNL A   1     -25.543  -1.585  29.932  0.00  0.00    +0.003 A 
BRANCH   4   9
ATOM      9  O   UNL A   1     -26.909  -0.232  27.195  0.00  0.00    -0.471 OA
ATOM     10  C   UNL A   1     -27.578  -0.192  26.163  0.00  0.00    +0.253 C 
ENDBRANCH   4   9
ENDBRANCH   1   5
BRANCH   2  11
ATOM     11  C   UNL A   1     -22.192   0.830  29.000  0.00  0.00    -0.003 C 
ATOM     12  C   UNL A   1     -22.147   1.778  28.029  0.00  0.00    +0.001 C 
BRANCH  12  13
ATOM     13  C   UNL A   1     -23.362   2.069  27.461  0.00  0.00    +0.158 C 
ATOM     14 CL   UNL A   1     -23.531   3.272  26.229  0.00  0.00    -0.098 Cl
ATOM     15 BR   UNL A   1     -24.192   2.951  27.060  0.00  0.00    -0.059 Br
ENDBRANCH  12  13
ENDBRANCH   2  11
BRANCH   1  16
ATOM     16  C   UNL A   1     -24.532   1.399  27.816  0.00  0.00    +0.162 C 
BRANCH  16  17
ATOM     17  C   UNL A   1     -25.605   1.903  28.807  0.00  0.00    +0.039 C 
ATOM     18  C   UNL A   1     -26.768   1.860  28.979  0.00  0.00    +0.166 C 
ATOM     19  F   UNL A   1     -27.256   1.064  29.050  0.00  0.00    -0.202 F 
ENDBRANCH  16  17
BRANCH  16  20
ATOM     20  O   UNL A   1     -25.474   0.798  26.772  0.00  0.00    -0.345 OA
ATOM     21  C   UNL A   1     -25.322   0.610  25.441  0.00  0.00    +0.175 C 
ENDBRANCH  16  20
ENDBRANCH   1  16
TORSDOF 7
