MODEL 2388
MODEL 1
REMARK VINA RESULT:    -6.381      0.000      0.000
REMARK INTER + INTRA:          -8.451
REMARK INTER:                  -8.992
REMARK INTRA:                   0.541
REMARK UNBOUND:                 0.541
REMARK  Name = No_2388-gen_results/8p0m/2024-11-26-14-13-15/
REMARK  7 active torsions:
REMARK  status: ('A' for Active; 'I' for Inactive)
REMARK    1  A    between atoms: C_2  and  O_19
REMARK    2  A    between atoms: C_3  and  C_4
REMARK    3  A    between atoms: C_4  and  C_11
REMARK    4  A    between atoms: C_5  and  C_9
REMARK    5  A    between atoms: C_10  and  C_12
REMARK    6  A    between atoms: C_11  and  O_15
REMARK    7  A    between atoms: C_11  and  C_16
REMARK                            x       y       z     vdW  Elec       q    Type
REMARK                         _______ _______ _______ _____ _____    ______ ____
ROOT
ATOM      1  C   UNL A   1     -24.163  -0.942  29.704  0.00  0.00    +0.012 C 
ATOM      2  C   UNL A   1     -23.454  -0.352  28.600  0.00  0.00    -0.002 C 
ENDROOT
BRANCH   1   5
ATOM      3  C   UNL A   1     -26.790  -3.477  29.965  0.00  0.00    +0.037 A 
ATOM      4  C   UNL A   1     -26.258  -2.393  30.036  0.00  0.00    +0.138 A 
ATOM      5  C   UNL A   1     -24.932  -2.218  29.654  0.00  0.00    +0.033 A 
ATOM      6  C   UNL A   1     -25.992  -4.672  29.651  0.00  0.00    +0.003 A 
ATOM      7  C   UNL A   1     -24.709  -4.597  29.194  0.00  0.00    +0.000 A 
ATOM      8  C   UNL A   1     -24.111  -3.326  29.177  0.00  0.00    +0.003 A 
BRANCH   4   9
ATOM      9  O   UNL A   1     -26.958  -1.572  29.104  0.00  0.00    -0.471 OA
ATOM     10  C   UNL A   1     -27.595  -0.520  29.061  0.00  0.00    +0.253 C 
ENDBRANCH   4   9
ENDBRANCH   1   5
BRANCH   2  11
ATOM     11  C   UNL A   1     -22.805   0.831  28.802  0.00  0.00    -0.003 C 
ATOM     12  C   UNL A   1     -22.503   1.782  27.880  0.00  0.00    +0.001 C 
BRANCH  12  13
ATOM     13  C   UNL A   1     -23.094   1.596  26.656  0.00  0.00    +0.158 C 
ATOM     14 CL   UNL A   1     -22.657   2.543  25.275  0.00  0.00    -0.098 Cl
ATOM     15 BR   UNL A   1     -23.620   2.109  25.613  0.00  0.00    -0.059 Br
ENDBRANCH  12  13
ENDBRANCH   2  11
BRANCH   1  16
ATOM     16  C   UNL A   1     -24.280  -0.062  30.857  0.00  0.00    +0.162 C 
BRANCH  16  17
ATOM     17  C   UNL A   1     -23.138  -1.013  31.279  0.00  0.00    +0.039 C 
ATOM     18  C   UNL A   1     -22.546  -1.345  32.240  0.00  0.00    +0.166 C 
ATOM     19  F   UNL A   1     -22.952  -1.695  33.008  0.00  0.00    -0.202 F 
ENDBRANCH  16  17
BRANCH  16  20
ATOM     20  O   UNL A   1     -25.417  -0.747  31.617  0.00  0.00    -0.345 OA
ATOM     21  C   UNL A   1     -26.096  -0.375  32.726  0.00  0.00    +0.175 C 
ENDBRANCH  16  20
ENDBRANCH   1  16
TORSDOF 7
ENDMDL
ENDMDL
