REMARK  Name = No_2389-gen_results/8p0m/2024-11-26-14-13-15/
REMARK  3 active torsions:
REMARK  status: ('A' for Active; 'I' for Inactive)
REMARK    1  A    between atoms: C_5  and  C_10
REMARK    2  A    between atoms: C_15  and  O_21
REMARK    3  A    between atoms: C_19  and  C_20
REMARK                            x       y       z     vdW  Elec       q    Type
REMARK                         _______ _______ _______ _____ _____    ______ ____
ROOT
ATOM      1  C   UNL A   1     -28.016  -0.814  28.878  0.00  0.00    +0.084 C 
ATOM      2  C   UNL A   1     -27.064  -0.119  28.608  0.00  0.00    -0.012 A 
ATOM      3  C   UNL A   1     -27.001   0.691  27.491  0.00  0.00    -0.024 A 
ATOM      4  C   UNL A   1     -25.855   1.482  27.083  0.00  0.00    -0.001 A 
ATOM      5  C   UNL A   1     -24.690   1.453  27.881  0.00  0.00    +0.071 A 
ATOM      6  C   UNL A   1     -24.738   0.601  29.042  0.00  0.00    +0.004 A 
ATOM      7  C   UNL A   1     -25.823  -0.169  29.389  0.00  0.00    -0.003 A 
ATOM      8  N   UNL A   1     -29.215  -0.173  29.013  0.00  0.00    -0.244 NA
ATOM      9  C   UNL A   1     -30.246  -0.774  29.639  0.00  0.00    +0.225 C 
ATOM     10  C   UNL A   1     -30.000  -1.923  30.346  0.00  0.00    +0.082 C 
ATOM     11  C   UNL A   1     -28.741  -2.532  30.400  0.00  0.00    +0.121 C 
ATOM     12  C   UNL A   1     -27.707  -1.853  29.851  0.00  0.00    +0.050 C 
ATOM     13  F   UNL A   1     -31.408  -0.305  29.527  0.00  0.00    -0.219 F 
ATOM     14  C   UNL A   1     -29.495   0.975  28.222  0.00  0.00    +0.079 C 
ATOM     15  C   UNL A   1     -28.367   1.248  27.279  0.00  0.00    +0.038 C 
ENDROOT
BRANCH   5  16
ATOM     16  C   UNL A   1     -23.519   2.203  27.555  0.00  0.00    +0.419 C 
ATOM     17  F   UNL A   1     -22.833   2.540  28.494  0.00  0.00    -0.166 F 
ATOM     18  F   UNL A   1     -23.628   3.134  26.634  0.00  0.00    -0.166 F 
ATOM     19  F   UNL A   1     -22.571   1.271  26.946  0.00  0.00    -0.166 F 
ENDBRANCH   5  16
BRANCH  15  20
ATOM     20  C   UNL A   1     -28.661   1.946  26.029  0.00  0.00    +0.006 C 
ATOM     21  C   UNL A   1     -29.104   1.312  25.040  0.00  0.00    +0.000 C 
ENDBRANCH  15  20
BRANCH  11  22
ATOM     22  O   UNL A   1     -28.560  -3.723  31.070  0.00  0.00    -0.353 OA
ATOM     23  C   UNL A   1     -29.343  -4.290  31.761  0.00  0.00    +0.174 C 
ENDBRANCH  11  22
TORSDOF 3
