MODEL 2389
MODEL 1
REMARK VINA RESULT:    -6.932      0.000      0.000
REMARK INTER + INTRA:          -8.607
REMARK INTER:                  -8.148
REMARK INTRA:                  -0.460
REMARK UNBOUND:                -0.460
REMARK  Name = No_2389-gen_results/8p0m/2024-11-26-14-13-15/
REMARK  3 active torsions:
REMARK  status: ('A' for Active; 'I' for Inactive)
REMARK    1  A    between atoms: C_5  and  C_10
REMARK    2  A    between atoms: C_15  and  O_21
REMARK    3  A    between atoms: C_19  and  C_20
REMARK                            x       y       z     vdW  Elec       q    Type
REMARK                         _______ _______ _______ _____ _____    ______ ____
ROOT
ATOM      1  C   UNL A   1     -24.383   0.559  27.514  0.00  0.00    +0.084 C 
ATOM      2  C   UNL A   1     -25.187   0.740  26.629  0.00  0.00    -0.012 A 
ATOM      3  C   UNL A   1     -25.585   1.992  26.202  0.00  0.00    -0.024 A 
ATOM      4  C   UNL A   1     -26.600   2.261  25.201  0.00  0.00    -0.001 A 
ATOM      5  C   UNL A   1     -27.249   1.171  24.581  0.00  0.00    +0.071 A 
ATOM      6  C   UNL A   1     -26.852  -0.140  25.027  0.00  0.00    +0.004 A 
ATOM      7  C   UNL A   1     -25.914  -0.371  26.005  0.00  0.00    -0.003 A 
ATOM      8  N   UNL A   1     -23.152   1.126  27.339  0.00  0.00    -0.244 NA
ATOM      9  C   UNL A   1     -22.097   0.710  28.068  0.00  0.00    +0.225 C 
ATOM     10  C   UNL A   1     -22.223  -0.442  28.801  0.00  0.00    +0.082 C 
ATOM     11  C   UNL A   1     -23.413  -1.175  28.872  0.00  0.00    +0.121 C 
ATOM     12  C   UNL A   1     -24.419  -0.794  28.051  0.00  0.00    +0.050 C 
ATOM     13  F   UNL A   1     -21.047   1.402  28.103  0.00  0.00    -0.219 F 
ATOM     14  C   UNL A   1     -23.035   2.360  26.644  0.00  0.00    +0.079 C 
ATOM     15  C   UNL A   1     -24.386   2.875  26.260  0.00  0.00    +0.038 C 
ENDROOT
BRANCH   5  16
ATOM     16  C   UNL A   1     -28.257   1.345  23.584  0.00  0.00    +0.419 C 
ATOM     17  F   UNL A   1     -28.509   0.368  22.915  0.00  0.00    -0.166 F 
ATOM     18  F   UNL A   1     -28.237   2.458  22.885  0.00  0.00    -0.166 F 
ATOM     19  F   UNL A   1     -29.538   1.439  24.283  0.00  0.00    -0.166 F 
ENDBRANCH   5  16
BRANCH  15  20
ATOM     20  C   UNL A   1     -24.559   4.317  26.100  0.00  0.00    +0.006 C 
ATOM     21  C   UNL A   1     -24.949   5.018  27.065  0.00  0.00    +0.000 C 
ENDBRANCH  15  20
BRANCH  11  22
ATOM     22  O   UNL A   1     -23.509  -2.291  29.676  0.00  0.00    -0.353 OA
ATOM     23  C   UNL A   1     -24.285  -3.186  29.582  0.00  0.00    +0.174 C 
ENDBRANCH  11  22
TORSDOF 3
ENDMDL
ENDMDL
