MODEL 238
MODEL 1
REMARK VINA RESULT:    -7.197      0.000      0.000
REMARK INTER + INTRA:         -10.316
REMARK INTER:                  -9.301
REMARK INTRA:                  -1.015
REMARK UNBOUND:                -1.015
REMARK  Name = No_238-gen_results/8p0m/2024-11-26-14-13-15/
REMARK  5 active torsions:
REMARK  status: ('A' for Active; 'I' for Inactive)
REMARK    1  A    between atoms: C_1  and  O_14
REMARK    2  A    between atoms: C_2  and  C_8
REMARK    3  A    between atoms: O_14  and  C_15
REMARK    4  A    between atoms: C_15  and  C_16
REMARK    5  A    between atoms: C_15  and  C_17
REMARK                            x       y       z     vdW  Elec       q    Type
REMARK                         _______ _______ _______ _____ _____    ______ ____
ROOT
ATOM      1  C   UNL A   1     -24.180  -0.474  27.659  0.00  0.00    +0.140 A 
ATOM      2  C   UNL A   1     -23.913  -1.189  28.597  0.00  0.00    +0.034 A 
ATOM      3  C   UNL A   1     -22.740  -1.094  29.320  0.00  0.00    +0.004 A 
ATOM      4  C   UNL A   1     -21.816  -0.073  28.961  0.00  0.00    +0.012 A 
ATOM      5  C   UNL A   1     -22.235   0.805  28.021  0.00  0.00    +0.061 A 
ATOM      6  C   UNL A   1     -23.395   0.661  27.409  0.00  0.00    +0.048 A 
ATOM      7 CL   UNL A   1     -21.152   2.056  27.622  0.00  0.00    -0.082 Cl
ENDROOT
BRANCH   2   8
ATOM      8  C   UNL A   1     -24.800  -2.435  28.969  0.00  0.00    +0.003 A 
ATOM      9  C   UNL A   1     -24.430  -3.667  28.678  0.00  0.00    +0.000 A 
ATOM     10  C   UNL A   1     -25.170  -4.811  29.100  0.00  0.00    +0.000 A 
ATOM     11  C   UNL A   1     -26.374  -4.630  29.665  0.00  0.00    +0.000 A 
ATOM     12  C   UNL A   1     -26.040  -2.351  29.645  0.00  0.00    +0.000 A 
ATOM     13  C   UNL A   1     -26.830  -3.398  30.005  0.00  0.00    +0.000 A 
ENDBRANCH   2   8
BRANCH   1  14
ATOM     14  O   UNL A   1     -25.351  -0.566  26.922  0.00  0.00    -0.463 OA
BRANCH  14  15
ATOM     15  C   UNL A   1     -25.981  -0.095  26.275  0.00  0.00    +0.324 C 
BRANCH  15  16
ATOM     16  C   UNL A   1     -25.850  -0.389  24.949  0.00  0.00    +0.442 C 
ATOM     17  F   UNL A   1     -25.705  -1.564  24.603  0.00  0.00    -0.166 F 
ATOM     18  F   UNL A   1     -24.660   0.214  24.448  0.00  0.00    -0.166 F 
ATOM     19  F   UNL A   1     -26.880   0.209  24.271  0.00  0.00    -0.166 F 
ENDBRANCH  15  16
BRANCH  15  20
ATOM     20  C   UNL A   1     -27.088   0.789  26.630  0.00  0.00    +0.260 C 
ATOM     21  O   UNL A   1     -26.972   1.622  27.267  0.00  0.00    -0.284 OA
ENDBRANCH  15  20
ENDBRANCH  14  15
ENDBRANCH   1  14
TORSDOF 5
ENDMDL
ENDMDL
