REMARK  Name = No_239-gen_results/8p0m/2024-11-26-14-13-15/
REMARK  4 active torsions:
REMARK  status: ('A' for Active; 'I' for Inactive)
REMARK    1  A    between atoms: C_2  and  C_14
REMARK    2  A    between atoms: C_3  and  C_7
REMARK    3  A    between atoms: N_8  and  C_11
REMARK    4  A    between atoms: C_11  and  C_13
REMARK                            x       y       z     vdW  Elec       q    Type
REMARK                         _______ _______ _______ _____ _____    ______ ____
ROOT
ATOM      1  C   UNL A   1     -26.471   0.196  27.131  0.00  0.00    +0.249 C 
ATOM      2  N   UNL A   1     -27.054   0.666  26.184  0.00  0.00    -0.272 N 
ATOM      3  O   UNL A   1     -25.277  -0.299  27.000  0.00  0.00    -0.270 OA
ATOM      4  C   UNL A   1     -26.579   0.608  24.813  0.00  0.00    +0.115 C 
ENDROOT
BRANCH   1   7
ATOM      5  C   UNL A   1     -28.016  -0.814  28.878  0.00  0.00    +0.011 A 
ATOM      6  C   UNL A   1     -28.469  -0.785  29.829  0.00  0.00    +0.080 A 
ATOM      7  C   UNL A   1     -27.136   0.236  28.535  0.00  0.00    +0.054 A 
ATOM      8  C   UNL A   1     -26.805   1.051  29.276  0.00  0.00    +0.004 A 
ATOM      9  C   UNL A   1     -28.237   0.150  30.930  0.00  0.00    +0.007 A 
ATOM     10  C   UNL A   1     -27.352   1.124  30.607  0.00  0.00    +0.000 A 
BRANCH   6  11
ATOM     11  C   UNL A   1     -29.519  -1.898  30.331  0.00  0.00    +0.388 C 
ATOM     12  O   UNL A   1     -29.376  -2.639  31.063  0.00  0.00    -0.241 OA
ATOM     13  O   UNL A   1     -30.725  -1.645  29.861  0.00  0.00    -0.241 OA
ENDBRANCH   6  11
ENDBRANCH   1   7
BRANCH   2  14
ATOM     14  C   UNL A   1     -28.412   1.269  26.219  0.00  0.00    +0.098 C 
ATOM     15  C   UNL A   1     -28.250   2.623  26.014  0.00  0.00    +0.026 C 
BRANCH  14  16
ATOM     16  C   UNL A   1     -29.334   0.656  25.236  0.00  0.00    -0.004 A 
ATOM     17  C   UNL A   1     -30.126  -0.309  25.538  0.00  0.00    -0.003 A 
ATOM     18  C   UNL A   1     -31.031  -0.958  24.699  0.00  0.00    -0.000 A 
ATOM     19  C   UNL A   1     -30.977  -0.523  23.403  0.00  0.00    -0.000 A 
ATOM     20  C   UNL A   1     -29.392   0.977  23.887  0.00  0.00    -0.003 A 
ATOM     21  C   UNL A   1     -30.182   0.434  22.999  0.00  0.00    -0.000 A 
ENDBRANCH  14  16
ENDBRANCH   2  14
TORSDOF 4
