MODEL 2390
MODEL 1
REMARK VINA RESULT:    -6.747      0.000      0.000
REMARK INTER + INTRA:          -8.709
REMARK INTER:                  -8.324
REMARK INTRA:                  -0.385
REMARK UNBOUND:                -0.385
REMARK  Name = No_2390-gen_results/8p0m/2024-11-26-14-13-15/
REMARK  4 active torsions:
REMARK  status: ('A' for Active; 'I' for Inactive)
REMARK    1  A    between atoms: C_1  and  C_12
REMARK    2  A    between atoms: C_5  and  C_6
REMARK    3  A    between atoms: C_6  and  C_11
REMARK    4  A    between atoms: C_13  and  C_17
REMARK                            x       y       z     vdW  Elec       q    Type
REMARK                         _______ _______ _______ _____ _____    ______ ____
ROOT
ATOM      1  C   UNL A   1     -29.463  -9.685  31.855  0.00  0.00    +0.080 A 
ATOM      2  C   UNL A   1     -29.829 -10.291  30.874  0.00  0.00    +0.006 A 
ATOM      3  C   UNL A   1     -29.041 -11.206  30.203  0.00  0.00    +0.000 A 
ATOM      4  C   UNL A   1     -29.230 -11.453  28.845  0.00  0.00    -0.004 A 
ATOM      5  C   UNL A   1     -30.389 -10.953  28.120  0.00  0.00    -0.015 A 
ATOM      6  C   UNL A   1     -28.889 -10.429  32.876  0.00  0.00    +0.013 A 
ATOM      7  C   UNL A   1     -30.783  -9.655  29.837  0.00  0.00    -0.000 A 
ATOM      8  C   UNL A   1     -31.216  -9.960  28.654  0.00  0.00    -0.004 A 
ATOM      9  C   UNL A   1     -28.291 -11.559  32.620  0.00  0.00    +0.080 A 
ATOM     10  C   UNL A   1     -28.217 -11.996  31.086  0.00  0.00    +0.007 A 
ENDROOT
BRANCH   1  11
ATOM     11  C   UNL A   1     -30.168  -8.437  32.344  0.00  0.00    +0.388 C 
ATOM     12  O   UNL A   1     -31.318  -8.440  32.972  0.00  0.00    -0.241 OA
ATOM     13  O   UNL A   1     -29.656  -7.292  32.101  0.00  0.00    -0.241 OA
ENDBRANCH   1  11
BRANCH   9  14
ATOM     14  C   UNL A   1     -27.375 -12.336  33.470  0.00  0.00    +0.388 C 
ATOM     15  O   UNL A   1     -27.289 -12.455  34.507  0.00  0.00    -0.241 OA
ATOM     16  O   UNL A   1     -26.508 -12.973  32.635  0.00  0.00    -0.241 OA
ENDBRANCH   9  14
BRANCH   5  17
ATOM     17  C   UNL A   1     -30.691 -11.289  26.810  0.00  0.00    +0.087 C 
ATOM     18  C   UNL A   1     -29.772 -11.900  25.872  0.00  0.00    +0.013 C 
BRANCH  17  19
ATOM     19  C   UNL A   1     -32.085 -11.543  26.368  0.00  0.00    +0.211 C 
ATOM     20  O   UNL A   1     -32.341 -12.129  25.384  0.00  0.00    -0.288 OA
ENDBRANCH  17  19
ENDBRANCH   5  17
TORSDOF 4
ENDMDL
ENDMDL
