REMARK  Name = No_2390-gen_results/8p0m/2024-11-26-14-13-15/
REMARK  4 active torsions:
REMARK  status: ('A' for Active; 'I' for Inactive)
REMARK    1  A    between atoms: C_1  and  C_12
REMARK    2  A    between atoms: C_5  and  C_6
REMARK    3  A    between atoms: C_6  and  C_11
REMARK    4  A    between atoms: C_13  and  C_17
REMARK                            x       y       z     vdW  Elec       q    Type
REMARK                         _______ _______ _______ _____ _____    ______ ____
ROOT
ATOM      1  C   UNL A   1     -28.016  -0.814  28.878  0.00  0.00    +0.080 A 
ATOM      2  C   UNL A   1     -27.064  -0.119  28.608  0.00  0.00    +0.006 A 
ATOM      3  C   UNL A   1     -27.001   0.691  27.491  0.00  0.00    +0.000 A 
ATOM      4  C   UNL A   1     -25.777   1.021  26.913  0.00  0.00    -0.004 A 
ATOM      5  C   UNL A   1     -24.509   0.736  27.569  0.00  0.00    -0.015 A 
ATOM      6  C   UNL A   1     -29.265  -0.210  28.845  0.00  0.00    +0.013 A 
ATOM      7  C   UNL A   1     -25.619  -0.557  28.942  0.00  0.00    -0.000 A 
ATOM      8  C   UNL A   1     -24.426  -0.140  28.656  0.00  0.00    -0.004 A 
ATOM      9  C   UNL A   1     -29.484   0.824  28.082  0.00  0.00    +0.080 A 
ATOM     10  C   UNL A   1     -28.266   1.308  27.169  0.00  0.00    +0.007 A 
ENDROOT
BRANCH   1  11
ATOM     11  C   UNL A   1     -27.928  -1.958  29.867  0.00  0.00    +0.388 C 
ATOM     12  O   UNL A   1     -26.849  -2.671  30.073  0.00  0.00    -0.241 OA
ATOM     13  O   UNL A   1     -28.971  -2.303  30.520  0.00  0.00    -0.241 OA
ENDBRANCH   1  11
BRANCH   9  14
ATOM     14  C   UNL A   1     -30.766   1.415  27.667  0.00  0.00    +0.388 C 
ATOM     15  O   UNL A   1     -31.092   1.866  26.780  0.00  0.00    -0.241 OA
ATOM     16  O   UNL A   1     -31.611   1.308  28.729  0.00  0.00    -0.241 OA
ENDBRANCH   9  14
BRANCH   5  17
ATOM     17  C   UNL A   1     -23.278   1.168  27.102  0.00  0.00    +0.087 C 
ATOM     18  C   UNL A   1     -23.079   2.170  26.076  0.00  0.00    +0.013 C 
BRANCH  17  19
ATOM     19  C   UNL A   1     -22.046   1.054  27.922  0.00  0.00    +0.211 C 
ATOM     20  O   UNL A   1     -21.966   0.341  28.851  0.00  0.00    -0.288 OA
ENDBRANCH  17  19
ENDBRANCH   5  17
TORSDOF 4
