REMARK  Name = No_2391-gen_results/8p0m/2024-11-26-14-13-15/
REMARK  4 active torsions:
REMARK  status: ('A' for Active; 'I' for Inactive)
REMARK    1  A    between atoms: C_2  and  C_15
REMARK    2  A    between atoms: C_4  and  C_7
REMARK    3  A    between atoms: C_15  and  N_17
REMARK    4  A    between atoms: N_17  and  C_18
REMARK                            x       y       z     vdW  Elec       q    Type
REMARK                         _______ _______ _______ _____ _____    ______ ____
ROOT
ATOM      1  C   UNL A   1     -28.016  -0.814  28.878  0.00  0.00    +0.030 A 
ATOM      2  C   UNL A   1     -28.469  -0.785  29.829  0.00  0.00    +0.031 A 
ATOM      3  C   UNL A   1     -26.546  -0.876  28.850  0.00  0.00    +0.140 A 
ATOM      4  C   UNL A   1     -25.804  -1.032  30.057  0.00  0.00    +0.028 A 
ATOM      5  C   UNL A   1     -26.537  -1.039  31.217  0.00  0.00    +0.002 A 
ATOM      6  C   UNL A   1     -27.884  -0.953  31.186  0.00  0.00    +0.000 A 
ATOM      7  F   UNL A   1     -25.861  -0.804  27.738  0.00  0.00    -0.204 F 
ENDROOT
BRANCH   4   8
ATOM      8  C   UNL A   1     -24.366  -1.113  30.048  0.00  0.00    +0.003 A 
ATOM      9  C   UNL A   1     -23.745  -1.369  30.812  0.00  0.00    +0.000 A 
ATOM     10  C   UNL A   1     -22.570  -0.817  31.227  0.00  0.00    +0.001 A 
ATOM     11  C   UNL A   1     -21.794  -0.196  30.207  0.00  0.00    +0.011 A 
ATOM     12  C   UNL A   1     -22.467   0.045  28.983  0.00  0.00    +0.058 A 
ATOM     13  C   UNL A   1     -23.866  -0.326  28.870  0.00  0.00    +0.011 A 
ATOM     14 CL   UNL A   1     -21.684   0.937  27.796  0.00  0.00    -0.082 Cl
ENDBRANCH   4   8
BRANCH   2  15
ATOM     15  C   UNL A   1     -30.073  -0.728  29.915  0.00  0.00    +0.267 C 
ATOM     16  O   UNL A   1     -30.735  -1.583  30.068  0.00  0.00    -0.194 OA
BRANCH  15  17
ATOM     17  N   UNL A   1     -30.539   0.548  29.701  0.00  0.00    -0.203 NA
BRANCH  17  18
ATOM     18  C   UNL A   1     -29.809   1.763  29.519  0.00  0.00    +0.079 C 
ATOM     19  C   UNL A   1     -29.667   2.472  28.613  0.00  0.00    -0.008 C 
ATOM     20  C   UNL A   1     -28.738   3.568  28.531  0.00  0.00    +0.032 C 
ENDBRANCH  17  18
ENDBRANCH  15  17
ENDBRANCH   2  15
TORSDOF 4
