MODEL 2392
MODEL 1
REMARK VINA RESULT:    -8.674      0.000      0.000
REMARK INTER + INTRA:         -16.978
REMARK INTER:                 -12.730
REMARK INTRA:                  -4.248
REMARK UNBOUND:                -4.248
REMARK  Name = No_2392-gen_results/8p0m/2024-11-26-14-13-15/
REMARK  8 active torsions:
REMARK  status: ('A' for Active; 'I' for Inactive)
REMARK    1  A    between atoms: C_3  and  C_4
REMARK    2  A    between atoms: C_4  and  C_12
REMARK    3  A    between atoms: C_5  and  C_6
REMARK    4  A    between atoms: C_6  and  C_21
REMARK    5  A    between atoms: C_7  and  C_11
REMARK    6  A    between atoms: C_15  and  C_17
REMARK    7  A    between atoms: C_21  and  C_22
REMARK    8  A    between atoms: C_28  and  C_29
REMARK                            x       y       z     vdW  Elec       q    Type
REMARK                         _______ _______ _______ _____ _____    ______ ____
ROOT
ATOM      1  C   UNL A   1     -24.482  -1.382  28.681  0.00  0.00    -0.000 C 
ATOM      2  C   UNL A   1     -23.466  -1.241  28.996  0.00  0.00    -0.004 C 
ENDROOT
BRANCH   1   5
ATOM      3  C   UNL A   1     -26.273   0.345  28.078  0.00  0.00    -0.000 A 
ATOM      4  C   UNL A   1     -26.672   0.890  27.269  0.00  0.00    -0.000 A 
ATOM      5  C   UNL A   1     -25.288  -0.665  27.674  0.00  0.00    -0.000 A 
ATOM      6  C   UNL A   1     -26.661   0.702  25.849  0.00  0.00    +0.000 A 
ATOM      7  C   UNL A   1     -25.150  -0.939  26.344  0.00  0.00    -0.000 A 
ATOM      8  C   UNL A   1     -25.826  -0.231  25.444  0.00  0.00    -0.000 A 
ENDBRANCH   1   5
BRANCH   1   9
ATOM      9  C   UNL A   1     -25.208  -2.629  28.905  0.00  0.00    +0.000 A 
ATOM     10  C   UNL A   1     -26.246  -2.965  29.389  0.00  0.00    +0.007 A 
ATOM     11  C   UNL A   1     -24.331  -3.843  28.645  0.00  0.00    +0.000 A 
ATOM     12  C   UNL A   1     -26.706  -4.206  29.754  0.00  0.00    +0.080 A 
ATOM     13  C   UNL A   1     -24.712  -5.101  28.874  0.00  0.00    +0.000 A 
ATOM     14  C   UNL A   1     -25.911  -5.283  29.449  0.00  0.00    +0.007 A 
BRANCH  12  15
ATOM     15  C   UNL A   1     -28.023  -4.479  30.361  0.00  0.00    +0.388 C 
ATOM     16  O   UNL A   1     -28.260  -5.325  30.976  0.00  0.00    -0.241 OA
ATOM     17  O   UNL A   1     -28.957  -3.521  30.068  0.00  0.00    -0.241 OA
ENDBRANCH  12  15
ENDBRANCH   1   9
BRANCH   2  18
ATOM     18  C   UNL A   1     -22.552  -0.492  29.507  0.00  0.00    -0.018 C 
ATOM     19  C   UNL A   1     -21.494   0.068  28.809  0.00  0.00    -0.004 C 
BRANCH  19  20
ATOM     20  C   UNL A   1     -20.979   0.638  27.980  0.00  0.00    -0.000 C 
ATOM     21  C   UNL A   1     -21.632   1.855  27.429  0.00  0.00    -0.000 C 
BRANCH  21  22
ATOM     22  C   UNL A   1     -22.842   1.902  26.759  0.00  0.00    -0.000 C 
ATOM     23  C   UNL A   1     -22.922   2.287  25.434  0.00  0.00    -0.000 C 
ENDBRANCH  21  22
ENDBRANCH  19  20
BRANCH  18  24
ATOM     24  C   UNL A   1     -22.393  -0.274  30.969  0.00  0.00    +0.053 C 
BRANCH  24  25
ATOM     25  C   UNL A   1     -23.383  -0.364  31.902  0.00  0.00    -0.018 A 
ATOM     26  C   UNL A   1     -23.234  -1.233  33.022  0.00  0.00    -0.004 A 
ATOM     27  C   UNL A   1     -24.139  -1.173  34.110  0.00  0.00    -0.000 A 
ATOM     28  C   UNL A   1     -24.473   0.626  32.038  0.00  0.00    -0.004 A 
ATOM     29  C   UNL A   1     -25.381   0.515  33.050  0.00  0.00    -0.000 A 
ATOM     30  C   UNL A   1     -25.254  -0.387  34.083  0.00  0.00    -0.000 A 
ENDBRANCH  24  25
ENDBRANCH  18  24
ENDBRANCH   2  18
TORSDOF 8
ENDMDL
ENDMDL
