REMARK  Name = No_2392-gen_results/8p0m/2024-11-26-14-13-15/
REMARK  8 active torsions:
REMARK  status: ('A' for Active; 'I' for Inactive)
REMARK    1  A    between atoms: C_3  and  C_4
REMARK    2  A    between atoms: C_4  and  C_12
REMARK    3  A    between atoms: C_5  and  C_6
REMARK    4  A    between atoms: C_6  and  C_21
REMARK    5  A    between atoms: C_7  and  C_11
REMARK    6  A    between atoms: C_15  and  C_17
REMARK    7  A    between atoms: C_21  and  C_22
REMARK    8  A    between atoms: C_28  and  C_29
REMARK                            x       y       z     vdW  Elec       q    Type
REMARK                         _______ _______ _______ _____ _____    ______ ____
ROOT
ATOM      1  C   UNL A   1     -27.450   0.643  26.850  0.00  0.00    -0.000 C 
ATOM      2  C   UNL A   1     -26.453   0.994  26.668  0.00  0.00    -0.004 C 
ENDROOT
BRANCH   1   5
ATOM      3  C   UNL A   1     -28.016  -0.814  28.878  0.00  0.00    -0.000 A 
ATOM      4  C   UNL A   1     -28.469  -0.785  29.829  0.00  0.00    -0.000 A 
ATOM      5  C   UNL A   1     -28.182   0.428  28.113  0.00  0.00    -0.000 A 
ATOM      6  C   UNL A   1     -29.421   0.090  30.445  0.00  0.00    +0.000 A 
ATOM      7  C   UNL A   1     -29.046   1.371  28.590  0.00  0.00    -0.000 A 
ATOM      8  C   UNL A   1     -29.639   1.197  29.767  0.00  0.00    -0.000 A 
ENDBRANCH   1   5
BRANCH   1   9
ATOM      9  C   UNL A   1     -28.493   0.676  25.828  0.00  0.00    +0.000 A 
ATOM     10  C   UNL A   1     -29.588   0.227  25.678  0.00  0.00    +0.007 A 
ATOM     11  C   UNL A   1     -27.979   1.260  24.522  0.00  0.00    +0.000 A 
ATOM     12  C   UNL A   1     -30.375   0.137  24.556  0.00  0.00    +0.080 A 
ATOM     13  C   UNL A   1     -28.693   1.310  23.396  0.00  0.00    +0.000 A 
ATOM     14  C   UNL A   1     -29.902   0.728  23.411  0.00  0.00    +0.007 A 
BRANCH  12  15
ATOM     15  C   UNL A   1     -31.723  -0.461  24.510  0.00  0.00    +0.388 C 
ATOM     16  O   UNL A   1     -32.528  -0.131  23.883  0.00  0.00    -0.241 OA
ATOM     17  O   UNL A   1     -31.869  -1.522  25.365  0.00  0.00    -0.241 OA
ENDBRANCH  12  15
ENDBRANCH   1   9
BRANCH   2  18
ATOM     18  C   UNL A   1     -25.181   0.862  26.817  0.00  0.00    -0.018 C 
ATOM     19  C   UNL A   1     -24.219   1.677  26.240  0.00  0.00    -0.004 C 
BRANCH  19  20
ATOM     20  C   UNL A   1     -23.712   2.644  25.950  0.00  0.00    -0.000 C 
ATOM     21  C   UNL A   1     -23.959   3.861  26.768  0.00  0.00    -0.000 C 
BRANCH  21  22
ATOM     22  C   UNL A   1     -25.174   4.504  26.932  0.00  0.00    -0.000 C 
ATOM     23  C   UNL A   1     -25.291   5.646  27.702  0.00  0.00    -0.000 C 
ENDBRANCH  21  22
ENDBRANCH  19  20
BRANCH  18  24
ATOM     24  C   UNL A   1     -24.550  -0.308  27.482  0.00  0.00    +0.053 C 
BRANCH  24  25
ATOM     25  C   UNL A   1     -23.976  -0.310  28.718  0.00  0.00    -0.018 A 
ATOM     26  C   UNL A   1     -23.623  -1.542  29.342  0.00  0.00    -0.004 A 
ATOM     27  C   UNL A   1     -22.827  -1.558  30.513  0.00  0.00    -0.000 A 
ATOM     28  C   UNL A   1     -23.367   0.886  29.340  0.00  0.00    -0.004 A 
ATOM     29  C   UNL A   1     -22.736   0.789  30.546  0.00  0.00    -0.000 A 
ATOM     30  C   UNL A   1     -22.474  -0.412  31.166  0.00  0.00    -0.000 A 
ENDBRANCH  24  25
ENDBRANCH  18  24
ENDBRANCH   2  18
TORSDOF 8
