MODEL 2393
MODEL 1
REMARK VINA RESULT:    -4.247      0.000      0.000
REMARK INTER + INTRA:          -4.247
REMARK INTER:                  -4.247
REMARK INTRA:                   0.000
REMARK UNBOUND:                 0.000
REMARK  Name = No_2393-gen_results/8p0m/2024-11-26-14-13-15/
REMARK  0 active torsions:
REMARK  status: ('A' for Active; 'I' for Inactive)
REMARK                            x       y       z     vdW  Elec       q    Type
REMARK                         _______ _______ _______ _____ _____    ______ ____
ROOT
ATOM      1  C   UNL A   1     -25.094  -5.304  29.143  0.00  0.00    +0.000 A 
ATOM      2  C   UNL A   1     -26.066  -4.721  29.566  0.00  0.00    +0.000 A 
ATOM      3  C   UNL A   1     -26.107  -3.357  29.778  0.00  0.00    +0.000 A 
ATOM      4  C   UNL A   1     -24.953  -2.595  29.443  0.00  0.00    +0.000 A 
ATOM      5  C   UNL A   1     -23.958  -3.265  28.817  0.00  0.00    +0.000 A 
ATOM      6  C   UNL A   1     -24.021  -4.568  28.618  0.00  0.00    +0.000 A 
ENDROOT
TORSDOF 0
ENDMDL
ENDMDL
