MODEL 2394
MODEL 1
REMARK VINA RESULT:    -4.107      0.000      0.000
REMARK INTER + INTRA:          -4.442
REMARK INTER:                  -4.347
REMARK INTRA:                  -0.095
REMARK UNBOUND:                -0.095
REMARK  Name = No_2394-gen_results/8p0m/2024-11-26-14-13-15/
REMARK  1 active torsions:
REMARK  status: ('A' for Active; 'I' for Inactive)
REMARK    1  A    between atoms: C_2  and  C_3
REMARK                            x       y       z     vdW  Elec       q    Type
REMARK                         _______ _______ _______ _____ _____    ______ ____
ROOT
ATOM      1  O   UNL A   1      -9.504 -11.531  17.615  0.00  0.00    -0.254 OA
ATOM      2  C   UNL A   1      -9.351 -10.421  17.886  0.00  0.00    +0.333 C 
ATOM      3  F   UNL A   1      -8.438  -9.851  16.820  0.00  0.00    -0.159 F 
ENDROOT
BRANCH   2   4
ATOM      4  C   UNL A   1      -9.704  -9.663  18.576  0.00  0.00    +0.069 C 
ATOM      5  C   UNL A   1      -9.297  -9.249  19.929  0.00  0.00    -0.020 C 
ATOM      6  C   UNL A   1      -7.903  -9.739  20.149  0.00  0.00    +0.031 C 
ENDBRANCH   2   4
TORSDOF 1
ENDMDL
ENDMDL
