REMARK  Name = No_2395-gen_results/8p0m/2024-11-26-14-13-15/
REMARK  0 active torsions:
REMARK  status: ('A' for Active; 'I' for Inactive)
REMARK                            x       y       z     vdW  Elec       q    Type
REMARK                         _______ _______ _______ _____ _____    ______ ____
ROOT
ATOM      1  F   UNL A   1     -28.073  -1.254  28.532  0.00  0.00    -0.140 F 
ATOM      2  C   UNL A   1     -28.266  -0.421  29.193  0.00  0.00    +0.561 C 
ATOM      3  F   UNL A   1     -29.440  -0.182  29.365  0.00  0.00    -0.140 F 
ATOM      4  F   UNL A   1     -27.696  -0.709  30.432  0.00  0.00    -0.140 F 
ATOM      5  F   UNL A   1     -27.600   0.624  28.704  0.00  0.00    -0.140 F 
ENDROOT
TORSDOF 0
