MODEL 2396
MODEL 1
REMARK VINA RESULT:    -6.397      0.000      0.000
REMARK INTER + INTRA:          -8.454
REMARK INTER:                  -7.893
REMARK INTRA:                  -0.560
REMARK UNBOUND:                -0.560
REMARK  Name = No_2396-gen_results/8p0m/2024-11-26-14-13-15/
REMARK  4 active torsions:
REMARK  status: ('A' for Active; 'I' for Inactive)
REMARK    1  A    between atoms: C_2  and  C_11
REMARK    2  A    between atoms: C_3  and  C_7
REMARK    3  A    between atoms: C_6  and  C_14
REMARK    4  A    between atoms: C_15  and  C_16
REMARK                            x       y       z     vdW  Elec       q    Type
REMARK                         _______ _______ _______ _____ _____    ______ ____
ROOT
ATOM      1  C   UNL A   1     -24.480  -1.896  30.964  0.00  0.00    +0.010 A 
ATOM      2  C   UNL A   1     -23.929  -1.096  31.373  0.00  0.00    +0.080 A 
ATOM      3  C   UNL A   1     -24.106  -2.367  29.686  0.00  0.00    +0.072 A 
ATOM      4  C   UNL A   1     -23.065  -1.803  28.975  0.00  0.00    +0.004 A 
ATOM      5  C   UNL A   1     -22.789  -0.328  30.834  0.00  0.00    +0.007 A 
ATOM      6  C   UNL A   1     -22.400  -0.747  29.610  0.00  0.00    +0.000 A 
ENDROOT
BRANCH   3   7
ATOM      7  C   UNL A   1     -24.774  -3.531  29.010  0.00  0.00    +0.419 C 
ATOM      8  F   UNL A   1     -24.896  -3.441  27.985  0.00  0.00    -0.166 F 
ATOM      9  F   UNL A   1     -26.036  -3.836  29.570  0.00  0.00    -0.166 F 
ATOM     10  F   UNL A   1     -24.131  -4.771  29.333  0.00  0.00    -0.166 F 
ENDBRANCH   3   7
BRANCH   2  11
ATOM     11  C   UNL A   1     -24.237  -0.591  32.883  0.00  0.00    +0.388 C 
ATOM     12  O   UNL A   1     -23.867  -1.332  33.816  0.00  0.00    -0.241 OA
ATOM     13  O   UNL A   1     -25.176   0.127  33.103  0.00  0.00    -0.241 OA
ENDBRANCH   2  11
BRANCH   6  14
ATOM     14  C   UNL A   1     -21.272  -0.093  28.873  0.00  0.00    +0.002 C 
ATOM     15  C   UNL A   1     -21.304   0.799  28.040  0.00  0.00    +0.020 C 
BRANCH  15  16
ATOM     16  C   UNL A   1     -22.574   1.445  27.677  0.00  0.00    +0.093 C 
ATOM     17  N   UNL A   1     -23.052   2.304  27.911  0.00  0.00    -0.267 NA
ATOM     18  C   UNL A   1     -24.311   2.691  27.451  0.00  0.00    +0.152 C 
ENDBRANCH  15  16
ENDBRANCH   6  14
TORSDOF 4
ENDMDL
ENDMDL
