REMARK  Name = No_2396-gen_results/8p0m/2024-11-26-14-13-15/
REMARK  4 active torsions:
REMARK  status: ('A' for Active; 'I' for Inactive)
REMARK    1  A    between atoms: C_2  and  C_11
REMARK    2  A    between atoms: C_3  and  C_7
REMARK    3  A    between atoms: C_6  and  C_14
REMARK    4  A    between atoms: C_15  and  C_16
REMARK                            x       y       z     vdW  Elec       q    Type
REMARK                         _______ _______ _______ _____ _____    ______ ____
ROOT
ATOM      1  C   UNL A   1     -28.016  -0.814  28.878  0.00  0.00    +0.010 A 
ATOM      2  C   UNL A   1     -28.469  -0.785  29.829  0.00  0.00    +0.080 A 
ATOM      3  C   UNL A   1     -27.136   0.236  28.535  0.00  0.00    +0.072 A 
ATOM      4  C   UNL A   1     -26.875   1.282  29.398  0.00  0.00    +0.004 A 
ATOM      5  C   UNL A   1     -28.361   0.199  30.924  0.00  0.00    +0.007 A 
ATOM      6  C   UNL A   1     -27.528   1.223  30.636  0.00  0.00    +0.000 A 
ENDROOT
BRANCH   3   7
ATOM      7  C   UNL A   1     -26.388   0.291  27.233  0.00  0.00    +0.419 C 
ATOM      8  F   UNL A   1     -25.779  -0.523  27.034  0.00  0.00    -0.166 F 
ATOM      9  F   UNL A   1     -25.603   1.460  27.104  0.00  0.00    -0.166 F 
ATOM     10  F   UNL A   1     -27.267   0.544  26.128  0.00  0.00    -0.166 F 
ENDBRANCH   3   7
BRANCH   2  11
ATOM     11  C   UNL A   1     -29.395  -2.022  30.322  0.00  0.00    +0.388 C 
ATOM     12  O   UNL A   1     -29.767  -2.014  31.513  0.00  0.00    -0.241 OA
ATOM     13  O   UNL A   1     -29.303  -3.097  29.792  0.00  0.00    -0.241 OA
ENDBRANCH   2  11
BRANCH   6  14
ATOM     14  C   UNL A   1     -27.287   2.342  31.602  0.00  0.00    +0.002 C 
ATOM     15  C   UNL A   1     -27.153   3.536  31.386  0.00  0.00    +0.020 C 
BRANCH  15  16
ATOM     16  C   UNL A   1     -27.292   4.076  30.026  0.00  0.00    +0.093 C 
ATOM     17  N   UNL A   1     -27.954   3.989  29.267  0.00  0.00    -0.267 NA
ATOM     18  C   UNL A   1     -27.846   4.592  28.014  0.00  0.00    +0.152 C 
ENDBRANCH  15  16
ENDBRANCH   6  14
TORSDOF 4
