REMARK  Name = No_2397-gen_results/8p0m/2024-11-26-14-13-15/
REMARK  2 active torsions:
REMARK  status: ('A' for Active; 'I' for Inactive)
REMARK    1  A    between atoms: C_3  and  C_7
REMARK    2  A    between atoms: C_7  and  C_8
REMARK                            x       y       z     vdW  Elec       q    Type
REMARK                         _______ _______ _______ _____ _____    ______ ____
ROOT
ATOM      1  C   UNL A   1     -27.543   0.637  26.744  0.00  0.00    +0.038 C 
ATOM      2  C   UNL A   1     -28.155  -0.251  25.677  0.00  0.00    +0.008 C 
ATOM      3  C   UNL A   1     -27.899   2.112  26.350  0.00  0.00    +0.008 C 
ATOM      4  C   UNL A   1     -28.820   0.386  24.589  0.00  0.00    +0.001 C 
ATOM      5  C   UNL A   1     -28.727   2.641  26.074  0.00  0.00    +0.001 C 
ATOM      6  C   UNL A   1     -29.076   1.540  24.642  0.00  0.00    +0.000 C 
ENDROOT
BRANCH   1   7
ATOM      7  C   UNL A   1     -26.154   0.530  26.750  0.00  0.00    -0.017 A 
ATOM      8  C   UNL A   1     -25.399   0.952  25.685  0.00  0.00    -0.004 A 
ATOM      9  C   UNL A   1     -24.006   0.921  25.735  0.00  0.00    +0.002 A 
ATOM     10  C   UNL A   1     -23.326   0.767  26.958  0.00  0.00    +0.030 A 
ATOM     11  C   UNL A   1     -24.115   0.473  28.097  0.00  0.00    +0.140 A 
ATOM     12  C   UNL A   1     -25.470   0.387  28.019  0.00  0.00    +0.026 A 
ATOM     13  F   UNL A   1     -23.438   0.319  29.248  0.00  0.00    -0.204 F 
ENDBRANCH   1   7
BRANCH   1  16
ATOM     14  C   UNL A   1     -28.016  -0.814  28.878  0.00  0.00    -0.004 A 
ATOM     15  C   UNL A   1     -28.469  -0.785  29.829  0.00  0.00    -0.000 A 
ATOM     16  C   UNL A   1     -28.182   0.428  28.113  0.00  0.00    -0.019 A 
ATOM     17  C   UNL A   1     -28.984   1.415  28.515  0.00  0.00    -0.004 A 
ATOM     18  C   UNL A   1     -29.380   0.138  30.461  0.00  0.00    -0.000 A 
ATOM     19  C   UNL A   1     -29.541   1.274  29.724  0.00  0.00    -0.000 A 
ENDBRANCH   1  16
TORSDOF 2
