REMARK  Name = No_2398-gen_results/8p0m/2024-11-26-14-13-15/
REMARK  1 active torsions:
REMARK  status: ('A' for Active; 'I' for Inactive)
REMARK    1  A    between atoms: C_3  and  C_7
REMARK                            x       y       z     vdW  Elec       q    Type
REMARK                         _______ _______ _______ _____ _____    ______ ____
ROOT
ATOM      1  C   UNL A   1     -28.016  -0.814  28.878  0.00  0.00    -0.000 A 
ATOM      2  C   UNL A   1     -28.469  -0.785  29.829  0.00  0.00    -0.000 A 
ATOM      3  C   UNL A   1     -28.196   0.348  28.055  0.00  0.00    -0.000 A 
ATOM      4  C   UNL A   1     -29.019   1.350  28.378  0.00  0.00    -0.000 A 
ATOM      5  C   UNL A   1     -29.625   1.268  29.601  0.00  0.00    -0.000 A 
ATOM      6  C   UNL A   1     -29.382   0.182  30.400  0.00  0.00    -0.000 A 
ENDROOT
BRANCH   3   7
ATOM      7  C   UNL A   1     -27.459   0.379  26.705  0.00  0.00    -0.005 C 
ATOM      8  C   UNL A   1     -26.135   0.356  26.819  0.00  0.00    -0.026 C 
ATOM      9  C   UNL A   1     -25.349   0.527  25.567  0.00  0.00    +0.031 C 
ENDBRANCH   3   7
TORSDOF 1
