MODEL 2398
MODEL 1
REMARK VINA RESULT:    -5.174      0.000      0.000
REMARK INTER + INTRA:          -5.673
REMARK INTER:                  -5.477
REMARK INTRA:                  -0.197
REMARK UNBOUND:                -0.197
REMARK  Name = No_2398-gen_results/8p0m/2024-11-26-14-13-15/
REMARK  1 active torsions:
REMARK  status: ('A' for Active; 'I' for Inactive)
REMARK    1  A    between atoms: C_3  and  C_7
REMARK                            x       y       z     vdW  Elec       q    Type
REMARK                         _______ _______ _______ _____ _____    ______ ____
ROOT
ATOM      1  C   UNL A   1     -23.870  -3.858  28.540  0.00  0.00    -0.000 A 
ATOM      2  C   UNL A   1     -24.236  -4.831  28.711  0.00  0.00    -0.000 A 
ATOM      3  C   UNL A   1     -24.657  -2.782  29.073  0.00  0.00    -0.000 A 
ATOM      4  C   UNL A   1     -25.868  -2.961  29.610  0.00  0.00    -0.000 A 
ATOM      5  C   UNL A   1     -26.297  -4.255  29.723  0.00  0.00    -0.000 A 
ATOM      6  C   UNL A   1     -25.496  -5.270  29.271  0.00  0.00    -0.000 A 
ENDROOT
BRANCH   3   7
ATOM      7  C   UNL A   1     -24.094  -1.357  28.933  0.00  0.00    -0.005 C 
ATOM      8  C   UNL A   1     -22.768  -1.299  28.989  0.00  0.00    -0.026 C 
ATOM      9  C   UNL A   1     -22.154   0.056  29.004  0.00  0.00    +0.031 C 
ENDBRANCH   3   7
TORSDOF 1
ENDMDL
ENDMDL
