REMARK  Name = No_2399-gen_results/8p0m/2024-11-26-14-13-15/
REMARK  1 active torsions:
REMARK  status: ('A' for Active; 'I' for Inactive)
REMARK    1  A    between atoms: C_12  and  C_13
REMARK                            x       y       z     vdW  Elec       q    Type
REMARK                         _______ _______ _______ _____ _____    ______ ____
ROOT
ATOM      1  C   UNL A   1     -28.016  -0.814  28.878  0.00  0.00    +0.056 A 
ATOM      2  C   UNL A   1     -27.064  -0.119  28.608  0.00  0.00    +0.028 A 
ATOM      3  C   UNL A   1     -25.792  -0.430  29.076  0.00  0.00    -0.002 A 
ATOM      4  C   UNL A   1     -25.576  -1.565  29.936  0.00  0.00    +0.000 A 
ATOM      5  C   UNL A   1     -26.735  -2.300  30.217  0.00  0.00    +0.008 A 
ATOM      6  C   UNL A   1     -27.918  -1.954  29.763  0.00  0.00    +0.048 A 
ATOM      7 BR   UNL A   1     -29.403  -2.979  30.260  0.00  0.00    -0.048 Br
ATOM      8  C   UNL A   1     -27.105   1.111  27.759  0.00  0.00    +0.068 A 
ATOM      9  N   UNL A   1     -27.892   1.648  27.412  0.00  0.00    -0.219 NA
ATOM     10  C   UNL A   1     -25.706   1.518  27.106  0.00  0.00    +0.016 A 
ATOM     11  C   UNL A   1     -24.529   1.091  27.348  0.00  0.00    -0.003 A 
ATOM     12  C   UNL A   1     -24.475  -0.030  28.400  0.00  0.00    -0.022 A 
ATOM     13  C   UNL A   1     -29.032   1.718  28.175  0.00  0.00    +0.167 C 
ATOM     14  C   UNL A   1     -29.918   2.401  28.189  0.00  0.00    +0.042 C 
ATOM     15  C   UNL A   1     -31.084   2.445  29.039  0.00  0.00    +0.005 C 
ATOM     16  C   UNL A   1     -31.215   1.396  29.921  0.00  0.00    +0.022 C 
ATOM     17  C   UNL A   1     -30.239   0.476  30.021  0.00  0.00    +0.092 C 
ATOM     18  N   UNL A   1     -29.143   0.615  29.169  0.00  0.00    -0.292 N 
ENDROOT
BRANCH  12  19
ATOM     19  C   UNL A   1     -23.115  -0.414  28.831  0.00  0.00    +0.026 C 
ATOM     20  C   UNL A   1     -22.469   0.456  29.808  0.00  0.00    +0.005 C 
ENDBRANCH  12  19
TORSDOF 1
