MODEL 2399
MODEL 1
REMARK VINA RESULT:    -6.369      0.000      0.000
REMARK INTER + INTRA:          -6.887
REMARK INTER:                  -6.741
REMARK INTRA:                  -0.146
REMARK UNBOUND:                -0.146
REMARK  Name = No_2399-gen_results/8p0m/2024-11-26-14-13-15/
REMARK  1 active torsions:
REMARK  status: ('A' for Active; 'I' for Inactive)
REMARK    1  A    between atoms: C_12  and  C_13
REMARK                            x       y       z     vdW  Elec       q    Type
REMARK                         _______ _______ _______ _____ _____    ______ ____
ROOT
ATOM      1  C   UNL A   1     -24.960   0.118  29.557  0.00  0.00    +0.056 A 
ATOM      2  C   UNL A   1     -24.479  -0.052  30.653  0.00  0.00    +0.028 A 
ATOM      3  C   UNL A   1     -25.206   0.221  31.806  0.00  0.00    -0.002 A 
ATOM      4  C   UNL A   1     -26.540   0.759  31.732  0.00  0.00    +0.000 A 
ATOM      5  C   UNL A   1     -27.009   0.947  30.425  0.00  0.00    +0.008 A 
ATOM      6  C   UNL A   1     -26.275   0.689  29.367  0.00  0.00    +0.048 A 
ATOM      7 BR   UNL A   1     -26.990   1.043  27.674  0.00  0.00    -0.048 Br
ATOM      8  C   UNL A   1     -23.103  -0.571  30.922  0.00  0.00    +0.068 A 
ATOM      9  N   UNL A   1     -22.316  -0.712  30.297  0.00  0.00    -0.219 NA
ATOM     10  C   UNL A   1     -22.904  -1.218  32.368  0.00  0.00    +0.016 A 
ATOM     11  C   UNL A   1     -23.658  -1.184  33.395  0.00  0.00    -0.003 A 
ATOM     12  C   UNL A   1     -24.988  -0.444  33.171  0.00  0.00    -0.022 A 
ATOM     13  C   UNL A   1     -22.162   0.136  29.228  0.00  0.00    +0.167 C 
ATOM     14  C   UNL A   1     -21.307   0.388  28.552  0.00  0.00    +0.042 C 
ATOM     15  C   UNL A   1     -21.192   1.316  27.452  0.00  0.00    +0.005 C 
ATOM     16  C   UNL A   1     -22.365   1.925  27.065  0.00  0.00    +0.022 C 
ATOM     17  C   UNL A   1     -23.493   1.719  27.768  0.00  0.00    +0.092 C 
ATOM     18  N   UNL A   1     -23.418   0.839  28.848  0.00  0.00    -0.292 N 
ENDROOT
BRANCH  12  19
ATOM     19  C   UNL A   1     -25.795  -0.232  34.390  0.00  0.00    +0.026 C 
ATOM     20  C   UNL A   1     -25.354  -0.926  35.595  0.00  0.00    +0.005 C 
ENDBRANCH  12  19
TORSDOF 1
ENDMDL
ENDMDL
