MODEL 239
MODEL 1
REMARK VINA RESULT:    -6.570      0.000      0.000
REMARK INTER + INTRA:          -9.052
REMARK INTER:                  -8.106
REMARK INTRA:                  -0.946
REMARK UNBOUND:                -0.946
REMARK  Name = No_239-gen_results/8p0m/2024-11-26-14-13-15/
REMARK  4 active torsions:
REMARK  status: ('A' for Active; 'I' for Inactive)
REMARK    1  A    between atoms: C_2  and  C_14
REMARK    2  A    between atoms: C_3  and  C_7
REMARK    3  A    between atoms: N_8  and  C_11
REMARK    4  A    between atoms: C_11  and  C_13
REMARK                            x       y       z     vdW  Elec       q    Type
REMARK                         _______ _______ _______ _____ _____    ______ ____
ROOT
ATOM      1  C   UNL A   1     -22.461   0.744  28.124  0.00  0.00    +0.249 C 
ATOM      2  N   UNL A   1     -23.197   1.488  27.523  0.00  0.00    -0.272 N 
ATOM      3  O   UNL A   1     -21.182   0.743  27.896  0.00  0.00    -0.270 OA
ATOM      4  C   UNL A   1     -22.788   2.333  26.415  0.00  0.00    +0.115 C 
ENDROOT
BRANCH   1   7
ATOM      5  C   UNL A   1     -23.455  -1.482  28.846  0.00  0.00    +0.011 A 
ATOM      6  C   UNL A   1     -23.853  -2.110  29.592  0.00  0.00    +0.080 A 
ATOM      7  C   UNL A   1     -23.045  -0.185  29.225  0.00  0.00    +0.054 A 
ATOM      8  C   UNL A   1     -23.020   0.176  30.317  0.00  0.00    +0.004 A 
ATOM      9  C   UNL A   1     -23.953  -1.877  31.033  0.00  0.00    +0.007 A 
ATOM     10  C   UNL A   1     -23.509  -0.648  31.393  0.00  0.00    +0.000 A 
BRANCH   6  11
ATOM     11  C   UNL A   1     -24.391  -3.597  29.287  0.00  0.00    +0.388 C 
ATOM     12  O   UNL A   1     -23.843  -4.426  28.946  0.00  0.00    -0.241 OA
ATOM     13  O   UNL A   1     -25.622  -3.747  29.736  0.00  0.00    -0.241 OA
ENDBRANCH   6  11
ENDBRANCH   1   7
BRANCH   2  14
ATOM     14  C   UNL A   1     -24.669   1.584  27.710  0.00  0.00    +0.098 C 
ATOM     15  C   UNL A   1     -24.941   2.894  28.044  0.00  0.00    +0.026 C 
BRANCH  14  16
ATOM     16  C   UNL A   1     -25.426   1.136  26.519  0.00  0.00    -0.004 A 
ATOM     17  C   UNL A   1     -26.383   1.823  26.009  0.00  0.00    -0.003 A 
ATOM     18  C   UNL A   1     -27.159   1.501  24.896  0.00  0.00    -0.000 A 
ATOM     19  C   UNL A   1     -26.870   0.271  24.371  0.00  0.00    -0.000 A 
ATOM     20  C   UNL A   1     -25.260  -0.085  25.880  0.00  0.00    -0.003 A 
ATOM     21  C   UNL A   1     -25.932  -0.509  24.842  0.00  0.00    -0.000 A 
ENDBRANCH  14  16
ENDBRANCH   2  14
TORSDOF 4
ENDMDL
ENDMDL
