MODEL 23
MODEL 1
REMARK VINA RESULT:    -6.448      0.000      0.000
REMARK INTER + INTRA:          -7.003
REMARK INTER:                  -6.825
REMARK INTRA:                  -0.178
REMARK UNBOUND:                -0.178
REMARK  Name = No_23-gen_results/8p0m/2024-11-26-14-13-15/
REMARK  1 active torsions:
REMARK  status: ('A' for Active; 'I' for Inactive)
REMARK    1  A    between atoms: C_9  and  C_11
REMARK                            x       y       z     vdW  Elec       q    Type
REMARK                         _______ _______ _______ _____ _____    ______ ____
ROOT
ATOM      1  C   UNL A   1     -22.361   1.455  27.584  0.00  0.00    -0.000 A 
ATOM      2  C   UNL A   1     -22.939   0.497  28.043  0.00  0.00    -0.000 A 
ATOM      3  C   UNL A   1     -24.139   0.053  27.497  0.00  0.00    -0.000 A 
ATOM      4  C   UNL A   1     -24.754   0.749  26.397  0.00  0.00    -0.000 A 
ATOM      5  C   UNL A   1     -24.030   1.859  25.944  0.00  0.00    -0.000 A 
ATOM      6  C   UNL A   1     -22.908   2.248  26.505  0.00  0.00    +0.000 A 
ATOM      7  C   UNL A   1     -22.579  -0.500  29.143  0.00  0.00    -0.000 A 
ATOM      8  C   UNL A   1     -23.052  -1.617  29.321  0.00  0.00    -0.000 A 
ATOM      9  C   UNL A   1     -24.372  -1.962  28.712  0.00  0.00    -0.004 A 
ATOM     10  C   UNL A   1     -24.871  -1.179  27.729  0.00  0.00    -0.000 A 
ENDROOT
BRANCH   9  11
ATOM     11  C   UNL A   1     -25.051  -3.255  29.091  0.00  0.00    -0.022 C 
ATOM     12  C   UNL A   1     -26.193  -3.165  29.886  0.00  0.00    -0.005 C 
ATOM     13  C   UNL A   1     -24.367  -4.489  28.832  0.00  0.00    +0.031 C 
ENDBRANCH   9  11
TORSDOF 1
ENDMDL
ENDMDL
