REMARK  Name = No_24-gen_results/8p0m/2024-11-26-14-13-15/
REMARK  6 active torsions:
REMARK  status: ('A' for Active; 'I' for Inactive)
REMARK    1  A    between atoms: C_1  and  C_2
REMARK    2  A    between atoms: C_1  and  C_8
REMARK    3  A    between atoms: C_5  and  C_10
REMARK    4  A    between atoms: C_8  and  N_9
REMARK    5  A    between atoms: C_8  and  C_18
REMARK    6  A    between atoms: C_19  and  C_20
REMARK                            x       y       z     vdW  Elec       q    Type
REMARK                         _______ _______ _______ _____ _____    ______ ____
ROOT
ATOM      1  C   UNL A   1     -28.642  -0.482  30.196  0.00  0.00    +0.127 C 
ENDROOT
BRANCH   1   2
ATOM      2  N   UNL A   1     -29.722  -1.261  30.640  0.00  0.00    -0.263 NA
ATOM      3  C   UNL A   1     -29.608  -2.214  31.442  0.00  0.00    +0.073 C 
ATOM      4  C   UNL A   1     -31.016  -0.969  30.147  0.00  0.00    +0.073 C 
ATOM      5  C   UNL A   1     -31.964  -1.888  30.187  0.00  0.00    +0.017 C 
ATOM      6  C   UNL A   1     -30.581  -3.292  31.581  0.00  0.00    +0.017 C 
ATOM      7  C   UNL A   1     -31.832  -2.988  31.052  0.00  0.00    +0.003 C 
ENDBRANCH   1   2
BRANCH   1   8
ATOM      8  C   UNL A   1     -27.406  -0.597  31.078  0.00  0.00    -0.071 C 
ATOM      9  C   UNL A   1     -27.317   0.367  32.164  0.00  0.00    -0.063 C 
BRANCH   9  10
ATOM     10  C   UNL A   1     -26.274   0.265  33.023  0.00  0.00    +0.045 C 
ATOM     11  C   UNL A   1     -25.174  -0.587  32.775  0.00  0.00    -0.017 C 
ATOM     12  C   UNL A   1     -25.265  -1.462  31.739  0.00  0.00    +0.031 C 
ENDBRANCH   9  10
ENDBRANCH   1   8
BRANCH   1  13
ATOM     13  C   UNL A   1     -28.016  -0.814  28.878  0.00  0.00    +0.056 C 
BRANCH  13  14
ATOM     14  C   UNL A   1     -27.064  -0.119  28.608  0.00  0.00    -0.020 A 
ATOM     15  C   UNL A   1     -25.765  -0.390  29.036  0.00  0.00    -0.004 A 
ATOM     16  C   UNL A   1     -24.552   0.406  28.765  0.00  0.00    -0.001 A 
ATOM     17  C   UNL A   1     -24.696   1.448  27.799  0.00  0.00    -0.004 A 
ATOM     18  C   UNL A   1     -26.001   1.678  27.297  0.00  0.00    -0.001 A 
ATOM     19  C   UNL A   1     -27.074   0.968  27.650  0.00  0.00    -0.004 A 
BRANCH  17  20
ATOM     20  C   UNL A   1     -23.510   2.179  27.452  0.00  0.00    -0.022 C 
ATOM     21  C   UNL A   1     -22.407   1.577  27.128  0.00  0.00    -0.005 C 
ATOM     22  C   UNL A   1     -23.969   3.102  26.266  0.00  0.00    +0.031 C 
ENDBRANCH  17  20
ENDBRANCH  13  14
ENDBRANCH   1  13
TORSDOF 6
