MODEL 2400
MODEL 1
REMARK VINA RESULT:    -4.984      0.000      0.000
REMARK INTER + INTRA:          -5.516
REMARK INTER:                  -5.566
REMARK INTRA:                   0.051
REMARK UNBOUND:                 0.051
REMARK  Name = No_2400-gen_results/8p0m/2024-11-26-14-13-15/
REMARK  2 active torsions:
REMARK  status: ('A' for Active; 'I' for Inactive)
REMARK    1  A    between atoms: C_2  and  N_7
REMARK    2  A    between atoms: C_8  and  C_9
REMARK                            x       y       z     vdW  Elec       q    Type
REMARK                         _______ _______ _______ _____ _____    ______ ____
ROOT
ATOM      1  C   UNL A   1     -24.031  -3.109  28.797  0.00  0.00    +0.019 A 
ATOM      2  C   UNL A   1     -24.989  -2.547  29.277  0.00  0.00    +0.081 A 
ATOM      3  C   UNL A   1     -26.086  -3.266  29.739  0.00  0.00    +0.019 A 
ATOM      4  C   UNL A   1     -26.136  -4.700  29.617  0.00  0.00    +0.002 A 
ATOM      5  C   UNL A   1     -24.998  -5.266  29.028  0.00  0.00    +0.000 A 
ATOM      6  C   UNL A   1     -23.994  -4.540  28.593  0.00  0.00    +0.002 A 
ENDROOT
BRANCH   2   7
ATOM      7  N   UNL A   1     -24.936  -1.164  29.295  0.00  0.00    -0.244 NA
ATOM      8  C   UNL A   1     -24.508  -0.571  30.399  0.00  0.00    +0.099 C 
BRANCH   8   9
ATOM      9  C   UNL A   1     -24.217  -1.326  31.602  0.00  0.00    +0.021 C 
ATOM     10  C   UNL A   1     -23.015  -1.153  32.282  0.00  0.00    +0.002 C 
ENDBRANCH   8   9
ENDBRANCH   2   7
TORSDOF 2
ENDMDL
ENDMDL
