REMARK  Name = No_2401-gen_results/8p0m/2024-11-26-14-13-15/
REMARK  1 active torsions:
REMARK  status: ('A' for Active; 'I' for Inactive)
REMARK    1  A    between atoms: C_4  and  C_5
REMARK                            x       y       z     vdW  Elec       q    Type
REMARK                         _______ _______ _______ _____ _____    ______ ____
ROOT
ATOM      1  C   UNL A   1     -24.358  -0.884  29.960  0.00  0.00    +0.035 C 
ATOM      2  C   UNL A   1     -23.753   0.450  30.117  0.00  0.00    +0.003 C 
ATOM      3  C   UNL A   1     -22.536   0.665  29.470  0.00  0.00    +0.000 C 
ATOM      4  C   UNL A   1     -21.788  -0.477  29.027  0.00  0.00    +0.003 C 
ATOM      5  C   UNL A   1     -23.703  -1.507  28.760  0.00  0.00    +0.152 C 
ATOM      6  C   UNL A   1     -22.330  -1.544  28.688  0.00  0.00    +0.033 C 
ATOM      7  C   UNL A   1     -23.850  -1.710  31.206  0.00  0.00    +0.003 C 
ATOM      8  O   UNL A   1     -24.455  -2.226  28.051  0.00  0.00    -0.223 OA
ENDROOT
BRANCH   1  12
ATOM      9  C   UNL A   1     -28.016  -0.814  28.878  0.00  0.00    +0.065 C 
ATOM     10  C   UNL A   1     -28.469  -0.785  29.829  0.00  0.00    +0.008 C 
ATOM     11  C   UNL A   1     -26.546  -0.876  28.850  0.00  0.00    +0.150 C 
ATOM     12  C   UNL A   1     -25.897  -0.827  29.889  0.00  0.00    +0.060 C 
ATOM     13  C   UNL A   1     -27.945  -0.853  31.197  0.00  0.00    +0.001 C 
ATOM     14  C   UNL A   1     -26.512  -0.902  31.221  0.00  0.00    +0.007 C 
ATOM     15  O   UNL A   1     -25.912  -0.860  27.640  0.00  0.00    -0.296 OA
ENDBRANCH   1  12
TORSDOF 1
