MODEL 2401
MODEL 1
REMARK VINA RESULT:    -6.575      0.000      0.000
REMARK INTER + INTRA:          -6.450
REMARK INTER:                  -6.959
REMARK INTRA:                   0.509
REMARK UNBOUND:                 0.509
REMARK  Name = No_2401-gen_results/8p0m/2024-11-26-14-13-15/
REMARK  1 active torsions:
REMARK  status: ('A' for Active; 'I' for Inactive)
REMARK    1  A    between atoms: C_4  and  C_5
REMARK                            x       y       z     vdW  Elec       q    Type
REMARK                         _______ _______ _______ _____ _____    ______ ____
ROOT
ATOM      1  C   UNL A   1     -24.695  -1.159  29.438  0.00  0.00    +0.035 C 
ATOM      2  C   UNL A   1     -23.895  -0.649  28.311  0.00  0.00    +0.003 C 
ATOM      3  C   UNL A   1     -23.018   0.399  28.591  0.00  0.00    +0.000 C 
ATOM      4  C   UNL A   1     -23.208   1.142  29.804  0.00  0.00    +0.003 C 
ATOM      5  C   UNL A   1     -24.007  -0.696  30.690  0.00  0.00    +0.152 C 
ATOM      6  C   UNL A   1     -23.694   0.636  30.831  0.00  0.00    +0.033 C 
ATOM      7  C   UNL A   1     -26.052  -0.355  29.369  0.00  0.00    +0.003 C 
ATOM      8  O   UNL A   1     -24.041  -1.507  31.653  0.00  0.00    -0.223 OA
ENDROOT
BRANCH   1  12
ATOM      9  C   UNL A   1     -26.060  -4.717  29.620  0.00  0.00    +0.065 C 
ATOM     10  C   UNL A   1     -25.264  -5.224  29.152  0.00  0.00    +0.008 C 
ATOM     11  C   UNL A   1     -25.935  -3.255  29.733  0.00  0.00    +0.150 C 
ATOM     12  C   UNL A   1     -24.918  -2.683  29.359  0.00  0.00    +0.060 C 
ATOM     13  C   UNL A   1     -24.025  -4.776  28.507  0.00  0.00    +0.001 C 
ATOM     14  C   UNL A   1     -23.852  -3.356  28.604  0.00  0.00    +0.007 C 
ATOM     15  O   UNL A   1     -26.918  -2.562  30.381  0.00  0.00    -0.296 OA
ENDBRANCH   1  12
TORSDOF 1
ENDMDL
ENDMDL
