MODEL 2402
MODEL 1
REMARK VINA RESULT:    -6.384      0.000      0.000
REMARK INTER + INTRA:          -8.737
REMARK INTER:                  -7.877
REMARK INTRA:                  -0.861
REMARK UNBOUND:                -0.861
REMARK  Name = No_2402-gen_results/8p0m/2024-11-26-14-13-15/
REMARK  4 active torsions:
REMARK  status: ('A' for Active; 'I' for Inactive)
REMARK    1  A    between atoms: C_2  and  C_4
REMARK    2  A    between atoms: C_4  and  C_5
REMARK    3  A    between atoms: C_6  and  C_7
REMARK    4  A    between atoms: C_8  and  C_10
REMARK                            x       y       z     vdW  Elec       q    Type
REMARK                         _______ _______ _______ _____ _____    ______ ____
ROOT
ATOM      1  C   UNL A   1     -24.026   0.051  28.456  0.00  0.00    +0.045 A 
ATOM      2  C   UNL A   1     -22.708   0.398  28.211  0.00  0.00    +0.079 A 
ATOM      3  C   UNL A   1     -24.922   1.256  28.324  0.00  0.00    +0.008 A 
ATOM      4  C   UNL A   1     -22.268   1.334  27.192  0.00  0.00    +0.004 A 
ATOM      5  C   UNL A   1     -23.143   2.432  26.868  0.00  0.00    -0.000 A 
ATOM      6  C   UNL A   1     -24.530   2.294  27.278  0.00  0.00    +0.001 A 
ENDROOT
BRANCH   2   7
ATOM      7  C   UNL A   1     -21.688  -0.214  28.962  0.00  0.00    +0.419 C 
ATOM      8  F   UNL A   1     -21.652  -1.472  28.937  0.00  0.00    -0.166 F 
ATOM      9  F   UNL A   1     -21.994   0.013  30.315  0.00  0.00    -0.166 F 
ATOM     10  F   UNL A   1     -20.528   0.318  28.692  0.00  0.00    -0.166 F 
ENDBRANCH   2   7
BRANCH   1  12
ATOM     11  C   UNL A   1     -24.934  -2.132  28.675  0.00  0.00    -0.082 C 
ATOM     12  C   UNL A   1     -24.649  -1.092  28.625  0.00  0.00    -0.064 C 
BRANCH  11  13
ATOM     13  C   UNL A   1     -25.339  -3.299  29.141  0.00  0.00    +0.129 C 
BRANCH  13  15
ATOM     14 CL   UNL A   1     -24.946  -5.606  29.012  0.00  0.00    -0.075 Cl
ATOM     15  C   UNL A   1     -24.556  -4.470  28.791  0.00  0.00    +0.252 C 
ATOM     16  F   UNL A   1     -23.475  -4.277  28.280  0.00  0.00    -0.218 F 
ENDBRANCH  13  15
ENDBRANCH  11  13
ENDBRANCH   1  12
TORSDOF 4
ENDMDL
ENDMDL
