REMARK  Name = No_2402-gen_results/8p0m/2024-11-26-14-13-15/
REMARK  4 active torsions:
REMARK  status: ('A' for Active; 'I' for Inactive)
REMARK    1  A    between atoms: C_2  and  C_4
REMARK    2  A    between atoms: C_4  and  C_5
REMARK    3  A    between atoms: C_6  and  C_7
REMARK    4  A    between atoms: C_8  and  C_10
REMARK                            x       y       z     vdW  Elec       q    Type
REMARK                         _______ _______ _______ _____ _____    ______ ____
ROOT
ATOM      1  C   UNL A   1     -24.408   0.885  28.672  0.00  0.00    +0.045 A 
ATOM      2  C   UNL A   1     -23.834   1.632  27.657  0.00  0.00    +0.079 A 
ATOM      3  C   UNL A   1     -23.467  -0.203  29.123  0.00  0.00    +0.008 A 
ATOM      4  C   UNL A   1     -22.435   2.017  27.595  0.00  0.00    +0.004 A 
ATOM      5  C   UNL A   1     -21.465   1.115  28.162  0.00  0.00    -0.000 A 
ATOM      6  C   UNL A   1     -21.977   0.116  29.085  0.00  0.00    +0.001 A 
ENDROOT
BRANCH   2   7
ATOM      7  C   UNL A   1     -24.646   2.104  26.610  0.00  0.00    +0.419 C 
ATOM      8  F   UNL A   1     -24.590   3.339  26.372  0.00  0.00    -0.166 F 
ATOM      9  F   UNL A   1     -25.976   1.981  27.046  0.00  0.00    -0.166 F 
ATOM     10  F   UNL A   1     -24.482   1.386  25.533  0.00  0.00    -0.166 F 
ENDBRANCH   2   7
BRANCH   1  12
ATOM     11  C   UNL A   1     -26.501   1.177  29.753  0.00  0.00    -0.082 C 
ATOM     12  C   UNL A   1     -25.496   1.017  29.394  0.00  0.00    -0.064 C 
BRANCH  11  13
ATOM     13  C   UNL A   1     -27.672   0.980  30.331  0.00  0.00    +0.129 C 
BRANCH  13  15
ATOM     14 CL   UNL A   1     -28.149  -0.820  28.908  0.00  0.00    -0.075 Cl
ATOM     15  C   UNL A   1     -28.532  -0.047  29.773  0.00  0.00    +0.252 C 
ATOM     16  F   UNL A   1     -29.668  -0.100  30.189  0.00  0.00    -0.218 F 
ENDBRANCH  13  15
ENDBRANCH  11  13
ENDBRANCH   1  12
TORSDOF 4
