MODEL 2403
MODEL 1
REMARK VINA RESULT:    -6.585      0.000      0.000
REMARK INTER + INTRA:          -7.294
REMARK INTER:                  -6.970
REMARK INTRA:                  -0.324
REMARK UNBOUND:                -0.324
REMARK  Name = No_2403-gen_results/8p0m/2024-11-26-14-13-15/
REMARK  1 active torsions:
REMARK  status: ('A' for Active; 'I' for Inactive)
REMARK    1  A    between atoms: C_3  and  C_7
REMARK                            x       y       z     vdW  Elec       q    Type
REMARK                         _______ _______ _______ _____ _____    ______ ____
ROOT
ATOM      1  C   UNL A   1     -24.595  -4.968  28.918  0.00  0.00    +0.000 A 
ATOM      2  C   UNL A   1     -23.973  -3.954  28.702  0.00  0.00    +0.000 A 
ATOM      3  C   UNL A   1     -24.434  -2.681  29.034  0.00  0.00    +0.000 A 
ATOM      4  C   UNL A   1     -25.754  -2.538  29.618  0.00  0.00    +0.000 A 
ATOM      5  C   UNL A   1     -26.444  -3.731  29.831  0.00  0.00    +0.000 A 
ATOM      6  C   UNL A   1     -25.935  -4.895  29.475  0.00  0.00    +0.000 A 
ENDROOT
BRANCH   3   7
ATOM      7  C   UNL A   1     -23.723  -1.389  28.808  0.00  0.00    +0.000 A 
ATOM      8  C   UNL A   1     -22.470  -1.168  29.125  0.00  0.00    +0.000 A 
ATOM      9  C   UNL A   1     -21.842   0.071  28.863  0.00  0.00    +0.000 A 
ATOM     10  C   UNL A   1     -22.454   0.940  27.915  0.00  0.00    +0.000 A 
ATOM     11  C   UNL A   1     -24.292  -0.385  27.944  0.00  0.00    +0.000 A 
ATOM     12  C   UNL A   1     -23.678   0.721  27.552  0.00  0.00    +0.000 A 
ENDBRANCH   3   7
TORSDOF 1
ENDMDL
ENDMDL
