MODEL 2404
MODEL 1
REMARK VINA RESULT:    -8.629      0.000      0.000
REMARK INTER + INTRA:         -11.449
REMARK INTER:                 -10.647
REMARK INTRA:                  -0.802
REMARK UNBOUND:                -0.802
REMARK  Name = No_2404-gen_results/8p0m/2024-11-26-14-13-15/
REMARK  4 active torsions:
REMARK  status: ('A' for Active; 'I' for Inactive)
REMARK    1  A    between atoms: C_2  and  C_15
REMARK    2  A    between atoms: C_6  and  O_7
REMARK    3  A    between atoms: O_7  and  C_9
REMARK    4  A    between atoms: C_13  and  C_21
REMARK                            x       y       z     vdW  Elec       q    Type
REMARK                         _______ _______ _______ _____ _____    ______ ____
ROOT
ATOM      1  C   UNL A   1     -24.273   0.410  27.504  0.00  0.00    +0.040 A 
ATOM      2  C   UNL A   1     -24.311   1.177  26.569  0.00  0.00    +0.030 A 
ATOM      3  C   UNL A   1     -23.191   1.910  26.196  0.00  0.00    +0.140 A 
ATOM      4  C   UNL A   1     -21.961   1.814  26.939  0.00  0.00    +0.033 A 
ATOM      5  C   UNL A   1     -22.011   0.923  28.018  0.00  0.00    +0.040 A 
ATOM      6  C   UNL A   1     -23.102   0.265  28.340  0.00  0.00    +0.145 A 
ATOM      7  F   UNL A   1     -23.149   2.798  25.180  0.00  0.00    -0.204 F 
ENDROOT
BRANCH   2   8
ATOM      8  C   UNL A   1     -25.530   1.370  25.679  0.00  0.00    +0.002 A 
ATOM      9  C   UNL A   1     -26.194   2.585  25.821  0.00  0.00    +0.000 A 
ATOM     10  C   UNL A   1     -27.326   2.787  25.035  0.00  0.00    +0.000 A 
ATOM     11  C   UNL A   1     -27.831   1.785  24.188  0.00  0.00    +0.000 A 
ATOM     12  C   UNL A   1     -27.135   0.577  24.072  0.00  0.00    +0.000 A 
ATOM     13  C   UNL A   1     -26.055   0.346  24.837  0.00  0.00    +0.000 A 
ENDBRANCH   2   8
BRANCH   6  14
ATOM     14  O   UNL A   1     -23.077  -0.553  29.428  0.00  0.00    -0.454 OA
BRANCH  14  15
ATOM     15  C   UNL A   1     -23.983  -1.546  29.533  0.00  0.00    +0.145 A 
ATOM     16  C   UNL A   1     -25.138  -1.068  30.139  0.00  0.00    +0.037 A 
ATOM     17  C   UNL A   1     -26.194  -2.035  30.302  0.00  0.00    +0.003 A 
ATOM     18  C   UNL A   1     -25.941  -3.356  29.884  0.00  0.00    +0.001 A 
ATOM     19  C   UNL A   1     -24.762  -3.677  29.324  0.00  0.00    +0.047 A 
ATOM     20  C   UNL A   1     -23.784  -2.777  29.113  0.00  0.00    +0.039 A 
BRANCH  19  21
ATOM     21  C   UNL A   1     -24.557  -5.114  28.838  0.00  0.00    +0.341 C 
ATOM     22  F   UNL A   1     -24.914  -6.011  29.304  0.00  0.00    -0.193 F 
ATOM     23  F   UNL A   1     -23.691  -5.183  27.840  0.00  0.00    -0.193 F 
ENDBRANCH  19  21
ENDBRANCH  14  15
ENDBRANCH   6  14
TORSDOF 4
ENDMDL
ENDMDL
