REMARK  Name = No_2404-gen_results/8p0m/2024-11-26-14-13-15/
REMARK  4 active torsions:
REMARK  status: ('A' for Active; 'I' for Inactive)
REMARK    1  A    between atoms: C_2  and  C_15
REMARK    2  A    between atoms: C_6  and  O_7
REMARK    3  A    between atoms: O_7  and  C_9
REMARK    4  A    between atoms: C_13  and  C_21
REMARK                            x       y       z     vdW  Elec       q    Type
REMARK                         _______ _______ _______ _____ _____    ______ ____
ROOT
ATOM      1  C   UNL A   1     -28.016  -0.814  28.878  0.00  0.00    +0.040 A 
ATOM      2  C   UNL A   1     -27.064  -0.119  28.608  0.00  0.00    +0.030 A 
ATOM      3  C   UNL A   1     -25.792  -0.430  29.076  0.00  0.00    +0.140 A 
ATOM      4  C   UNL A   1     -25.576  -1.565  29.936  0.00  0.00    +0.033 A 
ATOM      5  C   UNL A   1     -26.735  -2.300  30.217  0.00  0.00    +0.040 A 
ATOM      6  C   UNL A   1     -27.918  -1.954  29.763  0.00  0.00    +0.145 A 
ATOM      7  F   UNL A   1     -24.680   0.296  28.838  0.00  0.00    -0.204 F 
ENDROOT
BRANCH   2   8
ATOM      8  C   UNL A   1     -27.132   1.097  27.697  0.00  0.00    +0.002 A 
ATOM      9  C   UNL A   1     -27.963   0.973  26.586  0.00  0.00    +0.000 A 
ATOM     10  C   UNL A   1     -28.033   2.062  25.720  0.00  0.00    +0.000 A 
ATOM     11  C   UNL A   1     -27.246   3.211  25.905  0.00  0.00    +0.000 A 
ATOM     12  C   UNL A   1     -26.424   3.299  27.034  0.00  0.00    +0.000 A 
ATOM     13  C   UNL A   1     -26.317   2.254  27.872  0.00  0.00    +0.000 A 
ENDBRANCH   2   8
BRANCH   6  14
ATOM     14  O   UNL A   1     -29.000  -2.701  30.115  0.00  0.00    -0.454 OA
BRANCH  14  15
ATOM     15  C   UNL A   1     -30.095  -2.092  30.611  0.00  0.00    +0.145 A 
ATOM     16  C   UNL A   1     -30.649  -2.867  31.622  0.00  0.00    +0.037 A 
ATOM     17  C   UNL A   1     -31.827  -2.318  32.245  0.00  0.00    +0.003 A 
ATOM     18  C   UNL A   1     -32.321  -1.097  31.747  0.00  0.00    +0.001 A 
ATOM     19  C   UNL A   1     -31.683  -0.463  30.747  0.00  0.00    +0.047 A 
ATOM     20  C   UNL A   1     -30.552  -0.932  30.189  0.00  0.00    +0.039 A 
BRANCH  19  21
ATOM     21  C   UNL A   1     -32.230   0.887  30.279  0.00  0.00    +0.341 C 
ATOM     22  F   UNL A   1     -32.891   1.539  30.816  0.00  0.00    -0.193 F 
ATOM     23  F   UNL A   1     -31.963   1.117  29.003  0.00  0.00    -0.193 F 
ENDBRANCH  19  21
ENDBRANCH  14  15
ENDBRANCH   6  14
TORSDOF 4
