MODEL 2405
MODEL 1
REMARK VINA RESULT:    -8.082      0.000      0.000
REMARK INTER + INTRA:         -12.825
REMARK INTER:                 -11.863
REMARK INTRA:                  -0.963
REMARK UNBOUND:                -0.963
REMARK  Name = No_2405-gen_results/8p0m/2024-11-26-14-13-15/
REMARK  8 active torsions:
REMARK  status: ('A' for Active; 'I' for Inactive)
REMARK    1  A    between atoms: C_6  and  C_8
REMARK    2  A    between atoms: C_10  and  C_27
REMARK    3  A    between atoms: C_12  and  C_14
REMARK    4  A    between atoms: N_15  and  C_17
REMARK    5  A    between atoms: C_17  and  C_18
REMARK    6  A    between atoms: C_17  and  C_30
REMARK    7  A    between atoms: C_22  and  C_24
REMARK    8  A    between atoms: C_32  and  C_33
REMARK                            x       y       z     vdW  Elec       q    Type
REMARK                         _______ _______ _______ _____ _____    ______ ____
ROOT
ATOM      1  C   UNL A   1     -10.676  -0.767  38.265  0.00  0.00    +0.265 C 
ATOM      2  N   UNL A   1     -10.783  -0.456  39.298  0.00  0.00    -0.197 NA
ATOM      3  O   UNL A   1     -11.205  -2.076  38.071  0.00  0.00    -0.268 OA
ENDROOT
BRANCH   1   8
ATOM      4  C   UNL A   1      -8.398  -0.023  35.276  0.00  0.00    +0.000 A 
ATOM      5  C   UNL A   1      -9.007   0.677  34.704  0.00  0.00    +0.007 A 
ATOM      6  C   UNL A   1     -10.382   1.146  35.036  0.00  0.00    +0.080 A 
ATOM      7  C   UNL A   1     -10.904   0.657  36.253  0.00  0.00    +0.011 A 
ATOM      8  C   UNL A   1     -10.158  -0.202  36.989  0.00  0.00    +0.055 A 
ATOM      9  C   UNL A   1      -8.905  -0.623  36.588  0.00  0.00    +0.005 A 
BRANCH   4  15
ATOM     10  C   UNL A   1      -5.534  -2.238  34.197  0.00  0.00    +0.011 A 
ATOM     11  C   UNL A   1      -4.588  -1.504  34.360  0.00  0.00    +0.058 A 
ATOM     12  C   UNL A   1      -4.688  -0.223  34.795  0.00  0.00    +0.011 A 
ATOM     13  C   UNL A   1      -5.969   0.290  35.074  0.00  0.00    +0.001 A 
ATOM     14  C   UNL A   1      -6.864  -1.812  34.553  0.00  0.00    +0.001 A 
ATOM     15  C   UNL A   1      -7.022  -0.523  34.967  0.00  0.00    +0.000 A 
ATOM     16 CL   UNL A   1      -3.061  -2.238  34.086  0.00  0.00    -0.082 Cl
ENDBRANCH   4  15
BRANCH   6  17
ATOM     17  C   UNL A   1     -11.141   2.066  34.259  0.00  0.00    +0.388 C 
ATOM     18  O   UNL A   1     -11.000   3.187  34.246  0.00  0.00    -0.241 OA
ATOM     19  O   UNL A   1     -12.107   1.558  33.513  0.00  0.00    -0.241 OA
ENDBRANCH   6  17
ENDBRANCH   1   8
BRANCH   2  20
ATOM     20  C   UNL A   1     -11.272  -1.031  40.519  0.00  0.00    +0.116 C 
ATOM     21  C   UNL A   1     -12.501  -1.917  40.084  0.00  0.00    +0.031 C 
BRANCH  20  22
ATOM     22  C   UNL A   1     -10.421  -1.751  41.314  0.00  0.00    -0.000 A 
ATOM     23  C   UNL A   1     -10.823  -2.714  41.868  0.00  0.00    -0.002 A 
ATOM     24  C   UNL A   1      -9.917  -3.620  42.714  0.00  0.00    -0.000 A 
ATOM     25  C   UNL A   1      -8.575  -3.210  42.777  0.00  0.00    +0.007 A 
ATOM     26  C   UNL A   1      -8.184  -2.082  42.074  0.00  0.00    +0.080 A 
ATOM     27  C   UNL A   1      -9.054  -1.333  41.304  0.00  0.00    +0.004 A 
BRANCH  26  28
ATOM     28  C   UNL A   1      -6.757  -1.651  42.094  0.00  0.00    +0.388 C 
ATOM     29  O   UNL A   1      -5.781  -2.259  41.964  0.00  0.00    -0.241 OA
ATOM     30  O   UNL A   1      -6.606  -0.261  41.993  0.00  0.00    -0.241 OA
ENDBRANCH  26  28
ENDBRANCH  20  22
BRANCH  20  31
ATOM     31  C   UNL A   1     -11.909   0.060  41.368  0.00  0.00    -0.003 C 
ATOM     32  C   UNL A   1     -13.087   0.246  41.457  0.00  0.00    -0.003 C 
BRANCH  32  33
ATOM     33  C   UNL A   1     -13.843   1.012  42.117  0.00  0.00    -0.005 C 
ATOM     34  C   UNL A   1     -15.194   0.743  42.555  0.00  0.00    -0.026 C 
ATOM     35  C   UNL A   1     -15.700  -0.518  42.216  0.00  0.00    +0.031 C 
ENDBRANCH  32  33
ENDBRANCH  20  31
ENDBRANCH   2  20
TORSDOF 8
ENDMDL
ENDMDL
