REMARK  Name = No_2406-gen_results/8p0m/2024-11-26-14-13-15/
REMARK  5 active torsions:
REMARK  status: ('A' for Active; 'I' for Inactive)
REMARK    1  A    between atoms: C_1  and  C_2
REMARK    2  A    between atoms: C_1  and  C_8
REMARK    3  A    between atoms: C_5  and  C_15
REMARK    4  A    between atoms: C_11  and  C_12
REMARK    5  A    between atoms: N_18  and  C_19
REMARK                            x       y       z     vdW  Elec       q    Type
REMARK                         _______ _______ _______ _____ _____    ______ ____
ROOT
ATOM      1  C   UNL A   1     -29.225  -0.047  29.280  0.00  0.00    +0.063 A 
ATOM      2  N   UNL A   1     -29.375   0.222  30.472  0.00  0.00    -0.248 NA
ATOM      3  C   UNL A   1     -29.745   0.861  31.164  0.00  0.00    +0.100 A 
ATOM      4  C   UNL A   1     -30.435   2.068  30.652  0.00  0.00    +0.038 A 
ATOM      5  C   UNL A   1     -30.726   1.984  29.223  0.00  0.00    +0.004 A 
ATOM      6  C   UNL A   1     -29.840   0.895  28.397  0.00  0.00    +0.015 A 
ENDROOT
BRANCH   4   7
ATOM      7  C   UNL A   1     -30.746   3.165  31.273  0.00  0.00    +0.100 C 
ATOM      8  N   UNL A   1     -31.809   3.557  31.390  0.00  0.00    -0.244 NA
BRANCH   8   9
ATOM      9  C   UNL A   1     -32.853   3.005  30.940  0.00  0.00    +0.081 A 
ATOM     10  C   UNL A   1     -33.982   3.417  30.893  0.00  0.00    +0.019 A 
ATOM     11  C   UNL A   1     -35.163   2.727  30.411  0.00  0.00    +0.002 A 
ATOM     12  C   UNL A   1     -34.855   1.455  29.871  0.00  0.00    +0.000 A 
ATOM     13  C   UNL A   1     -33.623   0.942  29.836  0.00  0.00    +0.002 A 
ATOM     14  C   UNL A   1     -32.545   1.715  30.383  0.00  0.00    +0.019 A 
ENDBRANCH   8   9
ENDBRANCH   4   7
BRANCH   1  15
ATOM     15  C   UNL A   1     -28.016  -0.814  28.878  0.00  0.00    +0.072 C 
BRANCH  15  16
ATOM     16  C   UNL A   1     -27.064  -0.119  28.608  0.00  0.00    -0.016 A 
ATOM     17  C   UNL A   1     -27.001   0.691  27.491  0.00  0.00    -0.004 A 
ATOM     18  C   UNL A   1     -25.855   1.482  27.083  0.00  0.00    +0.001 A 
ATOM     19  C   UNL A   1     -24.690   1.453  27.881  0.00  0.00    +0.044 A 
ATOM     20  C   UNL A   1     -24.738   0.601  29.042  0.00  0.00    +0.001 A 
ATOM     21  C   UNL A   1     -25.823  -0.169  29.389  0.00  0.00    -0.004 A 
BRANCH  19  22
ATOM     22  C   UNL A   1     -23.496   2.156  27.546  0.00  0.00    +0.341 C 
ATOM     23  F   UNL A   1     -23.528   2.874  26.583  0.00  0.00    -0.193 F 
ATOM     24  F   UNL A   1     -22.335   1.816  27.956  0.00  0.00    -0.193 F 
ENDBRANCH  19  22
ENDBRANCH  15  16
ENDBRANCH   1  15
TORSDOF 5
