MODEL 2406
MODEL 1
REMARK VINA RESULT:    -7.027      0.000      0.000
REMARK INTER + INTRA:          -9.224
REMARK INTER:                  -9.080
REMARK INTRA:                  -0.144
REMARK UNBOUND:                -0.144
REMARK  Name = No_2406-gen_results/8p0m/2024-11-26-14-13-15/
REMARK  5 active torsions:
REMARK  status: ('A' for Active; 'I' for Inactive)
REMARK    1  A    between atoms: C_1  and  C_2
REMARK    2  A    between atoms: C_1  and  C_8
REMARK    3  A    between atoms: C_5  and  C_15
REMARK    4  A    between atoms: C_11  and  C_12
REMARK    5  A    between atoms: N_18  and  C_19
REMARK                            x       y       z     vdW  Elec       q    Type
REMARK                         _______ _______ _______ _____ _____    ______ ____
ROOT
ATOM      1  C   UNL A   1     -26.751   0.219  25.936  0.00  0.00    +0.063 A 
ATOM      2  N   UNL A   1     -25.678  -0.277  26.280  0.00  0.00    -0.248 NA
ATOM      3  C   UNL A   1     -25.070  -0.557  27.039  0.00  0.00    +0.100 A 
ATOM      4  C   UNL A   1     -25.564  -0.304  28.413  0.00  0.00    +0.038 A 
ATOM      5  C   UNL A   1     -26.983   0.040  28.445  0.00  0.00    +0.004 A 
ATOM      6  C   UNL A   1     -27.602   0.563  27.032  0.00  0.00    +0.015 A 
ENDROOT
BRANCH   4   7
ATOM      7  C   UNL A   1     -24.909  -0.292  29.534  0.00  0.00    +0.100 C 
ATOM      8  N   UNL A   1     -24.647  -1.224  30.135  0.00  0.00    -0.244 NA
BRANCH   8   9
ATOM      9  C   UNL A   1     -24.946  -2.411  29.822  0.00  0.00    +0.081 A 
ATOM     10  C   UNL A   1     -25.965  -3.022  30.007  0.00  0.00    +0.019 A 
ATOM     11  C   UNL A   1     -26.248  -4.405  29.674  0.00  0.00    +0.002 A 
ATOM     12  C   UNL A   1     -25.178  -5.015  28.975  0.00  0.00    +0.000 A 
ATOM     13  C   UNL A   1     -24.033  -4.395  28.683  0.00  0.00    +0.002 A 
ATOM     14  C   UNL A   1     -23.866  -3.034  29.105  0.00  0.00    +0.019 A 
ENDBRANCH   8   9
ENDBRANCH   4   7
BRANCH   1  15
ATOM     15  C   UNL A   1     -26.802   0.964  24.649  0.00  0.00    +0.072 C 
BRANCH  15  16
ATOM     16  C   UNL A   1     -27.896   0.978  24.136  0.00  0.00    -0.016 A 
ATOM     17  C   UNL A   1     -28.582   2.138  23.831  0.00  0.00    -0.004 A 
ATOM     18  C   UNL A   1     -29.926   2.208  23.288  0.00  0.00    +0.001 A 
ATOM     19  C   UNL A   1     -30.617   1.004  23.026  0.00  0.00    +0.044 A 
ATOM     20  C   UNL A   1     -29.918  -0.213  23.354  0.00  0.00    +0.001 A 
ATOM     21  C   UNL A   1     -28.658  -0.254  23.903  0.00  0.00    -0.004 A 
BRANCH  19  22
ATOM     22  C   UNL A   1     -31.955   0.962  22.537  0.00  0.00    +0.341 C 
ATOM     23  F   UNL A   1     -32.168   1.458  21.463  0.00  0.00    -0.193 F 
ATOM     24  F   UNL A   1     -32.976   0.773  23.281  0.00  0.00    -0.193 F 
ENDBRANCH  19  22
ENDBRANCH  15  16
ENDBRANCH   1  15
TORSDOF 5
ENDMDL
ENDMDL
