MODEL 2407
MODEL 1
REMARK VINA RESULT:    -6.294      0.000      0.000
REMARK INTER + INTRA:          -8.799
REMARK INTER:                  -8.134
REMARK INTRA:                  -0.665
REMARK UNBOUND:                -0.665
REMARK  Name = No_2407-gen_results/8p0m/2024-11-26-14-13-15/
REMARK  5 active torsions:
REMARK  status: ('A' for Active; 'I' for Inactive)
REMARK    1  A    between atoms: C_2  and  C_3
REMARK    2  A    between atoms: C_3  and  C_5
REMARK    3  A    between atoms: N_4  and  C_7
REMARK    4  A    between atoms: C_5  and  C_13
REMARK    5  A    between atoms: C_13  and  C_14
REMARK                            x       y       z     vdW  Elec       q    Type
REMARK                         _______ _______ _______ _____ _____    ______ ____
ROOT
ATOM      1  O   UNL A   1     -26.185   0.693  29.574  0.00  0.00    -0.275 OA
ATOM      2  C   UNL A   1     -25.929  -0.387  29.286  0.00  0.00    +0.229 C 
ATOM      3  N   UNL A   1     -25.180  -1.196  30.112  0.00  0.00    -0.257 N 
ATOM      4  C   UNL A   1     -25.007  -0.776  31.420  0.00  0.00    +0.120 C 
ENDROOT
BRANCH   3   5
ATOM      5  C   UNL A   1     -25.262  -2.666  29.764  0.00  0.00    +0.054 A 
ATOM      6  C   UNL A   1     -26.255  -3.294  30.050  0.00  0.00    +0.015 A 
ATOM      7  C   UNL A   1     -26.302  -4.583  29.694  0.00  0.00    +0.001 A 
ATOM      8  C   UNL A   1     -25.161  -5.249  29.211  0.00  0.00    +0.000 A 
ATOM      9  C   UNL A   1     -24.024  -3.054  29.159  0.00  0.00    +0.015 A 
ATOM     10  C   UNL A   1     -24.012  -4.457  28.870  0.00  0.00    +0.001 A 
ENDBRANCH   3   5
BRANCH   2  11
ATOM     11  C   UNL A   1     -26.013  -0.711  27.931  0.00  0.00    +0.086 C 
BRANCH  11  12
ATOM     12  C   UNL A   1     -25.123  -0.301  27.120  0.00  0.00    +0.014 C 
BRANCH  12  13
ATOM     13  C   UNL A   1     -25.249   0.304  26.139  0.00  0.00    +0.027 C 
BRANCH  13  14
ATOM     14  C   UNL A   1     -24.928   1.256  25.879  0.00  0.00    -0.022 A 
ATOM     15  C   UNL A   1     -23.570   1.688  25.463  0.00  0.00    -0.004 A 
ATOM     16  C   UNL A   1     -23.114   2.818  25.469  0.00  0.00    -0.000 A 
ATOM     17  C   UNL A   1     -24.001   3.951  25.619  0.00  0.00    -0.000 A 
ATOM     18  C   UNL A   1     -25.292   3.651  25.919  0.00  0.00    -0.000 A 
ATOM     19  C   UNL A   1     -25.720   2.359  26.031  0.00  0.00    -0.004 A 
ENDBRANCH  13  14
ENDBRANCH  12  13
ENDBRANCH  11  12
ENDBRANCH   2  11
TORSDOF 5
ENDMDL
ENDMDL
