REMARK  Name = No_2407-gen_results/8p0m/2024-11-26-14-13-15/
REMARK  5 active torsions:
REMARK  status: ('A' for Active; 'I' for Inactive)
REMARK    1  A    between atoms: C_2  and  C_3
REMARK    2  A    between atoms: C_3  and  C_5
REMARK    3  A    between atoms: N_4  and  C_7
REMARK    4  A    between atoms: C_5  and  C_13
REMARK    5  A    between atoms: C_13  and  C_14
REMARK                            x       y       z     vdW  Elec       q    Type
REMARK                         _______ _______ _______ _____ _____    ______ ____
ROOT
ATOM      1  O   UNL A   1     -28.123  -1.335  28.487  0.00  0.00    -0.275 OA
ATOM      2  C   UNL A   1     -28.521  -0.436  29.078  0.00  0.00    +0.229 C 
ATOM      3  N   UNL A   1     -29.566   0.330  28.610  0.00  0.00    -0.257 N 
ATOM      4  C   UNL A   1     -30.315  -0.191  27.568  0.00  0.00    +0.120 C 
ENDROOT
BRANCH   3   5
ATOM      5  C   UNL A   1     -30.196   1.212  29.665  0.00  0.00    +0.054 A 
ATOM      6  C   UNL A   1     -30.834   0.710  30.561  0.00  0.00    +0.015 A 
ATOM      7  C   UNL A   1     -31.346   1.522  31.493  0.00  0.00    +0.001 A 
ATOM      8  C   UNL A   1     -31.343   2.919  31.326  0.00  0.00    +0.000 A 
ATOM      9  C   UNL A   1     -29.924   2.577  29.331  0.00  0.00    +0.015 A 
ATOM     10  C   UNL A   1     -30.557   3.468  30.256  0.00  0.00    +0.001 A 
ENDBRANCH   3   5
BRANCH   2  11
ATOM     11  C   UNL A   1     -27.666   0.113  30.035  0.00  0.00    +0.086 C 
BRANCH  11  12
ATOM     12  C   UNL A   1     -26.953  -0.647  30.764  0.00  0.00    +0.014 C 
BRANCH  12  13
ATOM     13  C   UNL A   1     -25.798  -0.708  30.849  0.00  0.00    +0.027 C 
BRANCH  13  14
ATOM     14  C   UNL A   1     -25.053  -0.544  30.146  0.00  0.00    -0.022 A 
ATOM     15  C   UNL A   1     -23.583  -0.671  30.316  0.00  0.00    -0.004 A 
ATOM     16  C   UNL A   1     -22.709  -0.184  29.620  0.00  0.00    -0.000 A 
ATOM     17  C   UNL A   1     -23.041   0.356  28.320  0.00  0.00    -0.000 A 
ATOM     18  C   UNL A   1     -24.368   0.433  28.038  0.00  0.00    -0.000 A 
ATOM     19  C   UNL A   1     -25.315  -0.009  28.917  0.00  0.00    -0.004 A 
ENDBRANCH  13  14
ENDBRANCH  12  13
ENDBRANCH  11  12
ENDBRANCH   2  11
TORSDOF 5
