MODEL 2408
MODEL 1
REMARK VINA RESULT:    -7.338      0.000      0.000
REMARK INTER + INTRA:         -11.125
REMARK INTER:                 -10.341
REMARK INTRA:                  -0.785
REMARK UNBOUND:                -0.785
REMARK  Name = No_2408-gen_results/8p0m/2024-11-26-14-13-15/
REMARK  7 active torsions:
REMARK  status: ('A' for Active; 'I' for Inactive)
REMARK    1  A    between atoms: C_1  and  C_2
REMARK    2  A    between atoms: C_1  and  C_8
REMARK    3  A    between atoms: C_3  and  C_15
REMARK    4  A    between atoms: C_5  and  C_12
REMARK    5  A    between atoms: N_17  and  C_22
REMARK    6  A    between atoms: C_18  and  C_24
REMARK    7  A    between atoms: C_22  and  C_26
REMARK                            x       y       z     vdW  Elec       q    Type
REMARK                         _______ _______ _______ _____ _____    ______ ____
ROOT
ATOM      1  C   UNL A   1     -12.187   2.445  37.209  0.00  0.00    -0.009 A 
ATOM      2  C   UNL A   1     -11.514   1.664  36.286  0.00  0.00    +0.050 A 
ATOM      3  C   UNL A   1     -11.914   1.418  34.921  0.00  0.00    +0.011 A 
ATOM      4  C   UNL A   1     -12.725   1.984  34.468  0.00  0.00    +0.080 A 
ATOM      5  C   UNL A   1     -13.647   2.892  35.186  0.00  0.00    +0.006 A 
ATOM      6  C   UNL A   1     -13.272   3.092  36.491  0.00  0.00    -0.003 A 
ENDROOT
BRANCH   2   7
ATOM      7  C   UNL A   1     -10.297   0.968  36.845  0.00  0.00    +0.249 C 
ATOM      8  O   UNL A   1     -10.261   0.041  37.537  0.00  0.00    -0.270 OA
ATOM      9  N   UNL A   1      -9.091   1.521  36.461  0.00  0.00    -0.270 N 
ATOM     10  C   UNL A   1      -8.980   2.694  35.540  0.00  0.00    +0.116 C 
BRANCH   9  11
ATOM     11  C   UNL A   1      -7.818   1.126  36.921  0.00  0.00    +0.120 C 
BRANCH  11  12
ATOM     12  C   UNL A   1      -7.169   0.340  36.082  0.00  0.00    -0.002 A 
ATOM     13  C   UNL A   1      -5.737   0.519  35.952  0.00  0.00    -0.003 A 
ATOM     14  C   UNL A   1      -4.957  -0.450  35.267  0.00  0.00    -0.000 A 
ATOM     15  C   UNL A   1      -5.575  -1.307  34.430  0.00  0.00    -0.000 A 
ATOM     16  C   UNL A   1      -6.953  -1.471  34.437  0.00  0.00    -0.000 A 
ATOM     17  C   UNL A   1      -7.704  -0.702  35.230  0.00  0.00    -0.003 A 
ENDBRANCH  11  12
ENDBRANCH   9  11
ENDBRANCH   2   7
BRANCH   4  18
ATOM     18  C   UNL A   1     -13.277   1.763  32.993  0.00  0.00    +0.388 C 
ATOM     19  O   UNL A   1     -12.571   1.007  32.247  0.00  0.00    -0.241 OA
ATOM     20  O   UNL A   1     -14.205   2.509  32.433  0.00  0.00    -0.241 OA
ENDBRANCH   4  18
BRANCH   1  21
ATOM     21  C   UNL A   1     -11.797   2.693  38.327  0.00  0.00    +0.112 C 
BRANCH  21  22
ATOM     22  C   UNL A   1     -12.876   2.659  39.385  0.00  0.00    +0.230 C 
ATOM     23  N   UNL A   1     -12.872   1.647  40.302  0.00  0.00    -0.279 N 
ATOM     24  O   UNL A   1     -13.693   3.558  39.698  0.00  0.00    -0.275 OA
ATOM     25  C   UNL A   1     -12.078   0.511  40.158  0.00  0.00    +0.094 C 
ATOM     26  C   UNL A   1     -12.580  -0.548  40.861  0.00  0.00    +0.031 C 
ATOM     27  C   UNL A   1     -13.115  -0.316  41.962  0.00  0.00    +0.004 C 
ATOM     28  C   UNL A   1     -13.947   0.868  42.281  0.00  0.00    +0.022 C 
ATOM     29  C   UNL A   1     -13.894   1.823  41.197  0.00  0.00    +0.093 C 
BRANCH  26  30
ATOM     30  C   UNL A   1     -12.162  -1.900  40.379  0.00  0.00    +0.069 C 
ATOM     31 BR   UNL A   1     -12.286  -2.671  38.920  0.00  0.00    -0.081 Br
ENDBRANCH  26  30
ENDBRANCH  21  22
ENDBRANCH   1  21
TORSDOF 7
ENDMDL
ENDMDL
