REMARK  Name = No_2408-gen_results/8p0m/2024-11-26-14-13-15/
REMARK  7 active torsions:
REMARK  status: ('A' for Active; 'I' for Inactive)
REMARK    1  A    between atoms: C_1  and  C_2
REMARK    2  A    between atoms: C_1  and  C_8
REMARK    3  A    between atoms: C_3  and  C_15
REMARK    4  A    between atoms: C_5  and  C_12
REMARK    5  A    between atoms: N_17  and  C_22
REMARK    6  A    between atoms: C_18  and  C_24
REMARK    7  A    between atoms: C_22  and  C_26
REMARK                            x       y       z     vdW  Elec       q    Type
REMARK                         _______ _______ _______ _____ _____    ______ ____
ROOT
ATOM      1  C   UNL A   1     -27.064  -0.119  28.608  0.00  0.00    -0.009 A 
ATOM      2  C   UNL A   1     -26.972   0.714  27.506  0.00  0.00    +0.050 A 
ATOM      3  C   UNL A   1     -25.820   1.491  27.116  0.00  0.00    +0.011 A 
ATOM      4  C   UNL A   1     -24.858   1.342  27.601  0.00  0.00    +0.080 A 
ATOM      5  C   UNL A   1     -24.622   0.529  28.814  0.00  0.00    +0.006 A 
ATOM      6  C   UNL A   1     -25.734  -0.181  29.191  0.00  0.00    -0.003 A 
ENDROOT
BRANCH   2   7
ATOM      7  C   UNL A   1     -28.257   0.837  26.725  0.00  0.00    +0.249 C 
ATOM      8  O   UNL A   1     -29.279   1.238  27.092  0.00  0.00    -0.270 OA
ATOM      9  N   UNL A   1     -28.173   0.422  25.410  0.00  0.00    -0.270 N 
ATOM     10  C   UNL A   1     -26.911  -0.081  24.785  0.00  0.00    +0.116 C 
BRANCH   9  11
ATOM     11  C   UNL A   1     -29.247   0.340  24.500  0.00  0.00    +0.120 C 
BRANCH  11  12
ATOM     12  C   UNL A   1     -30.416   0.123  25.074  0.00  0.00    -0.002 A 
ATOM     13  C   UNL A   1     -31.477  -0.439  24.264  0.00  0.00    -0.003 A 
ATOM     14  C   UNL A   1     -32.662  -0.926  24.879  0.00  0.00    -0.000 A 
ATOM     15  C   UNL A   1     -32.955  -0.524  26.132  0.00  0.00    -0.000 A 
ATOM     16  C   UNL A   1     -32.013   0.099  26.939  0.00  0.00    -0.000 A 
ATOM     17  C   UNL A   1     -30.808   0.390  26.442  0.00  0.00    -0.003 A 
ENDBRANCH  11  12
ENDBRANCH   9  11
ENDBRANCH   2   7
BRANCH   4  18
ATOM     18  C   UNL A   1     -23.540   2.174  27.283  0.00  0.00    +0.388 C 
ATOM     19  O   UNL A   1     -23.458   2.649  26.102  0.00  0.00    -0.241 OA
ATOM     20  O   UNL A   1     -22.455   2.150  28.027  0.00  0.00    -0.241 OA
ENDBRANCH   4  18
BRANCH   1  21
ATOM     21  C   UNL A   1     -28.016  -0.814  28.878  0.00  0.00    +0.112 C 
BRANCH  21  22
ATOM     22  C   UNL A   1     -27.960  -1.441  30.252  0.00  0.00    +0.230 C 
ATOM     23  N   UNL A   1     -29.020  -2.188  30.682  0.00  0.00    -0.279 N 
ATOM     24  O   UNL A   1     -26.973  -1.564  31.016  0.00  0.00    -0.275 OA
ATOM     25  C   UNL A   1     -30.249  -2.189  30.025  0.00  0.00    +0.094 C 
ATOM     26  C   UNL A   1     -31.266  -2.561  30.858  0.00  0.00    +0.031 C 
ATOM     27  C   UNL A   1     -31.031  -3.440  31.709  0.00  0.00    +0.004 C 
ATOM     28  C   UNL A   1     -29.761  -3.595  32.457  0.00  0.00    +0.022 C 
ATOM     29  C   UNL A   1     -28.755  -2.705  31.922  0.00  0.00    +0.093 C 
BRANCH  26  30
ATOM     30  C   UNL A   1     -32.630  -2.097  30.459  0.00  0.00    +0.069 C 
ATOM     31 BR   UNL A   1     -33.496  -2.201  29.053  0.00  0.00    -0.081 Br
ENDBRANCH  26  30
ENDBRANCH  21  22
ENDBRANCH   1  21
TORSDOF 7
