REMARK  Name = No_2409-gen_results/8p0m/2024-11-26-14-13-15/
REMARK  1 active torsions:
REMARK  status: ('A' for Active; 'I' for Inactive)
REMARK    1  A    between atoms: C_10  and  C_12
REMARK                            x       y       z     vdW  Elec       q    Type
REMARK                         _______ _______ _______ _____ _____    ______ ____
ROOT
ATOM      1  C   UNL A   1     -28.016  -0.814  28.878  0.00  0.00    +0.001 A 
ATOM      2  C   UNL A   1     -27.064  -0.119  28.608  0.00  0.00    +0.000 A 
ATOM      3  C   UNL A   1     -26.972   0.714  27.506  0.00  0.00    +0.001 A 
ATOM      4  C   UNL A   1     -28.105   0.774  26.642  0.00  0.00    +0.011 A 
ATOM      5  C   UNL A   1     -29.201   0.104  27.053  0.00  0.00    +0.058 A 
ATOM      6  C   UNL A   1     -29.210  -0.603  28.185  0.00  0.00    +0.011 A 
ATOM      7 CL   UNL A   1     -30.565   0.243  26.049  0.00  0.00    -0.082 Cl
ATOM      8  C   UNL A   1     -25.703  -0.234  29.413  0.00  0.00    -0.000 A 
ATOM      9  C   UNL A   1     -24.530  -0.233  28.812  0.00  0.00    -0.004 A 
ATOM     10  C   UNL A   1     -24.452   0.679  27.615  0.00  0.00    -0.022 A 
ATOM     11  C   UNL A   1     -25.632   0.988  26.910  0.00  0.00    -0.004 A 
ENDROOT
BRANCH  10  12
ATOM     12  C   UNL A   1     -23.141   1.157  27.181  0.00  0.00    +0.022 C 
ATOM     13  C   UNL A   1     -22.983   2.250  26.348  0.00  0.00    +0.005 C 
ATOM     14  C   UNL A   1     -21.994   0.783  28.001  0.00  0.00    +0.005 C 
ENDBRANCH  10  12
TORSDOF 1
