MODEL 2409
MODEL 1
REMARK VINA RESULT:    -6.183      0.000      0.000
REMARK INTER + INTRA:          -6.714
REMARK INTER:                  -6.545
REMARK INTRA:                  -0.169
REMARK UNBOUND:                -0.169
REMARK  Name = No_2409-gen_results/8p0m/2024-11-26-14-13-15/
REMARK  1 active torsions:
REMARK  status: ('A' for Active; 'I' for Inactive)
REMARK    1  A    between atoms: C_10  and  C_12
REMARK                            x       y       z     vdW  Elec       q    Type
REMARK                         _______ _______ _______ _____ _____    ______ ____
ROOT
ATOM      1  C   UNL A   1     -22.408   1.137  28.346  0.00  0.00    +0.001 A 
ATOM      2  C   UNL A   1     -22.984   0.077  28.263  0.00  0.00    +0.000 A 
ATOM      3  C   UNL A   1     -24.149  -0.145  27.549  0.00  0.00    +0.001 A 
ATOM      4  C   UNL A   1     -24.690   0.963  26.832  0.00  0.00    +0.011 A 
ATOM      5  C   UNL A   1     -23.944   2.087  26.824  0.00  0.00    +0.058 A 
ATOM      6  C   UNL A   1     -22.784   2.166  27.480  0.00  0.00    +0.011 A 
ATOM      7 CL   UNL A   1     -24.568   3.374  25.907  0.00  0.00    -0.082 Cl
ATOM      8  C   UNL A   1     -22.553  -1.168  29.146  0.00  0.00    -0.000 A 
ATOM      9  C   UNL A   1     -23.435  -1.942  29.746  0.00  0.00    -0.004 A 
ATOM     10  C   UNL A   1     -24.696  -2.169  28.952  0.00  0.00    -0.022 A 
ATOM     11  C   UNL A   1     -25.097  -1.200  28.010  0.00  0.00    -0.004 A 
ENDROOT
BRANCH  10  12
ATOM     12  C   UNL A   1     -25.501  -3.355  29.236  0.00  0.00    +0.022 C 
ATOM     13  C   UNL A   1     -24.980  -4.636  29.204  0.00  0.00    +0.005 C 
ATOM     14  C   UNL A   1     -26.719  -3.158  30.015  0.00  0.00    +0.005 C 
ENDBRANCH  10  12
TORSDOF 1
ENDMDL
ENDMDL
