MODEL 240
MODEL 1
REMARK VINA RESULT:    -6.497      0.000      0.000
REMARK INTER + INTRA:          -7.221
REMARK INTER:                  -6.877
REMARK INTRA:                  -0.344
REMARK UNBOUND:                -0.344
REMARK  Name = No_240-gen_results/8p0m/2024-11-26-14-13-15/
REMARK  1 active torsions:
REMARK  status: ('A' for Active; 'I' for Inactive)
REMARK    1  A    between atoms: C_3  and  C_4
REMARK                            x       y       z     vdW  Elec       q    Type
REMARK                         _______ _______ _______ _____ _____    ______ ____
ROOT
ATOM      1  C   UNL A   1     -26.463  -3.650  29.815  0.00  0.00    +0.000 A 
ATOM      2  C   UNL A   1     -25.885  -2.601  29.648  0.00  0.00    +0.000 A 
ATOM      3  C   UNL A   1     -24.647  -2.556  29.017  0.00  0.00    +0.000 A 
ATOM      4  C   UNL A   1     -25.829  -4.942  29.581  0.00  0.00    +0.000 A 
ATOM      5  C   UNL A   1     -24.653  -5.002  28.860  0.00  0.00    +0.000 A 
ATOM      6  C   UNL A   1     -23.991  -3.790  28.613  0.00  0.00    +0.000 A 
ENDROOT
BRANCH   3   7
ATOM      7  C   UNL A   1     -23.833  -1.333  28.762  0.00  0.00    +0.000 A 
ATOM      8  C   UNL A   1     -24.390  -0.393  27.846  0.00  0.00    +0.000 A 
ATOM      9  C   UNL A   1     -23.685   0.761  27.507  0.00  0.00    +0.000 A 
ATOM     10  C   UNL A   1     -22.361   0.868  27.982  0.00  0.00    +0.000 A 
ATOM     11  C   UNL A   1     -21.811  -0.035  28.845  0.00  0.00    +0.000 A 
ATOM     12  C   UNL A   1     -22.551  -1.217  29.226  0.00  0.00    +0.000 A 
ENDBRANCH   3   7
TORSDOF 1
ENDMDL
ENDMDL
