REMARK  Name = No_241-gen_results/8p0m/2024-11-26-14-13-15/
REMARK  3 active torsions:
REMARK  status: ('A' for Active; 'I' for Inactive)
REMARK    1  A    between atoms: C_1  and  O_11
REMARK    2  A    between atoms: O_11  and  C_12
REMARK    3  A    between atoms: C_12  and  C_13
REMARK                            x       y       z     vdW  Elec       q    Type
REMARK                         _______ _______ _______ _____ _____    ______ ____
ROOT
ATOM      1  C   UNL A   1     -28.016  -0.814  28.878  0.00  0.00    +0.141 A 
ATOM      2  C   UNL A   1     -27.064  -0.119  28.608  0.00  0.00    +0.037 A 
ATOM      3  C   UNL A   1     -26.972   0.714  27.506  0.00  0.00    +0.007 A 
ATOM      4  C   UNL A   1     -28.105   0.774  26.642  0.00  0.00    +0.050 A 
ATOM      5  C   UNL A   1     -29.201   0.104  27.053  0.00  0.00    +0.071 A 
ATOM      6  C   UNL A   1     -29.210  -0.603  28.185  0.00  0.00    +0.053 A 
ATOM      7  N   UNL A   1     -30.206   0.322  26.059  0.00  0.00    -0.237 NA
ATOM      8  C   UNL A   1     -30.052   0.652  24.886  0.00  0.00    +0.120 C 
ATOM      9  C   UNL A   1     -28.885   1.433  24.527  0.00  0.00    +0.092 C 
ATOM     10  C   UNL A   1     -27.861   1.475  25.425  0.00  0.00    +0.176 C 
ATOM     11  O   UNL A   1     -26.737   2.063  25.177  0.00  0.00    -0.291 OA
ENDROOT
BRANCH   1  12
ATOM     12  O   UNL A   1     -28.068  -1.560  30.074  0.00  0.00    -0.464 OA
BRANCH  12  13
ATOM     13  C   UNL A   1     -27.185  -2.641  30.101  0.00  0.00    +0.319 C 
BRANCH  13  14
ATOM     14  C   UNL A   1     -27.738  -3.956  30.171  0.00  0.00    +0.408 C 
ATOM     15  O   UNL A   1     -26.994  -4.965  29.912  0.00  0.00    -0.241 OA
ATOM     16  O   UNL A   1     -28.919  -4.139  30.588  0.00  0.00    -0.241 OA
ENDBRANCH  13  14
ENDBRANCH  12  13
ENDBRANCH   1  12
TORSDOF 3
