MODEL 2410
MODEL 1
REMARK VINA RESULT:    -4.557      0.000      0.000
REMARK INTER + INTRA:          -4.842
REMARK INTER:                  -4.823
REMARK INTRA:                  -0.019
REMARK UNBOUND:                -0.019
REMARK  Name = No_2410-gen_results/8p0m/2024-11-26-14-13-15/
REMARK  1 active torsions:
REMARK  status: ('A' for Active; 'I' for Inactive)
REMARK    1  A    between atoms: C_2  and  O_7
REMARK                            x       y       z     vdW  Elec       q    Type
REMARK                         _______ _______ _______ _____ _____    ______ ____
ROOT
ATOM      1  C   UNL A   1     -24.973  -2.761  29.820  0.00  0.00    +0.037 A 
ATOM      2  C   UNL A   1     -24.270  -2.957  29.060  0.00  0.00    +0.139 A 
ATOM      3  C   UNL A   1     -26.228  -3.496  29.662  0.00  0.00    +0.003 A 
ATOM      4  C   UNL A   1     -26.264  -4.718  29.804  0.00  0.00    +0.000 A 
ATOM      5  C   UNL A   1     -23.942  -4.461  28.725  0.00  0.00    +0.037 A 
ATOM      6  C   UNL A   1     -25.080  -5.313  28.908  0.00  0.00    +0.003 A 
ENDROOT
BRANCH   2   7
ATOM      7  O   UNL A   1     -23.056  -2.278  28.873  0.00  0.00    -0.471 OA
ATOM      8  C   UNL A   1     -22.665  -1.151  29.152  0.00  0.00    +0.253 C 
ENDBRANCH   2   7
TORSDOF 1
ENDMDL
ENDMDL
