REMARK  Name = No_2410-gen_results/8p0m/2024-11-26-14-13-15/
REMARK  1 active torsions:
REMARK  status: ('A' for Active; 'I' for Inactive)
REMARK    1  A    between atoms: C_2  and  O_7
REMARK                            x       y       z     vdW  Elec       q    Type
REMARK                         _______ _______ _______ _____ _____    ______ ____
ROOT
ATOM      1  C   UNL A   1     -28.016  -0.814  28.878  0.00  0.00    +0.037 A 
ATOM      2  C   UNL A   1     -28.469  -0.785  29.829  0.00  0.00    +0.139 A 
ATOM      3  C   UNL A   1     -27.087   0.290  28.638  0.00  0.00    +0.003 A 
ATOM      4  C   UNL A   1     -26.024   0.364  29.253  0.00  0.00    +0.000 A 
ATOM      5  C   UNL A   1     -27.537  -0.619  31.088  0.00  0.00    +0.037 A 
ATOM      6  C   UNL A   1     -26.384   0.183  30.801  0.00  0.00    +0.003 A 
ENDROOT
BRANCH   2   7
ATOM      7  O   UNL A   1     -29.510  -1.619  30.265  0.00  0.00    -0.471 OA
ATOM      8  C   UNL A   1     -29.546  -2.740  30.759  0.00  0.00    +0.253 C 
ENDBRANCH   2   7
TORSDOF 1
