MODEL 2411
MODEL 1
REMARK VINA RESULT:    -6.015      0.000      0.000
REMARK INTER + INTRA:         -12.493
REMARK INTER:                  -8.828
REMARK INTRA:                  -3.665
REMARK UNBOUND:                -3.665
REMARK  Name = No_2411-gen_results/8p0m/2024-11-26-14-13-15/
REMARK  8 active torsions:
REMARK  status: ('A' for Active; 'I' for Inactive)
REMARK    1  A    between atoms: C_2  and  C_7
REMARK    2  A    between atoms: C_5  and  C_16
REMARK    3  A    between atoms: C_7  and  C_8
REMARK    4  A    between atoms: C_12  and  C_13
REMARK    5  A    between atoms: C_16  and  N_17
REMARK    6  A    between atoms: N_17  and  C_18
REMARK    7  A    between atoms: C_19  and  C_21
REMARK    8  A    between atoms: C_23  and  C_24
REMARK                            x       y       z     vdW  Elec       q    Type
REMARK                         _______ _______ _______ _____ _____    ______ ____
ROOT
ATOM      1  C   UNL A   1     -24.400  -0.419  27.737  0.00  0.00    -0.007 A 
ATOM      2  C   UNL A   1     -23.479  -0.306  28.512  0.00  0.00    -0.018 A 
ATOM      3  C   UNL A   1     -22.549   0.606  28.522  0.00  0.00    -0.004 A 
ATOM      4  C   UNL A   1     -22.579   1.606  27.502  0.00  0.00    -0.001 A 
ATOM      5  C   UNL A   1     -24.563   0.625  26.743  0.00  0.00    -0.003 A 
ATOM      6  C   UNL A   1     -23.644   1.588  26.672  0.00  0.00    -0.003 A 
ENDROOT
BRANCH   5   7
ATOM      7  C   UNL A   1     -25.750   0.563  25.827  0.00  0.00    +0.114 C 
ATOM      8  C   UNL A   1     -25.361  -0.104  24.508  0.00  0.00    +0.028 C 
BRANCH   7   9
ATOM      9  N   UNL A   1     -26.556   1.523  25.879  0.00  0.00    -0.239 NA
BRANCH   9  10
ATOM     10  C   UNL A   1     -27.660   1.463  26.476  0.00  0.00    +0.044 C 
ATOM     11  C   UNL A   1     -27.916   1.996  27.506  0.00  0.00    +0.012 C 
ATOM     12  C   UNL A   1     -28.782   0.673  25.785  0.00  0.00    +0.049 C 
BRANCH  11  13
ATOM     13  C   UNL A   1     -26.987   2.737  28.276  0.00  0.00    +0.001 C 
ATOM     14  C   UNL A   1     -26.355   2.439  29.423  0.00  0.00    -0.000 C 
BRANCH  14  15
ATOM     15  C   UNL A   1     -25.353   3.158  30.075  0.00  0.00    -0.005 C 
ATOM     16  C   UNL A   1     -24.740   2.484  31.154  0.00  0.00    -0.026 C 
ATOM     17  C   UNL A   1     -25.111   1.226  31.508  0.00  0.00    +0.031 C 
ENDBRANCH  14  15
ENDBRANCH  11  13
ENDBRANCH   9  10
ENDBRANCH   7   9
ENDBRANCH   5   7
BRANCH   2  18
ATOM     18  C   UNL A   1     -23.310  -1.329  29.670  0.00  0.00    +0.049 C 
BRANCH  18  19
ATOM     19  C   UNL A   1     -24.220  -2.496  29.575  0.00  0.00    -0.035 C 
ATOM     20  C   UNL A   1     -23.850  -3.571  29.012  0.00  0.00    -0.008 C 
ATOM     21  C   UNL A   1     -24.741  -4.709  29.043  0.00  0.00    -0.005 C 
ATOM     22  C   UNL A   1     -26.035  -4.376  29.364  0.00  0.00    -0.021 C 
ATOM     23  C   UNL A   1     -25.623  -2.547  29.846  0.00  0.00    +0.058 C 
BRANCH  23  24
ATOM     24  C   UNL A   1     -26.647  -1.801  30.412  0.00  0.00    +0.100 C 
ATOM     25  N   UNL A   1     -27.016  -1.845  31.645  0.00  0.00    -0.132 NA
ATOM     26  C   UNL A   1     -27.483  -1.006  29.496  0.00  0.00    +0.021 C 
ENDBRANCH  23  24
ENDBRANCH  18  19
ENDBRANCH   2  18
TORSDOF 8
ENDMDL
ENDMDL
