REMARK  Name = No_2411-gen_results/8p0m/2024-11-26-14-13-15/
REMARK  8 active torsions:
REMARK  status: ('A' for Active; 'I' for Inactive)
REMARK    1  A    between atoms: C_2  and  C_7
REMARK    2  A    between atoms: C_5  and  C_16
REMARK    3  A    between atoms: C_7  and  C_8
REMARK    4  A    between atoms: C_12  and  C_13
REMARK    5  A    between atoms: C_16  and  N_17
REMARK    6  A    between atoms: N_17  and  C_18
REMARK    7  A    between atoms: C_19  and  C_21
REMARK    8  A    between atoms: C_23  and  C_24
REMARK                            x       y       z     vdW  Elec       q    Type
REMARK                         _______ _______ _______ _____ _____    ______ ____
ROOT
ATOM      1  C   UNL A   1     -28.016  -0.814  28.878  0.00  0.00    -0.007 A 
ATOM      2  C   UNL A   1     -27.064  -0.119  28.608  0.00  0.00    -0.018 A 
ATOM      3  C   UNL A   1     -26.876   1.133  28.913  0.00  0.00    -0.004 A 
ATOM      4  C   UNL A   1     -27.901   1.807  29.644  0.00  0.00    -0.001 A 
ATOM      5  C   UNL A   1     -29.046  -0.232  29.718  0.00  0.00    -0.003 A 
ATOM      6  C   UNL A   1     -28.940   1.052  30.060  0.00  0.00    -0.003 A 
ENDROOT
BRANCH   5   7
ATOM      7  C   UNL A   1     -30.194  -1.097  30.147  0.00  0.00    +0.114 C 
ATOM      8  C   UNL A   1     -29.678  -2.311  30.919  0.00  0.00    +0.028 C 
BRANCH   7   9
ATOM      9  N   UNL A   1     -31.172  -1.169  29.365  0.00  0.00    -0.239 NA
BRANCH   9  10
ATOM     10  C   UNL A   1     -32.356  -0.942  29.721  0.00  0.00    +0.044 C 
ATOM     11  C   UNL A   1     -32.699  -0.627  30.813  0.00  0.00    +0.012 C 
ATOM     12  C   UNL A   1     -33.438  -1.033  28.634  0.00  0.00    +0.049 C 
BRANCH  11  13
ATOM     13  C   UNL A   1     -31.829  -0.524  31.926  0.00  0.00    +0.001 C 
ATOM     14  C   UNL A   1     -32.009   0.022  33.139  0.00  0.00    -0.000 C 
BRANCH  14  15
ATOM     15  C   UNL A   1     -31.158  -0.014  34.244  0.00  0.00    -0.005 C 
ATOM     16  C   UNL A   1     -29.934  -0.685  34.034  0.00  0.00    -0.026 C 
ATOM     17  C   UNL A   1     -29.625  -1.241  32.834  0.00  0.00    +0.031 C 
ENDBRANCH  14  15
ENDBRANCH  11  13
ENDBRANCH   9  10
ENDBRANCH   7   9
ENDBRANCH   5   7
BRANCH   2  18
ATOM     18  C   UNL A   1     -25.873  -0.713  27.805  0.00  0.00    +0.049 C 
BRANCH  18  19
ATOM     19  C   UNL A   1     -24.760  -1.199  28.657  0.00  0.00    -0.035 C 
ATOM     20  C   UNL A   1     -24.750  -2.385  29.106  0.00  0.00    -0.008 C 
ATOM     21  C   UNL A   1     -23.589  -2.834  29.842  0.00  0.00    -0.005 C 
ATOM     22  C   UNL A   1     -22.791  -1.804  30.279  0.00  0.00    -0.021 C 
ATOM     23  C   UNL A   1     -23.723  -0.434  29.277  0.00  0.00    +0.058 C 
BRANCH  23  24
ATOM     24  C   UNL A   1     -23.163   0.835  29.277  0.00  0.00    +0.100 C 
ATOM     25  N   UNL A   1     -23.566   1.834  29.983  0.00  0.00    -0.132 NA
ATOM     26  C   UNL A   1     -22.120   1.108  28.273  0.00  0.00    +0.021 C 
ENDBRANCH  23  24
ENDBRANCH  18  19
ENDBRANCH   2  18
TORSDOF 8
