MODEL 2412
MODEL 1
REMARK VINA RESULT:    -7.210      0.000      0.000
REMARK INTER + INTRA:          -8.563
REMARK INTER:                  -8.052
REMARK INTRA:                  -0.511
REMARK UNBOUND:                -0.511
REMARK  Name = No_2412-gen_results/8p0m/2024-11-26-14-13-15/
REMARK  2 active torsions:
REMARK  status: ('A' for Active; 'I' for Inactive)
REMARK    1  A    between atoms: C_3  and  C_4
REMARK    2  A    between atoms: C_7  and  C_13
REMARK                            x       y       z     vdW  Elec       q    Type
REMARK                         _______ _______ _______ _____ _____    ______ ____
ROOT
ATOM      1  C   UNL A   1     -24.833   0.451  26.919  0.00  0.00    +0.004 A 
ATOM      2  C   UNL A   1     -25.192  -0.637  27.306  0.00  0.00    -0.000 A 
ATOM      3  C   UNL A   1     -24.495  -1.389  28.251  0.00  0.00    -0.000 A 
ATOM      4  C   UNL A   1     -23.492   0.951  27.346  0.00  0.00    +0.071 A 
ATOM      5  C   UNL A   1     -22.769   0.333  28.328  0.00  0.00    +0.004 A 
ATOM      6  C   UNL A   1     -23.209  -0.925  28.825  0.00  0.00    -0.000 A 
ENDROOT
BRANCH   3   7
ATOM      7  C   UNL A   1     -24.852  -2.724  28.769  0.00  0.00    -0.000 A 
ATOM      8  C   UNL A   1     -26.101  -3.078  29.392  0.00  0.00    -0.000 A 
ATOM      9  C   UNL A   1     -26.339  -4.392  29.838  0.00  0.00    +0.000 A 
ATOM     10  C   UNL A   1     -25.494  -5.477  29.445  0.00  0.00    +0.000 A 
ATOM     11  C   UNL A   1     -24.017  -3.891  28.490  0.00  0.00    -0.000 A 
ATOM     12  C   UNL A   1     -24.342  -5.171  28.835  0.00  0.00    +0.000 A 
ENDBRANCH   3   7
BRANCH   4  13
ATOM     13  C   UNL A   1     -22.871   2.257  26.970  0.00  0.00    +0.419 C 
ATOM     14  F   UNL A   1     -23.502   3.321  27.209  0.00  0.00    -0.166 F 
ATOM     15  F   UNL A   1     -21.666   2.348  27.669  0.00  0.00    -0.166 F 
ATOM     16  F   UNL A   1     -22.480   2.277  25.702  0.00  0.00    -0.166 F 
ENDBRANCH   4  13
TORSDOF 2
ENDMDL
ENDMDL
