REMARK  Name = No_2413-gen_results/8p0m/2024-11-26-14-13-15/
REMARK  3 active torsions:
REMARK  status: ('A' for Active; 'I' for Inactive)
REMARK    1  A    between atoms: C_4  and  C_7
REMARK    2  A    between atoms: C_7  and  N_8
REMARK    3  A    between atoms: N_8  and  C_9
REMARK                            x       y       z     vdW  Elec       q    Type
REMARK                         _______ _______ _______ _____ _____    ______ ____
ROOT
ATOM      1  C   UNL A   1     -28.016  -0.814  28.878  0.00  0.00    -0.000 A 
ATOM      2  C   UNL A   1     -28.469  -0.785  29.829  0.00  0.00    -0.000 A 
ATOM      3  C   UNL A   1     -27.217  -0.083  27.964  0.00  0.00    -0.003 A 
ATOM      4  C   UNL A   1     -27.090   1.270  28.418  0.00  0.00    -0.001 A 
ATOM      5  C   UNL A   1     -27.666   1.576  29.694  0.00  0.00    -0.003 A 
ATOM      6  C   UNL A   1     -28.334   0.603  30.432  0.00  0.00    -0.000 A 
ENDROOT
BRANCH   4   7
ATOM      7  C   UNL A   1     -26.358   2.279  27.697  0.00  0.00    +0.139 C 
BRANCH   7   8
ATOM      8  N   UNL A   1     -25.071   2.192  27.911  0.00  0.00    -0.232 NA
BRANCH   8   9
ATOM      9  C   UNL A   1     -24.224   1.542  27.677  0.00  0.00    +0.081 C 
ATOM     10  C   UNL A   1     -22.821   1.710  28.148  0.00  0.00    +0.019 C 
ENDBRANCH   8   9
ENDBRANCH   7   8
ENDBRANCH   4   7
TORSDOF 3
