MODEL 2413
MODEL 1
REMARK VINA RESULT:    -4.783      0.000      0.000
REMARK INTER + INTRA:          -5.888
REMARK INTER:                  -5.622
REMARK INTRA:                  -0.266
REMARK UNBOUND:                -0.266
REMARK  Name = No_2413-gen_results/8p0m/2024-11-26-14-13-15/
REMARK  3 active torsions:
REMARK  status: ('A' for Active; 'I' for Inactive)
REMARK    1  A    between atoms: C_4  and  C_7
REMARK    2  A    between atoms: C_7  and  N_8
REMARK    3  A    between atoms: N_8  and  C_9
REMARK                            x       y       z     vdW  Elec       q    Type
REMARK                         _______ _______ _______ _____ _____    ______ ____
ROOT
ATOM      1  C   UNL A   1     -26.365  -3.850  29.793  0.00  0.00    -0.000 A 
ATOM      2  C   UNL A   1     -26.211  -4.875  29.603  0.00  0.00    -0.000 A 
ATOM      3  C   UNL A   1     -25.834  -2.552  29.592  0.00  0.00    -0.003 A 
ATOM      4  C   UNL A   1     -24.507  -2.657  29.063  0.00  0.00    -0.001 A 
ATOM      5  C   UNL A   1     -24.043  -3.976  28.749  0.00  0.00    -0.003 A 
ATOM      6  C   UNL A   1     -24.843  -5.091  28.977  0.00  0.00    -0.000 A 
ENDROOT
BRANCH   4   7
ATOM      7  C   UNL A   1     -23.682  -1.514  28.769  0.00  0.00    +0.139 C 
BRANCH   7   8
ATOM      8  N   UNL A   1     -22.888  -1.219  29.766  0.00  0.00    -0.232 NA
BRANCH   8   9
ATOM      9  C   UNL A   1     -22.854  -0.576  30.649  0.00  0.00    +0.081 C 
ATOM     10  C   UNL A   1     -23.033  -1.004  32.064  0.00  0.00    +0.019 C 
ENDBRANCH   8   9
ENDBRANCH   7   8
ENDBRANCH   4   7
TORSDOF 3
ENDMDL
ENDMDL
