MODEL 2415
MODEL 1
REMARK VINA RESULT:    -5.422      0.000      0.000
REMARK INTER + INTRA:          -6.251
REMARK INTER:                  -6.056
REMARK INTRA:                  -0.196
REMARK UNBOUND:                -0.196
REMARK  Name = No_2415-gen_results/8p0m/2024-11-26-14-13-15/
REMARK  2 active torsions:
REMARK  status: ('A' for Active; 'I' for Inactive)
REMARK    1  A    between atoms: C_2  and  C_7
REMARK    2  A    between atoms: C_7  and  C_8
REMARK                            x       y       z     vdW  Elec       q    Type
REMARK                         _______ _______ _______ _____ _____    ______ ____
ROOT
ATOM      1  C   UNL A   1     -23.909  -3.487  28.574  0.00  0.00    -0.004 A 
ATOM      2  C   UNL A   1     -24.704  -2.645  28.925  0.00  0.00    -0.018 A 
ATOM      3  C   UNL A   1     -25.908  -2.999  29.523  0.00  0.00    -0.004 A 
ATOM      4  C   UNL A   1     -26.268  -4.382  29.702  0.00  0.00    -0.000 A 
ATOM      5  C   UNL A   1     -25.302  -5.289  29.247  0.00  0.00    -0.000 A 
ATOM      6  C   UNL A   1     -24.186  -4.903  28.673  0.00  0.00    -0.000 A 
ENDROOT
BRANCH   2   7
ATOM      7  C   UNL A   1     -24.512  -1.176  28.793  0.00  0.00    +0.052 C 
BRANCH   7   8
ATOM      8  C   UNL A   1     -23.354  -0.621  28.716  0.00  0.00    -0.026 C 
ATOM      9  C   UNL A   1     -23.244   0.689  28.062  0.00  0.00    -0.030 C 
ATOM     10  C   UNL A   1     -22.081   1.368  27.692  0.00  0.00    +0.030 C 
ENDBRANCH   7   8
ENDBRANCH   2   7
TORSDOF 2
ENDMDL
ENDMDL
