MODEL 2416
MODEL 1
REMARK VINA RESULT:    -6.976      0.000      0.000
REMARK INTER + INTRA:          -8.143
REMARK INTER:                  -7.791
REMARK INTRA:                  -0.351
REMARK UNBOUND:                -0.351
REMARK  Name = No_2416-gen_results/8p0m/2024-11-26-14-13-15/
REMARK  2 active torsions:
REMARK  status: ('A' for Active; 'I' for Inactive)
REMARK    1  A    between atoms: C_2  and  C_12
REMARK    2  A    between atoms: C_4  and  C_6
REMARK                            x       y       z     vdW  Elec       q    Type
REMARK                         _______ _______ _______ _____ _____    ______ ____
ROOT
ATOM      1  C   UNL A   1     -24.544   0.299  27.289  0.00  0.00    +0.007 A 
ATOM      2  C   UNL A   1     -23.595   0.617  27.619  0.00  0.00    +0.080 A 
ATOM      3  C   UNL A   1     -24.955  -1.087  27.732  0.00  0.00    +0.000 A 
ATOM      4  C   UNL A   1     -24.141  -1.791  28.644  0.00  0.00    -0.000 A 
ATOM      5  C   UNL A   1     -22.589   0.108  28.578  0.00  0.00    +0.007 A 
ATOM      6  C   UNL A   1     -22.953  -1.181  29.039  0.00  0.00    +0.000 A 
ENDROOT
BRANCH   4   7
ATOM      7  C   UNL A   1     -24.468  -3.086  29.110  0.00  0.00    -0.004 C 
ATOM      8  C   UNL A   1     -25.661  -3.471  29.347  0.00  0.00    -0.021 C 
ATOM      9  C   UNL A   1     -26.012  -4.866  29.670  0.00  0.00    +0.052 C 
ATOM     10  C   UNL A   1     -24.039  -4.338  28.560  0.00  0.00    -0.004 C 
ATOM     11  C   UNL A   1     -24.915  -5.423  29.008  0.00  0.00    -0.021 C 
ENDBRANCH   4   7
BRANCH   2  12
ATOM     12  C   UNL A   1     -23.117   2.073  27.099  0.00  0.00    +0.388 C 
ATOM     13  O   UNL A   1     -23.529   2.899  27.773  0.00  0.00    -0.241 OA
ATOM     14  O   UNL A   1     -22.717   2.277  25.886  0.00  0.00    -0.241 OA
ENDBRANCH   2  12
TORSDOF 2
ENDMDL
ENDMDL
