REMARK  Name = No_2416-gen_results/8p0m/2024-11-26-14-13-15/
REMARK  2 active torsions:
REMARK  status: ('A' for Active; 'I' for Inactive)
REMARK    1  A    between atoms: C_2  and  C_12
REMARK    2  A    between atoms: C_4  and  C_6
REMARK                            x       y       z     vdW  Elec       q    Type
REMARK                         _______ _______ _______ _____ _____    ______ ____
ROOT
ATOM      1  C   UNL A   1     -28.016  -0.814  28.878  0.00  0.00    +0.007 A 
ATOM      2  C   UNL A   1     -28.469  -0.785  29.829  0.00  0.00    +0.080 A 
ATOM      3  C   UNL A   1     -26.504  -0.778  28.877  0.00  0.00    +0.000 A 
ATOM      4  C   UNL A   1     -25.810  -0.853  30.103  0.00  0.00    -0.000 A 
ATOM      5  C   UNL A   1     -27.991  -0.892  31.226  0.00  0.00    +0.007 A 
ATOM      6  C   UNL A   1     -26.575  -0.890  31.266  0.00  0.00    +0.000 A 
ENDROOT
BRANCH   4   7
ATOM      7  C   UNL A   1     -24.398  -0.836  30.177  0.00  0.00    -0.004 C 
ATOM      8  C   UNL A   1     -23.636  -0.904  29.156  0.00  0.00    -0.021 C 
ATOM      9  C   UNL A   1     -22.175  -0.719  29.223  0.00  0.00    +0.052 C 
ATOM     10  C   UNL A   1     -23.579   0.105  30.883  0.00  0.00    -0.004 C 
ATOM     11  C   UNL A   1     -22.206   0.075  30.372  0.00  0.00    -0.021 C 
ENDBRANCH   4   7
BRANCH   2  12
ATOM     12  C   UNL A   1     -30.087  -0.758  29.841  0.00  0.00    +0.388 C 
ATOM     13  O   UNL A   1     -30.491  -0.297  28.877  0.00  0.00    -0.241 OA
ATOM     14  O   UNL A   1     -30.771  -0.835  30.936  0.00  0.00    -0.241 OA
ENDBRANCH   2  12
TORSDOF 2
