REMARK  Name = No_2417-gen_results/8p0m/2024-11-26-14-13-15/
REMARK  5 active torsions:
REMARK  status: ('A' for Active; 'I' for Inactive)
REMARK    1  A    between atoms: C_3  and  C_4
REMARK    2  A    between atoms: C_4  and  C_8
REMARK    3  A    between atoms: C_9  and  C_15
REMARK    4  A    between atoms: C_15  and  C_16
REMARK    5  A    between atoms: C_16  and  C_17
REMARK                            x       y       z     vdW  Elec       q    Type
REMARK                         _______ _______ _______ _____ _____    ______ ____
ROOT
ATOM      1  C   UNL A   1     -25.220   0.687  27.394  0.00  0.00    -0.022 A 
ATOM      2  C   UNL A   1     -25.303   1.079  26.073  0.00  0.00    -0.023 A 
ATOM      3  C   UNL A   1     -24.730   2.338  25.687  0.00  0.00    -0.004 A 
ATOM      4  C   UNL A   1     -24.013   2.991  26.696  0.00  0.00    -0.000 A 
ATOM      5  C   UNL A   1     -24.378   1.571  28.162  0.00  0.00    -0.004 A 
ATOM      6  C   UNL A   1     -23.761   2.536  27.778  0.00  0.00    -0.000 A 
ENDROOT
BRANCH   1   7
ATOM      7  C   UNL A   1     -25.654  -0.660  27.719  0.00  0.00    +0.052 C 
BRANCH   7  10
ATOM      8  C   UNL A   1     -28.016  -0.814  28.878  0.00  0.00    +0.026 A 
ATOM      9  C   UNL A   1     -28.469  -0.785  29.829  0.00  0.00    +0.140 A 
ATOM     10  C   UNL A   1     -26.504  -0.778  28.877  0.00  0.00    -0.016 A 
ATOM     11  C   UNL A   1     -27.918  -0.937  31.182  0.00  0.00    +0.030 A 
ATOM     12  C   UNL A   1     -26.542  -0.940  31.261  0.00  0.00    +0.002 A 
ATOM     13  C   UNL A   1     -25.783  -0.893  30.120  0.00  0.00    -0.004 A 
ATOM     14  F   UNL A   1     -29.907  -0.814  29.832  0.00  0.00    -0.204 F 
ENDBRANCH   7  10
ENDBRANCH   1   7
BRANCH   2  15
ATOM     15  C   UNL A   1     -26.055   0.571  24.962  0.00  0.00    +0.066 C 
BRANCH  15  16
ATOM     16  C   UNL A   1     -27.480   0.442  25.071  0.00  0.00    +0.188 C 
ATOM     17  F   UNL A   1     -28.111  -0.314  24.291  0.00  0.00    -0.232 F 
BRANCH  16  18
ATOM     18  C   UNL A   1     -28.150   1.210  26.006  0.00  0.00    +0.010 A 
ATOM     19  C   UNL A   1     -29.568   1.202  26.092  0.00  0.00    -0.002 A 
ATOM     20  C   UNL A   1     -30.282   1.964  27.051  0.00  0.00    -0.000 A 
ATOM     21  C   UNL A   1     -29.539   2.740  27.966  0.00  0.00    -0.000 A 
ATOM     22  C   UNL A   1     -28.118   2.804  27.866  0.00  0.00    -0.000 A 
ATOM     23  C   UNL A   1     -27.482   2.106  26.943  0.00  0.00    -0.002 A 
ENDBRANCH  16  18
ENDBRANCH  15  16
ENDBRANCH   2  15
TORSDOF 5
