MODEL 2417
MODEL 1
REMARK VINA RESULT:    -8.218      0.000      0.000
REMARK INTER + INTRA:         -12.058
REMARK INTER:                 -10.620
REMARK INTRA:                  -1.439
REMARK UNBOUND:                -1.439
REMARK  Name = No_2417-gen_results/8p0m/2024-11-26-14-13-15/
REMARK  5 active torsions:
REMARK  status: ('A' for Active; 'I' for Inactive)
REMARK    1  A    between atoms: C_3  and  C_4
REMARK    2  A    between atoms: C_4  and  C_8
REMARK    3  A    between atoms: C_9  and  C_15
REMARK    4  A    between atoms: C_15  and  C_16
REMARK    5  A    between atoms: C_16  and  C_17
REMARK                            x       y       z     vdW  Elec       q    Type
REMARK                         _______ _______ _______ _____ _____    ______ ____
ROOT
ATOM      1  C   UNL A   1     -23.317  -0.063  28.727  0.00  0.00    -0.022 A 
ATOM      2  C   UNL A   1     -22.951   1.021  27.955  0.00  0.00    -0.023 A 
ATOM      3  C   UNL A   1     -21.556   1.335  27.819  0.00  0.00    -0.004 A 
ATOM      4  C   UNL A   1     -20.685   0.403  28.395  0.00  0.00    -0.000 A 
ATOM      5  C   UNL A   1     -22.171  -0.835  29.141  0.00  0.00    -0.004 A 
ATOM      6  C   UNL A   1     -21.008  -0.650  28.872  0.00  0.00    -0.000 A 
ENDROOT
BRANCH   1   7
ATOM      7  C   UNL A   1     -24.715  -0.456  28.706  0.00  0.00    +0.052 C 
BRANCH   7  10
ATOM      8  C   UNL A   1     -24.137  -3.015  28.451  0.00  0.00    +0.026 A 
ATOM      9  C   UNL A   1     -24.544  -3.971  28.623  0.00  0.00    +0.140 A 
ATOM     10  C   UNL A   1     -24.972  -1.854  28.943  0.00  0.00    -0.016 A 
ATOM     11  C   UNL A   1     -25.674  -4.422  29.447  0.00  0.00    +0.030 A 
ATOM     12  C   UNL A   1     -26.470  -3.418  29.955  0.00  0.00    +0.002 A 
ATOM     13  C   UNL A   1     -26.138  -2.103  29.754  0.00  0.00    -0.004 A 
ATOM     14  F   UNL A   1     -23.754  -5.076  28.151  0.00  0.00    -0.204 F 
ENDBRANCH   7  10
ENDBRANCH   1   7
BRANCH   2  15
ATOM     15  C   UNL A   1     -23.709   2.095  27.380  0.00  0.00    +0.066 C 
BRANCH  15  16
ATOM     16  C   UNL A   1     -23.986   2.091  25.972  0.00  0.00    +0.188 C 
ATOM     17  F   UNL A   1     -23.260   2.741  25.179  0.00  0.00    -0.232 F 
BRANCH  16  18
ATOM     18  C   UNL A   1     -25.100   1.411  25.513  0.00  0.00    +0.010 A 
ATOM     19  C   UNL A   1     -26.396   1.992  25.566  0.00  0.00    -0.002 A 
ATOM     20  C   UNL A   1     -27.553   1.328  25.087  0.00  0.00    -0.000 A 
ATOM     21  C   UNL A   1     -27.393   0.047  24.517  0.00  0.00    -0.000 A 
ATOM     22  C   UNL A   1     -26.111  -0.577  24.501  0.00  0.00    -0.000 A 
ATOM     23  C   UNL A   1     -25.056   0.054  24.981  0.00  0.00    -0.002 A 
ENDBRANCH  16  18
ENDBRANCH  15  16
ENDBRANCH   2  15
TORSDOF 5
ENDMDL
ENDMDL
