MODEL 2418
MODEL 1
REMARK VINA RESULT:    -4.501      0.000      0.000
REMARK INTER + INTRA:          -4.501
REMARK INTER:                  -4.501
REMARK INTRA:                   0.000
REMARK UNBOUND:                 0.000
REMARK  Name = No_2418-gen_results/8p0m/2024-11-26-14-13-15/
REMARK  0 active torsions:
REMARK  status: ('A' for Active; 'I' for Inactive)
REMARK                            x       y       z     vdW  Elec       q    Type
REMARK                         _______ _______ _______ _____ _____    ______ ____
ROOT
ATOM      1  C   UNL A   1     -24.026  -4.347  28.743  0.00  0.00    +0.030 A 
ATOM      2  C   UNL A   1     -24.916  -4.884  28.916  0.00  0.00    +0.140 A 
ATOM      3  C   UNL A   1     -24.068  -2.882  29.115  0.00  0.00    +0.002 A 
ATOM      4  C   UNL A   1     -25.201  -2.371  29.782  0.00  0.00    +0.000 A 
ATOM      5  C   UNL A   1     -26.193  -4.608  29.612  0.00  0.00    +0.030 A 
ATOM      6  C   UNL A   1     -26.266  -3.271  29.975  0.00  0.00    +0.002 A 
ATOM      7  F   UNL A   1     -24.865  -6.293  28.569  0.00  0.00    -0.204 F 
ENDROOT
TORSDOF 0
ENDMDL
ENDMDL
