REMARK  Name = No_2419-gen_results/8p0m/2024-11-26-14-13-15/
REMARK  4 active torsions:
REMARK  status: ('A' for Active; 'I' for Inactive)
REMARK    1  A    between atoms: C_2  and  C_13
REMARK    2  A    between atoms: C_4  and  C_7
REMARK    3  A    between atoms: N_15  and  C_17
REMARK    4  A    between atoms: C_21  and  C_23
REMARK                            x       y       z     vdW  Elec       q    Type
REMARK                         _______ _______ _______ _____ _____    ______ ____
ROOT
ATOM      1  C   UNL A   1     -30.087  -0.837  30.016  0.00  0.00    +0.253 C 
ATOM      2  O   UNL A   1     -30.672  -1.836  30.118  0.00  0.00    -0.270 OA
ATOM      3  N   UNL A   1     -30.729   0.286  29.411  0.00  0.00    -0.253 N 
ATOM      4  C   UNL A   1     -32.125   0.286  29.265  0.00  0.00    +0.120 C 
ENDROOT
BRANCH   1   6
ATOM      5  C   UNL A   1     -28.016  -0.814  28.878  0.00  0.00    +0.004 A 
ATOM      6  C   UNL A   1     -28.469  -0.785  29.829  0.00  0.00    +0.054 A 
ATOM      7  C   UNL A   1     -26.504  -0.778  28.877  0.00  0.00    +0.000 A 
ATOM      8  C   UNL A   1     -25.810  -0.853  30.103  0.00  0.00    +0.000 A 
ATOM      9  C   UNL A   1     -27.991  -0.892  31.226  0.00  0.00    +0.004 A 
ATOM     10  C   UNL A   1     -26.604  -0.868  31.265  0.00  0.00    +0.000 A 
BRANCH   8  11
ATOM     11  C   UNL A   1     -24.389  -0.805  30.164  0.00  0.00    +0.000 A 
ATOM     12  C   UNL A   1     -23.766  -0.950  31.068  0.00  0.00    +0.000 A 
ATOM     13  C   UNL A   1     -22.267  -0.838  31.225  0.00  0.00    +0.000 A 
ATOM     14  C   UNL A   1     -21.670  -0.526  30.065  0.00  0.00    +0.000 A 
ATOM     15  C   UNL A   1     -23.644  -0.443  28.962  0.00  0.00    +0.000 A 
ATOM     16  C   UNL A   1     -22.348  -0.303  28.918  0.00  0.00    +0.000 A 
ENDBRANCH   8  11
ENDBRANCH   1   6
BRANCH   3  17
ATOM     17  C   UNL A   1     -30.017   1.548  29.190  0.00  0.00    +0.054 A 
ATOM     18  C   UNL A   1     -29.895   1.883  27.977  0.00  0.00    +0.015 A 
ATOM     19  C   UNL A   1     -30.206   2.971  27.606  0.00  0.00    +0.001 A 
ATOM     20  C   UNL A   1     -30.148   4.157  28.483  0.00  0.00    +0.002 A 
ATOM     21  C   UNL A   1     -30.132   3.774  29.860  0.00  0.00    +0.020 A 
ATOM     22  C   UNL A   1     -29.972   2.405  30.309  0.00  0.00    +0.016 A 
BRANCH  21  23
ATOM     23  C   UNL A   1     -30.079   4.840  30.923  0.00  0.00    +0.093 C 
ATOM     24  N   UNL A   1     -29.574   5.883  30.805  0.00  0.00    -0.267 NA
ATOM     25  C   UNL A   1     -29.522   6.798  31.823  0.00  0.00    +0.152 C 
ENDBRANCH  21  23
ENDBRANCH   3  17
TORSDOF 4
