MODEL 2419
MODEL 1
REMARK VINA RESULT:    -7.099      0.000      0.000
REMARK INTER + INTRA:          -9.740
REMARK INTER:                  -8.759
REMARK INTRA:                  -0.981
REMARK UNBOUND:                -0.981
REMARK  Name = No_2419-gen_results/8p0m/2024-11-26-14-13-15/
REMARK  4 active torsions:
REMARK  status: ('A' for Active; 'I' for Inactive)
REMARK    1  A    between atoms: C_2  and  C_13
REMARK    2  A    between atoms: C_4  and  C_7
REMARK    3  A    between atoms: N_15  and  C_17
REMARK    4  A    between atoms: C_21  and  C_23
REMARK                            x       y       z     vdW  Elec       q    Type
REMARK                         _______ _______ _______ _____ _____    ______ ____
ROOT
ATOM      1  C   UNL A   1     -24.563   0.120  29.715  0.00  0.00    +0.253 C 
ATOM      2  O   UNL A   1     -23.951   0.967  30.224  0.00  0.00    -0.270 OA
ATOM      3  N   UNL A   1     -24.198  -1.240  29.953  0.00  0.00    -0.253 N 
ATOM      4  C   UNL A   1     -23.358  -1.550  31.034  0.00  0.00    +0.120 C 
ENDROOT
BRANCH   1   6
ATOM      5  C   UNL A   1     -24.747   0.252  27.363  0.00  0.00    +0.004 A 
ATOM      6  C   UNL A   1     -25.285   0.310  28.267  0.00  0.00    +0.054 A 
ATOM      7  C   UNL A   1     -25.560   0.473  26.107  0.00  0.00    +0.000 A 
ATOM      8  C   UNL A   1     -26.909   0.873  26.218  0.00  0.00    +0.000 A 
ATOM      9  C   UNL A   1     -26.650   0.734  28.654  0.00  0.00    +0.004 A 
ATOM     10  C   UNL A   1     -27.426   0.952  27.524  0.00  0.00    +0.000 A 
BRANCH   8  11
ATOM     11  C   UNL A   1     -27.727   1.077  25.071  0.00  0.00    +0.000 A 
ATOM     12  C   UNL A   1     -27.834   2.020  24.502  0.00  0.00    +0.000 A 
ATOM     13  C   UNL A   1     -28.736   2.333  23.330  0.00  0.00    +0.000 A 
ATOM     14  C   UNL A   1     -29.474   1.270  22.976  0.00  0.00    +0.000 A 
ATOM     15  C   UNL A   1     -28.594  -0.009  24.622  0.00  0.00    +0.000 A 
ATOM     16  C   UNL A   1     -29.432   0.087  23.628  0.00  0.00    +0.000 A 
ENDBRANCH   8  11
ENDBRANCH   1   6
BRANCH   3  17
ATOM     17  C   UNL A   1     -24.886  -2.347  29.281  0.00  0.00    +0.054 A 
ATOM     18  C   UNL A   1     -24.129  -3.131  28.640  0.00  0.00    +0.015 A 
ATOM     19  C   UNL A   1     -24.187  -4.309  28.803  0.00  0.00    +0.001 A 
ATOM     20  C   UNL A   1     -25.430  -4.997  29.206  0.00  0.00    +0.002 A 
ATOM     21  C   UNL A   1     -26.353  -4.079  29.796  0.00  0.00    +0.020 A 
ATOM     22  C   UNL A   1     -26.168  -2.641  29.789  0.00  0.00    +0.016 A 
BRANCH  21  23
ATOM     23  C   UNL A   1     -27.687  -4.582  30.282  0.00  0.00    +0.093 C 
ATOM     24  N   UNL A   1     -28.724  -4.184  29.932  0.00  0.00    -0.267 NA
ATOM     25  C   UNL A   1     -29.906  -4.654  30.441  0.00  0.00    +0.152 C 
ENDBRANCH  21  23
ENDBRANCH   3  17
TORSDOF 4
ENDMDL
ENDMDL
