MODEL 241
MODEL 1
REMARK VINA RESULT:    -5.666      0.000      0.000
REMARK INTER + INTRA:          -6.888
REMARK INTER:                  -6.660
REMARK INTRA:                  -0.228
REMARK UNBOUND:                -0.228
REMARK  Name = No_241-gen_results/8p0m/2024-11-26-14-13-15/
REMARK  3 active torsions:
REMARK  status: ('A' for Active; 'I' for Inactive)
REMARK    1  A    between atoms: C_1  and  O_11
REMARK    2  A    between atoms: O_11  and  C_12
REMARK    3  A    between atoms: C_12  and  C_13
REMARK                            x       y       z     vdW  Elec       q    Type
REMARK                         _______ _______ _______ _____ _____    ______ ____
ROOT
ATOM      1  C   UNL A   1     -23.822  -1.634  29.332  0.00  0.00    +0.141 A 
ATOM      2  C   UNL A   1     -22.736  -1.151  29.556  0.00  0.00    +0.037 A 
ATOM      3  C   UNL A   1     -22.209  -0.041  28.917  0.00  0.00    +0.007 A 
ATOM      4  C   UNL A   1     -23.030   0.595  27.940  0.00  0.00    +0.050 A 
ATOM      5  C   UNL A   1     -24.288   0.122  27.823  0.00  0.00    +0.071 A 
ATOM      6  C   UNL A   1     -24.725  -0.905  28.555  0.00  0.00    +0.053 A 
ATOM      7  N   UNL A   1     -24.926   0.914  26.817  0.00  0.00    -0.237 NA
ATOM      8  C   UNL A   1     -24.400   1.577  25.928  0.00  0.00    +0.120 C 
ATOM      9  C   UNL A   1     -23.072   2.114  26.149  0.00  0.00    +0.092 C 
ATOM     10  C   UNL A   1     -22.348   1.586  27.176  0.00  0.00    +0.176 C 
ATOM     11  O   UNL A   1     -21.122   1.921  27.412  0.00  0.00    -0.291 OA
ENDROOT
BRANCH   1  12
ATOM     12  O   UNL A   1     -24.323  -2.707  30.097  0.00  0.00    -0.464 OA
BRANCH  12  13
ATOM     13  C   UNL A   1     -25.693  -2.921  29.936  0.00  0.00    +0.319 C 
BRANCH  13  14
ATOM     14  C   UNL A   1     -26.135  -4.248  29.649  0.00  0.00    +0.408 C 
ATOM     15  O   UNL A   1     -27.389  -4.505  29.641  0.00  0.00    -0.241 OA
ATOM     16  O   UNL A   1     -25.310  -5.142  29.299  0.00  0.00    -0.241 OA
ENDBRANCH  13  14
ENDBRANCH  12  13
ENDBRANCH   1  12
TORSDOF 3
ENDMDL
ENDMDL
