REMARK  Name = No_242-gen_results/8p0m/2024-11-26-14-13-15/
REMARK  2 active torsions:
REMARK  status: ('A' for Active; 'I' for Inactive)
REMARK    1  A    between atoms: C_3  and  C_9
REMARK    2  A    between atoms: C_9  and  C_10
REMARK                            x       y       z     vdW  Elec       q    Type
REMARK                         _______ _______ _______ _____ _____    ______ ____
ROOT
ATOM      1  C   UNL A   1     -28.016  -0.814  28.878  0.00  0.00    +0.026 A 
ATOM      2  C   UNL A   1     -28.469  -0.785  29.829  0.00  0.00    +0.140 A 
ATOM      3  C   UNL A   1     -26.504  -0.778  28.877  0.00  0.00    -0.009 A 
ATOM      4  C   UNL A   1     -25.810  -0.853  30.103  0.00  0.00    +0.031 A 
ATOM      5  C   UNL A   1     -27.991  -0.892  31.226  0.00  0.00    +0.030 A 
ATOM      6  C   UNL A   1     -26.604  -0.868  31.265  0.00  0.00    +0.009 A 
ATOM      7 BR   UNL A   1     -23.986  -0.798  30.172  0.00  0.00    -0.049 Br
ATOM      8  F   UNL A   1     -29.947  -0.833  29.819  0.00  0.00    -0.204 F 
ENDROOT
BRANCH   3   9
ATOM      9  C   UNL A   1     -25.636  -0.729  27.654  0.00  0.00    +0.052 C 
BRANCH   9  10
ATOM     10  C   UNL A   1     -25.382   0.590  27.125  0.00  0.00    -0.026 C 
ATOM     11  C   UNL A   1     -24.267   1.124  27.337  0.00  0.00    -0.030 C 
ATOM     12  C   UNL A   1     -23.902   2.385  26.632  0.00  0.00    +0.030 C 
ENDBRANCH   9  10
ENDBRANCH   3   9
TORSDOF 2
