MODEL 2420
MODEL 1
REMARK VINA RESULT:    -3.552      0.000      0.000
REMARK INTER + INTRA:          -3.552
REMARK INTER:                  -3.552
REMARK INTRA:                   0.000
REMARK UNBOUND:                 0.000
REMARK  Name = No_2420-gen_results/8p0m/2024-11-26-14-13-15/
REMARK  0 active torsions:
REMARK  status: ('A' for Active; 'I' for Inactive)
REMARK                            x       y       z     vdW  Elec       q    Type
REMARK                         _______ _______ _______ _____ _____    ______ ____
ROOT
ATOM      1  P   UNL A   1     -20.152 -12.221   3.083  0.00  0.00    +0.559 P 
ATOM      2  O   UNL A   1     -20.302 -11.105   3.229  0.00  0.00    -0.220 OA
ATOM      3  O   UNL A   1     -19.421 -12.690   4.421  0.00  0.00    -0.113 OA
ATOM      4  O   UNL A   1     -19.043 -12.686   2.202  0.00  0.00    -0.113 OA
ATOM      5  O   UNL A   1     -21.276 -13.286   3.057  0.00  0.00    -0.113 OA
ENDROOT
TORSDOF 0
ENDMDL
ENDMDL
