MODEL 2421
MODEL 1
REMARK VINA RESULT:    -4.687      0.000      0.000
REMARK INTER + INTRA:          -4.687
REMARK INTER:                  -4.687
REMARK INTRA:                   0.000
REMARK UNBOUND:                 0.000
REMARK  Name = No_2421-gen_results/8p0m/2024-11-26-14-13-15/
REMARK  0 active torsions:
REMARK  status: ('A' for Active; 'I' for Inactive)
REMARK                            x       y       z     vdW  Elec       q    Type
REMARK                         _______ _______ _______ _____ _____    ______ ____
ROOT
ATOM      1  C   UNL A   1     -26.167  -3.698  29.853  0.00  0.00    +0.061 A 
ATOM      2  C   UNL A   1     -26.210  -4.713  29.573  0.00  0.00    +0.012 A 
ATOM      3 CL   UNL A   1     -27.572  -2.959  30.465  0.00  0.00    -0.082 Cl
ATOM      4  C   UNL A   1     -25.057  -5.339  28.968  0.00  0.00    +0.004 A 
ATOM      5  C   UNL A   1     -23.964  -4.489  28.732  0.00  0.00    +0.042 A 
ATOM      6  C   UNL A   1     -24.102  -3.184  29.026  0.00  0.00    +0.197 A 
ATOM      7  C   UNL A   1     -25.245  -2.702  29.547  0.00  0.00    +0.053 A 
ATOM      8  O   UNL A   1     -23.088  -2.270  28.801  0.00  0.00    -0.286 OA
ENDROOT
TORSDOF 0
ENDMDL
ENDMDL
