REMARK  Name = No_2421-gen_results/8p0m/2024-11-26-14-13-15/
REMARK  0 active torsions:
REMARK  status: ('A' for Active; 'I' for Inactive)
REMARK                            x       y       z     vdW  Elec       q    Type
REMARK                         _______ _______ _______ _____ _____    ______ ____
ROOT
ATOM      1  C   UNL A   1     -28.016  -0.814  28.878  0.00  0.00    +0.061 A 
ATOM      2  C   UNL A   1     -28.469  -0.785  29.829  0.00  0.00    +0.012 A 
ATOM      3 CL   UNL A   1     -26.360  -1.193  28.773  0.00  0.00    -0.082 Cl
ATOM      4  C   UNL A   1     -29.850  -0.379  29.953  0.00  0.00    +0.004 A 
ATOM      5  C   UNL A   1     -30.469   0.024  28.758  0.00  0.00    +0.042 A 
ATOM      6  C   UNL A   1     -29.724   0.056  27.639  0.00  0.00    +0.197 A 
ATOM      7  C   UNL A   1     -28.428  -0.303  27.651  0.00  0.00    +0.053 A 
ATOM      8  O   UNL A   1     -30.244   0.466  26.424  0.00  0.00    -0.286 OA
ENDROOT
TORSDOF 0
