REMARK  Name = No_2422-gen_results/8p0m/2024-11-26-14-13-15/
REMARK  5 active torsions:
REMARK  status: ('A' for Active; 'I' for Inactive)
REMARK    1  A    between atoms: C_3  and  O_14
REMARK    2  A    between atoms: O_14  and  C_15
REMARK    3  A    between atoms: C_18  and  C_21
REMARK    4  A    between atoms: C_22  and  C_23
REMARK    5  A    between atoms: C_29  and  C_33
REMARK                            x       y       z     vdW  Elec       q    Type
REMARK                         _______ _______ _______ _____ _____    ______ ____
ROOT
ATOM      1  C   UNL A   1     -27.338  -2.759  30.651  0.00  0.00    +0.145 A 
ATOM      2  C   UNL A   1     -27.942  -4.062  30.321  0.00  0.00    +0.037 A 
ATOM      3  C   UNL A   1     -29.240  -4.402  30.860  0.00  0.00    +0.003 A 
ATOM      4  C   UNL A   1     -29.914  -3.409  31.528  0.00  0.00    +0.000 A 
ATOM      5  C   UNL A   1     -29.396  -2.151  31.818  0.00  0.00    +0.003 A 
ATOM      6  C   UNL A   1     -28.131  -1.804  31.293  0.00  0.00    +0.037 A 
ENDROOT
BRANCH   4   7
ATOM      7  C   UNL A   1     -31.218  -3.831  32.146  0.00  0.00    +0.002 A 
ATOM      8  C   UNL A   1     -32.233  -3.878  31.473  0.00  0.00    +0.000 A 
ATOM      9  C   UNL A   1     -31.058  -4.220  33.595  0.00  0.00    +0.019 A 
ATOM     10  C   UNL A   1     -31.866  -4.996  34.075  0.00  0.00    +0.002 A 
ATOM     11  C   UNL A   1     -33.185  -5.059  33.438  0.00  0.00    +0.000 A 
ATOM     12  C   UNL A   1     -33.334  -4.582  32.151  0.00  0.00    +0.000 A 
BRANCH   8  13
ATOM     13  C   UNL A   1     -32.274  -3.444  30.234  0.00  0.00    +0.000 A 
ATOM     14  C   UNL A   1     -31.308  -2.708  29.688  0.00  0.00    +0.000 A 
ATOM     15  C   UNL A   1     -31.603  -2.079  28.250  0.00  0.00    +0.000 A 
ATOM     16  C   UNL A   1     -32.591  -2.624  27.553  0.00  0.00    +0.000 A 
ATOM     17  C   UNL A   1     -33.530  -3.505  28.100  0.00  0.00    +0.000 A 
ATOM     18  C   UNL A   1     -33.394  -3.858  29.386  0.00  0.00    +0.000 A 
ENDBRANCH   8  13
BRANCH   9  19
ATOM     19  C   UNL A   1     -29.643  -4.084  34.220  0.00  0.00    +0.093 C 
ATOM     20  N   UNL A   1     -29.169  -5.100  34.819  0.00  0.00    -0.267 NA
ATOM     21  C   UNL A   1     -28.676  -4.960  36.105  0.00  0.00    +0.152 C 
ENDBRANCH   9  19
ENDBRANCH   4   7
BRANCH   1  22
ATOM     22  O   UNL A   1     -26.285  -2.446  30.031  0.00  0.00    -0.451 OA
BRANCH  22  25
ATOM     23  F   UNL A   1     -28.073  -1.254  28.532  0.00  0.00    -0.201 F 
ATOM     24  C   UNL A   1     -27.061  -0.629  28.872  0.00  0.00    +0.170 A 
ATOM     25  C   UNL A   1     -26.153  -1.156  29.454  0.00  0.00    +0.173 A 
ATOM     26  C   UNL A   1     -24.878  -0.579  29.864  0.00  0.00    +0.051 A 
ATOM     27  C   UNL A   1     -24.743   0.827  29.481  0.00  0.00    +0.057 A 
ATOM     28  C   UNL A   1     -25.788   1.393  28.763  0.00  0.00    -0.009 A 
ATOM     29  C   UNL A   1     -26.915   0.731  28.443  0.00  0.00    +0.006 A 
ATOM     30 CL   UNL A   1     -23.345   1.656  29.917  0.00  0.00    -0.083 Cl
ATOM     31  C   UNL A   1     -27.924   1.414  27.648  0.00  0.00    +0.033 C 
ATOM     32  C   UNL A   1     -27.615   1.974  26.561  0.00  0.00    +0.030 C 
ATOM     33  C   UNL A   1     -26.374   2.188  26.178  0.00  0.00    -0.030 C 
ATOM     34  C   UNL A   1     -25.166   2.561  26.719  0.00  0.00    -0.026 C 
ATOM     35  C   UNL A   1     -24.833   2.454  27.959  0.00  0.00    +0.053 C 
ENDBRANCH  22  25
ENDBRANCH   1  22
TORSDOF 5
