MODEL 2423
MODEL 1
REMARK VINA RESULT:    -6.087      0.000      0.000
REMARK INTER + INTRA:          -8.588
REMARK INTER:                  -7.866
REMARK INTRA:                  -0.722
REMARK UNBOUND:                -0.722
REMARK  Name = No_2423-gen_results/8p0m/2024-11-26-14-13-15/
REMARK  5 active torsions:
REMARK  status: ('A' for Active; 'I' for Inactive)
REMARK    1  A    between atoms: C_1  and  C_2
REMARK    2  A    between atoms: C_1  and  C_8
REMARK    3  A    between atoms: C_5  and  C_10
REMARK    4  A    between atoms: C_8  and  C_9
REMARK    5  A    between atoms: C_9  and  C_17
REMARK                            x       y       z     vdW  Elec       q    Type
REMARK                         _______ _______ _______ _____ _____    ______ ____
ROOT
ATOM      1  C   UNL A   1     -10.595   1.049  36.998  0.00  0.00    -0.022 A 
ATOM      2  C   UNL A   1     -10.271  -0.240  36.722  0.00  0.00    -0.004 A 
ATOM      3  C   UNL A   1     -10.738  -1.410  37.499  0.00  0.00    +0.004 A 
ATOM      4  C   UNL A   1     -11.572  -1.144  38.634  0.00  0.00    +0.071 A 
ATOM      5  C   UNL A   1     -11.827   0.214  38.931  0.00  0.00    +0.004 A 
ATOM      6  C   UNL A   1     -11.360   1.249  38.163  0.00  0.00    -0.004 A 
ENDROOT
BRANCH   4   7
ATOM      7  C   UNL A   1     -12.081  -2.199  39.469  0.00  0.00    +0.419 C 
ATOM      8  F   UNL A   1     -12.562  -3.130  38.913  0.00  0.00    -0.166 F 
ATOM      9  F   UNL A   1     -10.998  -2.668  40.243  0.00  0.00    -0.166 F 
ATOM     10  F   UNL A   1     -12.957  -1.722  40.389  0.00  0.00    -0.166 F 
ENDBRANCH   4   7
BRANCH   1  11
ATOM     11  C   UNL A   1     -10.206   1.996  36.356  0.00  0.00    +0.027 C 
BRANCH  11  12
ATOM     12  C   UNL A   1     -10.899   2.283  34.995  0.00  0.00    +0.011 C 
ATOM     13  C   UNL A   1     -10.172   1.617  33.900  0.00  0.00    +0.001 C 
ATOM     14  C   UNL A   1     -10.708   3.833  34.877  0.00  0.00    +0.001 C 
BRANCH  12  15
ATOM     15  C   UNL A   1     -12.294   2.084  34.817  0.00  0.00    +0.065 C 
ATOM     16  C   UNL A   1     -13.160   2.797  35.491  0.00  0.00    +0.008 C 
BRANCH  15  17
ATOM     17  C   UNL A   1     -12.862   1.269  33.720  0.00  0.00    +0.207 C 
ATOM     18  O   UNL A   1     -13.470   1.807  32.803  0.00  0.00    -0.288 OA
ENDBRANCH  15  17
ENDBRANCH  12  15
ENDBRANCH  11  12
ENDBRANCH   1  11
TORSDOF 5
ENDMDL
ENDMDL
