REMARK  Name = No_2423-gen_results/8p0m/2024-11-26-14-13-15/
REMARK  5 active torsions:
REMARK  status: ('A' for Active; 'I' for Inactive)
REMARK    1  A    between atoms: C_1  and  C_2
REMARK    2  A    between atoms: C_1  and  C_8
REMARK    3  A    between atoms: C_5  and  C_10
REMARK    4  A    between atoms: C_8  and  C_9
REMARK    5  A    between atoms: C_9  and  C_17
REMARK                            x       y       z     vdW  Elec       q    Type
REMARK                         _______ _______ _______ _____ _____    ______ ____
ROOT
ATOM      1  C   UNL A   1     -27.064  -0.119  28.608  0.00  0.00    -0.022 A 
ATOM      2  C   UNL A   1     -26.929   1.171  29.008  0.00  0.00    -0.004 A 
ATOM      3  C   UNL A   1     -25.770   2.034  28.688  0.00  0.00    +0.004 A 
ATOM      4  C   UNL A   1     -24.714   1.443  27.919  0.00  0.00    +0.071 A 
ATOM      5  C   UNL A   1     -24.859   0.078  27.584  0.00  0.00    +0.004 A 
ATOM      6  C   UNL A   1     -25.965  -0.661  27.916  0.00  0.00    -0.004 A 
ENDROOT
BRANCH   4   7
ATOM      7  C   UNL A   1     -23.535   2.181  27.553  0.00  0.00    +0.419 C 
ATOM      8  F   UNL A   1     -22.668   1.568  27.025  0.00  0.00    -0.166 F 
ATOM      9  F   UNL A   1     -23.947   3.201  26.669  0.00  0.00    -0.166 F 
ATOM     10  F   UNL A   1     -23.026   2.856  28.615  0.00  0.00    -0.166 F 
ENDBRANCH   4   7
BRANCH   1  11
ATOM     11  C   UNL A   1     -28.016  -0.814  28.878  0.00  0.00    +0.027 C 
BRANCH  11  12
ATOM     12  C   UNL A   1     -28.041  -1.498  30.273  0.00  0.00    +0.011 C 
ATOM     13  C   UNL A   1     -27.947  -0.486  31.340  0.00  0.00    +0.001 C 
ATOM     14  C   UNL A   1     -26.715  -2.329  30.228  0.00  0.00    +0.001 C 
BRANCH  12  15
ATOM     15  C   UNL A   1     -29.041  -2.446  30.617  0.00  0.00    +0.065 C 
ATOM     16  C   UNL A   1     -30.308  -2.170  30.444  0.00  0.00    +0.008 C 
BRANCH  15  17
ATOM     17  C   UNL A   1     -28.740  -3.856  30.949  0.00  0.00    +0.207 C 
ATOM     18  O   UNL A   1     -29.543  -4.524  31.589  0.00  0.00    -0.288 OA
ENDBRANCH  15  17
ENDBRANCH  12  15
ENDBRANCH  11  12
ENDBRANCH   1  11
TORSDOF 5
