MODEL 2424
MODEL 1
REMARK VINA RESULT:    -6.689      0.000      0.000
REMARK INTER + INTRA:         -11.162
REMARK INTER:                  -9.817
REMARK INTRA:                  -1.345
REMARK UNBOUND:                -1.345
REMARK  Name = No_2424-gen_results/8p0m/2024-11-26-14-13-15/
REMARK  8 active torsions:
REMARK  status: ('A' for Active; 'I' for Inactive)
REMARK    1  A    between atoms: C_3  and  C_8
REMARK    2  A    between atoms: C_6  and  O_7
REMARK    3  A    between atoms: O_7  and  C_15
REMARK    4  A    between atoms: C_15  and  C_16
REMARK    5  A    between atoms: C_16  and  C_18
REMARK    6  A    between atoms: C_18  and  C_19
REMARK    7  A    between atoms: C_19  and  C_20
REMARK    8  A    between atoms: C_21  and  C_22
REMARK                            x       y       z     vdW  Elec       q    Type
REMARK                         _______ _______ _______ _____ _____    ______ ____
ROOT
ATOM      1  C   UNL A   1     -24.822   0.416  25.260  0.00  0.00    +0.037 A 
ATOM      2  C   UNL A   1     -25.804  -0.069  24.749  0.00  0.00    +0.003 A 
ATOM      3  C   UNL A   1     -26.984   0.657  24.629  0.00  0.00    +0.000 A 
ATOM      4  C   UNL A   1     -27.087   1.995  25.153  0.00  0.00    +0.003 A 
ATOM      5  C   UNL A   1     -25.911   2.469  25.749  0.00  0.00    +0.037 A 
ATOM      6  C   UNL A   1     -24.826   1.736  25.851  0.00  0.00    +0.139 A 
ENDROOT
BRANCH   3   7
ATOM      7  C   UNL A   1     -28.268   0.169  24.004  0.00  0.00    +0.001 A 
ATOM      8  C   UNL A   1     -28.715  -1.037  24.057  0.00  0.00    +0.000 A 
ATOM      9  C   UNL A   1     -30.007  -1.391  23.495  0.00  0.00    +0.001 A 
ATOM     10  C   UNL A   1     -30.888  -0.358  23.138  0.00  0.00    +0.007 A 
ATOM     11  C   UNL A   1     -29.235   1.196  23.633  0.00  0.00    +0.007 A 
ATOM     12  C   UNL A   1     -30.484   0.889  23.185  0.00  0.00    +0.035 A 
ATOM     13 BR   UNL A   1     -31.648   2.288  22.596  0.00  0.00    -0.049 Br
ENDBRANCH   3   7
BRANCH   6  14
ATOM     14  O   UNL A   1     -23.738   2.258  26.479  0.00  0.00    -0.473 OA
BRANCH  14  15
ATOM     15  C   UNL A   1     -22.955   1.508  27.272  0.00  0.00    +0.238 C 
BRANCH  15  16
ATOM     16  C   UNL A   1     -23.481   1.479  28.549  0.00  0.00    +0.196 C 
ATOM     17  O   UNL A   1     -23.088   2.074  29.452  0.00  0.00    -0.219 OA
BRANCH  16  18
ATOM     18  C   UNL A   1     -23.593  -0.085  28.988  0.00  0.00    +0.042 C 
BRANCH  18  19
ATOM     19  C   UNL A   1     -24.720  -0.760  28.790  0.00  0.00    +0.029 C 
BRANCH  19  20
ATOM     20  C   UNL A   1     -24.593  -1.981  28.283  0.00  0.00    -0.026 C 
ATOM     21  C   UNL A   1     -24.448  -3.079  29.126  0.00  0.00    -0.005 C 
BRANCH  21  22
ATOM     22  C   UNL A   1     -24.179  -4.379  28.621  0.00  0.00    -0.000 C 
ATOM     23  C   UNL A   1     -24.832  -5.545  29.060  0.00  0.00    -0.000 C 
ENDBRANCH  21  22
ENDBRANCH  19  20
ENDBRANCH  18  19
ENDBRANCH  16  18
ENDBRANCH  15  16
ENDBRANCH  14  15
ENDBRANCH   6  14
TORSDOF 8
ENDMDL
ENDMDL
