REMARK  Name = No_2424-gen_results/8p0m/2024-11-26-14-13-15/
REMARK  8 active torsions:
REMARK  status: ('A' for Active; 'I' for Inactive)
REMARK    1  A    between atoms: C_3  and  C_8
REMARK    2  A    between atoms: C_6  and  O_7
REMARK    3  A    between atoms: O_7  and  C_15
REMARK    4  A    between atoms: C_15  and  C_16
REMARK    5  A    between atoms: C_16  and  C_18
REMARK    6  A    between atoms: C_18  and  C_19
REMARK    7  A    between atoms: C_19  and  C_20
REMARK    8  A    between atoms: C_21  and  C_22
REMARK                            x       y       z     vdW  Elec       q    Type
REMARK                         _______ _______ _______ _____ _____    ______ ____
ROOT
ATOM      1  C   UNL A   1     -28.016  -0.814  28.878  0.00  0.00    +0.037 A 
ATOM      2  C   UNL A   1     -27.064  -0.119  28.608  0.00  0.00    +0.003 A 
ATOM      3  C   UNL A   1     -25.792  -0.430  29.076  0.00  0.00    +0.000 A 
ATOM      4  C   UNL A   1     -25.576  -1.565  29.936  0.00  0.00    +0.003 A 
ATOM      5  C   UNL A   1     -26.735  -2.300  30.217  0.00  0.00    +0.037 A 
ATOM      6  C   UNL A   1     -27.918  -1.954  29.763  0.00  0.00    +0.139 A 
ENDROOT
BRANCH   3   7
ATOM      7  C   UNL A   1     -24.529   0.349  28.800  0.00  0.00    +0.001 A 
ATOM      8  C   UNL A   1     -23.344   0.006  29.166  0.00  0.00    +0.000 A 
ATOM      9  C   UNL A   1     -22.178   0.781  28.778  0.00  0.00    +0.001 A 
ATOM     10  C   UNL A   1     -22.322   1.750  27.773  0.00  0.00    +0.007 A 
ATOM     11  C   UNL A   1     -24.610   1.356  27.748  0.00  0.00    +0.007 A 
ATOM     12  C   UNL A   1     -23.515   2.034  27.307  0.00  0.00    +0.035 A 
ATOM     13 BR   UNL A   1     -23.724   3.430  26.016  0.00  0.00    -0.049 Br
ENDBRANCH   3   7
BRANCH   6  14
ATOM     14  O   UNL A   1     -29.000  -2.701  30.115  0.00  0.00    -0.473 OA
BRANCH  14  15
ATOM     15  C   UNL A   1     -30.122  -2.135  30.588  0.00  0.00    +0.238 C 
BRANCH  15  16
ATOM     16  C   UNL A   1     -30.576  -2.848  31.681  0.00  0.00    +0.196 C 
ATOM     17  O   UNL A   1     -30.016  -3.707  32.203  0.00  0.00    -0.219 OA
BRANCH  16  18
ATOM     18  C   UNL A   1     -32.078  -3.368  31.327  0.00  0.00    +0.042 C 
BRANCH  18  19
ATOM     19  C   UNL A   1     -32.978  -2.530  30.824  0.00  0.00    +0.029 C 
BRANCH  19  20
ATOM     20  C   UNL A   1     -32.921  -1.276  31.259  0.00  0.00    -0.026 C 
ATOM     21  C   UNL A   1     -33.501  -0.250  30.520  0.00  0.00    -0.005 C 
BRANCH  21  22
ATOM     22  C   UNL A   1     -33.348   1.114  30.885  0.00  0.00    -0.000 C 
ATOM     23  C   UNL A   1     -33.826   2.193  30.120  0.00  0.00    -0.000 C 
ENDBRANCH  21  22
ENDBRANCH  19  20
ENDBRANCH  18  19
ENDBRANCH  16  18
ENDBRANCH  15  16
ENDBRANCH  14  15
ENDBRANCH   6  14
TORSDOF 8
