MODEL 2425
MODEL 1
REMARK VINA RESULT:    -6.302      0.000      0.000
REMARK INTER + INTRA:         -14.708
REMARK INTER:                  -9.249
REMARK INTRA:                  -5.460
REMARK UNBOUND:                -5.460
REMARK  Name = No_2425-gen_results/8p0m/2024-11-26-14-13-15/
REMARK  8 active torsions:
REMARK  status: ('A' for Active; 'I' for Inactive)
REMARK    1  A    between atoms: C_2  and  C_7
REMARK    2  A    between atoms: C_3  and  C_18
REMARK    3  A    between atoms: N_9  and  C_11
REMARK    4  A    between atoms: C_11  and  C_12
REMARK    5  A    between atoms: C_18  and  C_19
REMARK    6  A    between atoms: C_20  and  C_21
REMARK    7  A    between atoms: C_22  and  C_23
REMARK    8  A    between atoms: C_23  and  C_24
REMARK                            x       y       z     vdW  Elec       q    Type
REMARK                         _______ _______ _______ _____ _____    ______ ____
ROOT
ATOM      1  C   UNL A   1     -22.615  -0.714  29.145  0.00  0.00    +0.049 C 
ENDROOT
BRANCH   1   2
ATOM      2  C   UNL A   1     -23.763  -1.273  29.860  0.00  0.00    -0.026 C 
ATOM      3  C   UNL A   1     -24.289  -0.562  30.879  0.00  0.00    -0.024 C 
ATOM      4  C   UNL A   1     -24.374  -2.385  29.487  0.00  0.00    +0.114 C 
ATOM      5  N   UNL A   1     -23.912  -3.387  28.950  0.00  0.00    -0.128 NA
ATOM      6  C   UNL A   1     -25.824  -2.293  29.231  0.00  0.00    +0.049 C 
ATOM      7  C   UNL A   1     -26.646  -2.366  30.376  0.00  0.00    -0.029 C 
ATOM      8  C   UNL A   1     -26.565  -1.391  31.450  0.00  0.00    -0.026 C 
ATOM      9  C   UNL A   1     -25.491  -1.061  31.635  0.00  0.00    +0.051 C 
BRANCH   3  10
ATOM     10  C   UNL A   1     -23.800   0.677  31.248  0.00  0.00    -0.009 C 
ATOM     11  C   UNL A   1     -23.926   1.724  31.049  0.00  0.00    -0.022 C 
BRANCH  11  12
ATOM     12  C   UNL A   1     -25.086   2.236  30.431  0.00  0.00    +0.052 C 
BRANCH  12  13
ATOM     13  C   UNL A   1     -25.941   2.901  30.984  0.00  0.00    -0.018 A 
ATOM     14  C   UNL A   1     -27.003   2.382  31.747  0.00  0.00    -0.004 A 
ATOM     15  C   UNL A   1     -28.209   2.971  31.948  0.00  0.00    -0.000 A 
ATOM     16  C   UNL A   1     -28.304   4.272  31.410  0.00  0.00    -0.000 A 
ATOM     17  C   UNL A   1     -27.384   4.817  30.663  0.00  0.00    -0.000 A 
ATOM     18  C   UNL A   1     -26.314   4.188  30.397  0.00  0.00    -0.004 A 
ENDBRANCH  12  13
ENDBRANCH  11  12
ENDBRANCH   3  10
ENDBRANCH   1   2
BRANCH   1  21
ATOM     19  C   UNL A   1     -24.146   0.034  27.116  0.00  0.00    +0.001 A 
ATOM     20  C   UNL A   1     -24.203   0.719  26.317  0.00  0.00    +0.053 A 
ATOM     21  C   UNL A   1     -22.964   0.211  28.042  0.00  0.00    -0.018 A 
ATOM     22  C   UNL A   1     -22.118   1.329  27.876  0.00  0.00    -0.004 A 
ATOM     23  C   UNL A   1     -23.492   1.963  25.945  0.00  0.00    +0.004 A 
ATOM     24  C   UNL A   1     -22.401   2.163  26.778  0.00  0.00    -0.000 A 
BRANCH  20  25
ATOM     25  C   UNL A   1     -25.456   0.562  25.325  0.00  0.00    +0.249 C 
ATOM     26  O   UNL A   1     -25.506  -0.061  24.436  0.00  0.00    -0.270 OA
ATOM     27  N   UNL A   1     -26.474   1.455  25.674  0.00  0.00    -0.270 N 
ATOM     28  C   UNL A   1     -27.602   1.566  24.817  0.00  0.00    +0.116 C 
BRANCH  27  29
ATOM     29  C   UNL A   1     -26.477   2.287  26.869  0.00  0.00    +0.120 C 
BRANCH  29  30
ATOM     30  C   UNL A   1     -27.627   2.010  27.700  0.00  0.00    -0.002 A 
ATOM     31  C   UNL A   1     -27.565   0.865  28.241  0.00  0.00    -0.003 A 
ATOM     32  C   UNL A   1     -28.751   0.298  28.997  0.00  0.00    -0.000 A 
ATOM     33  C   UNL A   1     -29.793   1.236  29.203  0.00  0.00    -0.000 A 
ATOM     34  C   UNL A   1     -29.738   2.470  28.599  0.00  0.00    -0.000 A 
ATOM     35  C   UNL A   1     -28.713   2.831  27.782  0.00  0.00    -0.003 A 
ENDBRANCH  29  30
ENDBRANCH  27  29
ENDBRANCH  20  25
ENDBRANCH   1  21
TORSDOF 8
ENDMDL
ENDMDL
