REMARK  Name = No_2426-gen_results/8p0m/2024-11-26-14-13-15/
REMARK  4 active torsions:
REMARK  status: ('A' for Active; 'I' for Inactive)
REMARK    1  A    between atoms: C_3  and  C_8
REMARK    2  A    between atoms: C_6  and  C_15
REMARK    3  A    between atoms: C_14  and  C_18
REMARK    4  A    between atoms: C_18  and  C_19
REMARK                            x       y       z     vdW  Elec       q    Type
REMARK                         _______ _______ _______ _____ _____    ______ ____
ROOT
ATOM      1  O   UNL A   1     -28.123  -1.335  28.487  0.00  0.00    -0.274 OA
ATOM      2  C   UNL A   1     -27.064  -0.824  28.869  0.00  0.00    +0.235 C 
ATOM      3  C   UNL A   1     -26.402  -0.062  28.622  0.00  0.00    +0.100 C 
ATOM      4  N   UNL A   1     -26.265  -1.867  29.761  0.00  0.00    -0.229 N 
ATOM      5  C   UNL A   1     -25.044   0.392  29.066  0.00  0.00    +0.026 C 
ATOM      6  C   UNL A   1     -24.473  -0.544  29.987  0.00  0.00    +0.124 C 
ATOM      7  C   UNL A   1     -25.133  -1.670  30.289  0.00  0.00    +0.112 C 
ATOM      8  C   UNL A   1     -27.072  -3.095  30.132  0.00  0.00    +0.236 C 
ATOM      9  O   UNL A   1     -26.157  -3.983  30.431  0.00  0.00    -0.274 OA
ENDROOT
BRANCH   3  10
ATOM     10  C   UNL A   1     -26.905   1.110  27.652  0.00  0.00    -0.014 A 
ATOM     11  C   UNL A   1     -26.134   1.718  26.812  0.00  0.00    -0.004 A 
ATOM     12  C   UNL A   1     -26.555   2.486  25.878  0.00  0.00    -0.000 A 
ATOM     13  C   UNL A   1     -27.977   2.666  25.643  0.00  0.00    -0.000 A 
ATOM     14  C   UNL A   1     -28.807   1.972  26.509  0.00  0.00    -0.000 A 
ATOM     15  C   UNL A   1     -28.311   1.122  27.433  0.00  0.00    -0.004 A 
ENDBRANCH   3  10
BRANCH   6  16
ATOM     16  C   UNL A   1     -23.081  -0.227  30.446  0.00  0.00    +0.366 C 
ATOM     17  O   UNL A   1     -22.447   0.770  30.048  0.00  0.00    -0.246 OA
ATOM     18  O   UNL A   1     -22.562  -0.952  31.482  0.00  0.00    -0.246 OA
ENDBRANCH   6  16
BRANCH   8  19
ATOM     19  C   UNL A   1     -28.258  -3.001  30.867  0.00  0.00    +0.112 C 
BRANCH  19  20
ATOM     20  C   UNL A   1     -28.995  -4.192  31.011  0.00  0.00    -0.013 A 
ATOM     21  C   UNL A   1     -30.248  -4.115  31.607  0.00  0.00    -0.003 A 
ATOM     22  C   UNL A   1     -31.129  -5.185  31.494  0.00  0.00    +0.011 A 
ATOM     23  C   UNL A   1     -30.764  -6.294  30.753  0.00  0.00    +0.058 A 
ATOM     24  C   UNL A   1     -29.551  -6.279  30.063  0.00  0.00    +0.011 A 
ATOM     25  C   UNL A   1     -28.676  -5.231  30.186  0.00  0.00    -0.003 A 
ATOM     26 CL   UNL A   1     -31.734  -7.693  30.582  0.00  0.00    -0.082 Cl
ENDBRANCH  19  20
ENDBRANCH   8  19
TORSDOF 4
