MODEL 2426
MODEL 1
REMARK VINA RESULT:    -7.603      0.000      0.000
REMARK INTER + INTRA:         -10.192
REMARK INTER:                  -9.381
REMARK INTRA:                  -0.811
REMARK UNBOUND:                -0.811
REMARK  Name = No_2426-gen_results/8p0m/2024-11-26-14-13-15/
REMARK  4 active torsions:
REMARK  status: ('A' for Active; 'I' for Inactive)
REMARK    1  A    between atoms: C_3  and  C_8
REMARK    2  A    between atoms: C_6  and  C_15
REMARK    3  A    between atoms: C_14  and  C_18
REMARK    4  A    between atoms: C_18  and  C_19
REMARK                            x       y       z     vdW  Elec       q    Type
REMARK                         _______ _______ _______ _____ _____    ______ ____
ROOT
ATOM      1  O   UNL A   1     -25.438   1.171  29.870  0.00  0.00    -0.274 OA
ATOM      2  C   UNL A   1     -25.050   0.032  29.588  0.00  0.00    +0.235 C 
ATOM      3  C   UNL A   1     -24.606  -0.499  28.813  0.00  0.00    +0.100 C 
ATOM      4  N   UNL A   1     -25.794  -1.024  30.512  0.00  0.00    -0.229 N 
ATOM      5  C   UNL A   1     -24.306  -1.935  28.503  0.00  0.00    +0.026 C 
ATOM      6  C   UNL A   1     -24.895  -2.798  29.483  0.00  0.00    +0.124 C 
ATOM      7  C   UNL A   1     -25.644  -2.279  30.465  0.00  0.00    +0.112 C 
ATOM      8  C   UNL A   1     -26.576  -0.395  31.648  0.00  0.00    +0.236 C 
ATOM      9  O   UNL A   1     -27.441  -1.323  31.974  0.00  0.00    -0.274 OA
ENDROOT
BRANCH   3  10
ATOM     10  C   UNL A   1     -23.839   0.314  27.664  0.00  0.00    -0.014 A 
ATOM     11  C   UNL A   1     -24.410   0.719  26.578  0.00  0.00    -0.004 A 
ATOM     12  C   UNL A   1     -23.888   1.556  25.763  0.00  0.00    -0.000 A 
ATOM     13  C   UNL A   1     -22.613   2.188  26.055  0.00  0.00    -0.000 A 
ATOM     14  C   UNL A   1     -22.024   1.796  27.246  0.00  0.00    -0.000 A 
ATOM     15  C   UNL A   1     -22.650   0.961  28.103  0.00  0.00    -0.004 A 
ENDBRANCH   3  10
BRANCH   6  16
ATOM     16  C   UNL A   1     -24.719  -4.266  29.235  0.00  0.00    +0.366 C 
ATOM     17  O   UNL A   1     -25.603  -5.107  29.491  0.00  0.00    -0.246 OA
ATOM     18  O   UNL A   1     -23.625  -4.675  28.525  0.00  0.00    -0.246 OA
ENDBRANCH   6  16
BRANCH   8  19
ATOM     19  C   UNL A   1     -25.952   0.389  32.624  0.00  0.00    +0.112 C 
BRANCH  19  20
ATOM     20  C   UNL A   1     -25.898  -0.160  33.919  0.00  0.00    -0.013 A 
ATOM     21  C   UNL A   1     -24.736  -0.820  34.300  0.00  0.00    -0.003 A 
ATOM     22  C   UNL A   1     -24.514  -1.102  35.643  0.00  0.00    +0.011 A 
ATOM     23  C   UNL A   1     -25.433  -0.682  36.589  0.00  0.00    +0.058 A 
ATOM     24  C   UNL A   1     -26.521   0.090  36.181  0.00  0.00    +0.011 A 
ATOM     25  C   UNL A   1     -26.747   0.355  34.855  0.00  0.00    -0.003 A 
ATOM     26 CL   UNL A   1     -25.302  -1.012  38.262  0.00  0.00    -0.082 Cl
ENDBRANCH  19  20
ENDBRANCH   8  19
TORSDOF 4
ENDMDL
ENDMDL
