MODEL 2427
MODEL 1
REMARK VINA RESULT:    -4.899      0.000      0.000
REMARK INTER + INTRA:          -5.185
REMARK INTER:                  -5.185
REMARK INTRA:                   0.000
REMARK UNBOUND:                 0.000
REMARK  Name = No_2427-gen_results/8p0m/2024-11-26-14-13-15/
REMARK  1 active torsions:
REMARK  status: ('A' for Active; 'I' for Inactive)
REMARK    1  A    between atoms: C_2  and  C_5
REMARK                            x       y       z     vdW  Elec       q    Type
REMARK                         _______ _______ _______ _____ _____    ______ ____
ROOT
ATOM      1  F   UNL A   1      -8.467  -9.153  17.577  0.00  0.00    -0.164 F 
ATOM      2  C   UNL A   1      -8.846  -9.821  18.426  0.00  0.00    +0.470 C 
ATOM      3  F   UNL A   1      -8.625 -10.901  18.055  0.00  0.00    -0.164 F 
ATOM      4  F   UNL A   1     -10.194  -9.642  18.571  0.00  0.00    -0.164 F 
ENDROOT
BRANCH   2   5
ATOM      5  C   UNL A   1      -8.251  -9.536  19.773  0.00  0.00    +0.415 C 
ATOM      6  F   UNL A   1      -9.133  -9.294  20.568  0.00  0.00    -0.177 F 
ATOM      7  F   UNL A   1      -7.657 -10.555  20.221  0.00  0.00    -0.177 F 
ATOM      8 CL   UNL A   1      -7.236  -8.127  19.615  0.00  0.00    -0.039 Cl
ENDBRANCH   2   5
TORSDOF 1
ENDMDL
ENDMDL
