MODEL 2428
MODEL 1
REMARK VINA RESULT:    -4.341      0.000      0.000
REMARK INTER + INTRA:          -4.341
REMARK INTER:                  -4.341
REMARK INTRA:                   0.000
REMARK UNBOUND:                 0.000
REMARK  Name = No_2428-gen_results/8p0m/2024-11-26-14-13-15/
REMARK  0 active torsions:
REMARK  status: ('A' for Active; 'I' for Inactive)
REMARK                            x       y       z     vdW  Elec       q    Type
REMARK                         _______ _______ _______ _____ _____    ______ ____
ROOT
ATOM      1  C   UNL A   1     -24.964  -5.399  29.013  0.00  0.00    +0.000 A 
ATOM      2  C   UNL A   1     -24.225  -4.740  28.652  0.00  0.00    +0.000 A 
ATOM      3  C   UNL A   1     -26.132  -4.714  29.581  0.00  0.00    +0.000 A 
ATOM      4  C   UNL A   1     -26.161  -3.396  29.784  0.00  0.00    +0.000 A 
ATOM      5  C   UNL A   1     -24.029  -3.315  28.771  0.00  0.00    +0.000 A 
ATOM      6  C   UNL A   1     -25.114  -2.700  29.324  0.00  0.00    +0.000 A 
ENDROOT
TORSDOF 0
ENDMDL
ENDMDL
