MODEL 2429
MODEL 1
REMARK VINA RESULT:    -7.317      0.000      0.000
REMARK INTER + INTRA:         -11.979
REMARK INTER:                 -10.739
REMARK INTRA:                  -1.240
REMARK UNBOUND:                -1.240
REMARK  Name = No_2429-gen_results/8p0m/2024-11-26-14-13-15/
REMARK  8 active torsions:
REMARK  status: ('A' for Active; 'I' for Inactive)
REMARK    1  A    between atoms: C_2  and  O_7
REMARK    2  A    between atoms: C_4  and  C_17
REMARK    3  A    between atoms: C_5  and  O_15
REMARK    4  A    between atoms: O_7  and  C_8
REMARK    5  A    between atoms: N_19  and  C_20
REMARK    6  A    between atoms: C_25  and  C_26
REMARK    7  A    between atoms: C_26  and  N_27
REMARK    8  A    between atoms: N_27  and  C_28
REMARK                            x       y       z     vdW  Elec       q    Type
REMARK                         _______ _______ _______ _____ _____    ______ ____
ROOT
ATOM      1  C   UNL A   1     -26.495 -16.325  24.267  0.00  0.00    +0.269 C 
ATOM      2  O   UNL A   1     -25.662 -15.757  24.717  0.00  0.00    -0.268 OA
ATOM      3  N   UNL A   1     -26.388 -17.688  24.050  0.00  0.00    -0.175 NA
ENDROOT
BRANCH   1   7
ATOM      4  C   UNL A   1     -30.222 -14.638  23.292  0.00  0.00    +0.074 A 
ATOM      5  C   UNL A   1     -29.923 -14.860  24.443  0.00  0.00    +0.148 A 
ATOM      6  C   UNL A   1     -28.734 -15.389  24.828  0.00  0.00    +0.042 A 
ATOM      7  C   UNL A   1     -27.787 -15.701  23.834  0.00  0.00    +0.061 A 
ATOM      8  C   UNL A   1     -29.268 -14.842  22.233  0.00  0.00    +0.142 A 
ATOM      9  C   UNL A   1     -28.069 -15.399  22.564  0.00  0.00    +0.042 A 
BRANCH   8  10
ATOM     10  O   UNL A   1     -29.654 -14.368  21.032  0.00  0.00    -0.471 OA
ATOM     11  C   UNL A   1     -28.996 -13.424  20.410  0.00  0.00    +0.253 C 
ENDBRANCH   8  10
BRANCH   5  12
ATOM     12  O   UNL A   1     -30.797 -14.564  25.494  0.00  0.00    -0.453 OA
BRANCH  12  13
ATOM     13  C   UNL A   1     -30.424 -13.608  26.508  0.00  0.00    +0.145 A 
ATOM     14  C   UNL A   1     -30.225 -14.016  27.807  0.00  0.00    +0.040 A 
ATOM     15  C   UNL A   1     -30.060 -12.310  26.074  0.00  0.00    +0.040 A 
ATOM     16  C   UNL A   1     -29.672 -11.388  27.067  0.00  0.00    +0.033 A 
ATOM     17  C   UNL A   1     -29.488 -11.771  28.375  0.00  0.00    +0.140 A 
ATOM     18  C   UNL A   1     -29.719 -13.138  28.720  0.00  0.00    +0.033 A 
ATOM     19  F   UNL A   1     -28.993 -10.980  29.224  0.00  0.00    -0.204 F 
ENDBRANCH  12  13
ENDBRANCH   5  12
ENDBRANCH   1   7
BRANCH   3  20
ATOM     20  C   UNL A   1     -25.190 -18.402  24.427  0.00  0.00    +0.074 A 
ATOM     21  C   UNL A   1     -24.215 -18.487  23.751  0.00  0.00    +0.016 A 
ATOM     22  C   UNL A   1     -23.087 -18.521  24.160  0.00  0.00    -0.001 A 
ATOM     23  C   UNL A   1     -25.369 -19.045  25.683  0.00  0.00    +0.016 A 
ATOM     24  C   UNL A   1     -24.075 -19.423  26.234  0.00  0.00    -0.001 A 
ATOM     25  C   UNL A   1     -22.915 -19.276  25.434  0.00  0.00    -0.001 A 
BRANCH  25  26
ATOM     26  C   UNL A   1     -21.605 -19.690  25.971  0.00  0.00    +0.140 C 
BRANCH  26  27
ATOM     27  N   UNL A   1     -21.238 -19.154  27.005  0.00  0.00    -0.215 NA
BRANCH  27  28
ATOM     28  C   UNL A   1     -20.528 -19.240  27.864  0.00  0.00    +0.148 A 
ATOM     29  C   UNL A   1     -19.632 -19.167  28.406  0.00  0.00    +0.036 A 
ATOM     30  C   UNL A   1     -19.237 -19.512  29.781  0.00  0.00    +0.004 A 
ATOM     31  C   UNL A   1     -20.216 -20.194  30.513  0.00  0.00    +0.021 A 
ATOM     32  C   UNL A   1     -21.372 -20.544  29.950  0.00  0.00    +0.100 A 
ATOM     33  N   UNL A   1     -21.479 -20.088  28.837  0.00  0.00    -0.228 NA
ENDBRANCH  27  28
ENDBRANCH  26  27
ENDBRANCH  25  26
ENDBRANCH   3  20
TORSDOF 8
ENDMDL
ENDMDL
