REMARK  Name = No_2429-gen_results/8p0m/2024-11-26-14-13-15/
REMARK  8 active torsions:
REMARK  status: ('A' for Active; 'I' for Inactive)
REMARK    1  A    between atoms: C_2  and  O_7
REMARK    2  A    between atoms: C_4  and  C_17
REMARK    3  A    between atoms: C_5  and  O_15
REMARK    4  A    between atoms: O_7  and  C_8
REMARK    5  A    between atoms: N_19  and  C_20
REMARK    6  A    between atoms: C_25  and  C_26
REMARK    7  A    between atoms: C_26  and  N_27
REMARK    8  A    between atoms: N_27  and  C_28
REMARK                            x       y       z     vdW  Elec       q    Type
REMARK                         _______ _______ _______ _____ _____    ______ ____
ROOT
ATOM      1  C   UNL A   1     -27.817   3.179  30.183  0.00  0.00    +0.269 C 
ATOM      2  O   UNL A   1     -27.130   3.888  29.688  0.00  0.00    -0.268 OA
ATOM      3  N   UNL A   1     -28.604   3.582  31.248  0.00  0.00    -0.175 NA
ENDROOT
BRANCH   1   7
ATOM      4  C   UNL A   1     -28.016  -0.814  28.878  0.00  0.00    +0.074 A 
ATOM      5  C   UNL A   1     -27.064  -0.119  28.608  0.00  0.00    +0.148 A 
ATOM      6  C   UNL A   1     -26.929   1.171  29.008  0.00  0.00    +0.042 A 
ATOM      7  C   UNL A   1     -27.956   1.741  29.784  0.00  0.00    +0.061 A 
ATOM      8  C   UNL A   1     -29.057  -0.327  29.747  0.00  0.00    +0.142 A 
ATOM      9  C   UNL A   1     -28.983   0.972  30.152  0.00  0.00    +0.042 A 
BRANCH   8  10
ATOM     10  O   UNL A   1     -29.950  -1.261  30.129  0.00  0.00    -0.471 OA
ATOM     11  C   UNL A   1     -29.627  -2.253  30.918  0.00  0.00    +0.253 C 
ENDBRANCH   8  10
BRANCH   5  12
ATOM     12  O   UNL A   1     -25.991  -0.612  27.857  0.00  0.00    -0.453 OA
BRANCH  12  13
ATOM     13  C   UNL A   1     -24.632  -0.333  28.253  0.00  0.00    +0.145 A 
ATOM     14  C   UNL A   1     -23.921  -1.252  28.990  0.00  0.00    +0.040 A 
ATOM     15  C   UNL A   1     -24.006   0.797  27.672  0.00  0.00    +0.040 A 
ATOM     16  C   UNL A   1     -22.670   1.050  28.043  0.00  0.00    +0.033 A 
ATOM     17  C   UNL A   1     -21.948   0.154  28.797  0.00  0.00    +0.140 A 
ATOM     18  C   UNL A   1     -22.592  -1.049  29.220  0.00  0.00    +0.033 A 
ATOM     19  F   UNL A   1     -20.712   0.312  28.994  0.00  0.00    -0.204 F 
ENDBRANCH  12  13
ENDBRANCH   5  12
ENDBRANCH   1   7
BRANCH   3  20
ATOM     20  C   UNL A   1     -28.558   4.946  31.724  0.00  0.00    +0.074 A 
ATOM     21  C   UNL A   1     -27.760   5.755  31.374  0.00  0.00    +0.016 A 
ATOM     22  C   UNL A   1     -27.973   6.930  31.245  0.00  0.00    -0.001 A 
ATOM     23  C   UNL A   1     -29.553   5.159  32.718  0.00  0.00    +0.016 A 
ATOM     24  C   UNL A   1     -29.764   6.587  32.908  0.00  0.00    -0.001 A 
ATOM     25  C   UNL A   1     -28.899   7.504  32.263  0.00  0.00    -0.001 A 
BRANCH  25  26
ATOM     26  C   UNL A   1     -29.084   8.952  32.478  0.00  0.00    +0.140 C 
BRANCH  26  27
ATOM     27  N   UNL A   1     -28.873   9.374  33.604  0.00  0.00    -0.215 NA
BRANCH  27  28
ATOM     28  C   UNL A   1     -28.425   9.117  34.596  0.00  0.00    +0.148 A 
ATOM     29  C   UNL A   1     -28.033   9.255  35.560  0.00  0.00    +0.036 A 
ATOM     30  C   UNL A   1     -27.500   8.346  36.587  0.00  0.00    +0.004 A 
ATOM     31  C   UNL A   1     -27.367   7.016  36.174  0.00  0.00    +0.021 A 
ATOM     32  C   UNL A   1     -27.646   6.657  34.921  0.00  0.00    +0.100 A 
ATOM     33  N   UNL A   1     -28.127   7.571  34.295  0.00  0.00    -0.228 NA
ENDBRANCH  27  28
ENDBRANCH  26  27
ENDBRANCH  25  26
ENDBRANCH   3  20
TORSDOF 8
