MODEL 242
MODEL 1
REMARK VINA RESULT:    -5.620      0.000      0.000
REMARK INTER + INTRA:          -6.433
REMARK INTER:                  -6.277
REMARK INTRA:                  -0.156
REMARK UNBOUND:                -0.156
REMARK  Name = No_242-gen_results/8p0m/2024-11-26-14-13-15/
REMARK  2 active torsions:
REMARK  status: ('A' for Active; 'I' for Inactive)
REMARK    1  A    between atoms: C_3  and  C_9
REMARK    2  A    between atoms: C_9  and  C_10
REMARK                            x       y       z     vdW  Elec       q    Type
REMARK                         _______ _______ _______ _____ _____    ______ ____
ROOT
ATOM      1  C   UNL A   1     -24.216  -4.044  29.046  0.00  0.00    +0.026 A 
ATOM      2  C   UNL A   1     -25.065  -4.669  29.046  0.00  0.00    +0.140 A 
ATOM      3  C   UNL A   1     -24.431  -2.658  29.610  0.00  0.00    -0.009 A 
ATOM      4  C   UNL A   1     -25.666  -2.340  30.214  0.00  0.00    +0.031 A 
ATOM      5  C   UNL A   1     -26.423  -4.600  29.630  0.00  0.00    +0.030 A 
ATOM      6  C   UNL A   1     -26.655  -3.340  30.163  0.00  0.00    +0.009 A 
ATOM      7 BR   UNL A   1     -25.995  -0.680  30.898  0.00  0.00    -0.049 Br
ATOM      8  F   UNL A   1     -24.841  -6.027  28.504  0.00  0.00    -0.204 F 
ENDROOT
BRANCH   3   9
ATOM      9  C   UNL A   1     -23.403  -1.565  29.646  0.00  0.00    +0.052 C 
BRANCH   9  10
ATOM     10  C   UNL A   1     -23.425  -0.654  28.525  0.00  0.00    -0.026 C 
ATOM     11  C   UNL A   1     -22.857   0.458  28.637  0.00  0.00    -0.030 C 
ATOM     12  C   UNL A   1     -22.682   1.326  27.438  0.00  0.00    +0.030 C 
ENDBRANCH   9  10
ENDBRANCH   3   9
TORSDOF 2
ENDMDL
ENDMDL
