REMARK  Name = No_243-gen_results/8p0m/2024-11-26-14-13-15/
REMARK  3 active torsions:
REMARK  status: ('A' for Active; 'I' for Inactive)
REMARK    1  A    between atoms: C_2  and  N_7
REMARK    2  A    between atoms: C_4  and  C_15
REMARK    3  A    between atoms: N_7  and  C_8
REMARK                            x       y       z     vdW  Elec       q    Type
REMARK                         _______ _______ _______ _____ _____    ______ ____
ROOT
ATOM      1  C   UNL A   1     -28.016  -0.814  28.878  0.00  0.00    +0.017 A 
ATOM      2  C   UNL A   1     -27.064  -0.119  28.608  0.00  0.00    +0.070 A 
ATOM      3  C   UNL A   1     -26.929   1.171  29.008  0.00  0.00    +0.020 A 
ATOM      4  C   UNL A   1     -27.956   1.741  29.784  0.00  0.00    +0.073 A 
ATOM      5  C   UNL A   1     -29.057  -0.327  29.747  0.00  0.00    +0.001 A 
ATOM      6  C   UNL A   1     -28.983   0.972  30.152  0.00  0.00    +0.004 A 
ENDROOT
BRANCH   4   7
ATOM      7  C   UNL A   1     -27.827   3.190  30.206  0.00  0.00    +0.419 C 
ATOM      8  F   UNL A   1     -28.429   3.629  31.121  0.00  0.00    -0.166 F 
ATOM      9  F   UNL A   1     -28.108   3.988  29.077  0.00  0.00    -0.166 F 
ATOM     10  F   UNL A   1     -26.480   3.448  30.418  0.00  0.00    -0.166 F 
ENDBRANCH   4   7
BRANCH   2  11
ATOM     11  N   UNL A   1     -26.066  -0.786  27.886  0.00  0.00    -0.212 NA
BRANCH  11  12
ATOM     12  C   UNL A   1     -24.630  -0.561  28.201  0.00  0.00    +0.073 A 
ATOM     13  C   UNL A   1     -24.000  -1.479  29.100  0.00  0.00    +0.017 A 
ATOM     14  C   UNL A   1     -23.989   0.509  27.581  0.00  0.00    +0.046 A 
ATOM     15  C   UNL A   1     -22.642   0.752  28.027  0.00  0.00    +0.141 A 
ATOM     16  C   UNL A   1     -21.958  -0.103  28.887  0.00  0.00    +0.030 A 
ATOM     17  C   UNL A   1     -22.683  -1.232  29.420  0.00  0.00    +0.004 A 
ATOM     18  F   UNL A   1     -21.926   1.783  27.560  0.00  0.00    -0.204 F 
ENDBRANCH  11  12
ENDBRANCH   2  11
TORSDOF 3
