MODEL 2430
MODEL 1
REMARK VINA RESULT:    -4.388      0.000      0.000
REMARK INTER + INTRA:          -4.388
REMARK INTER:                  -4.388
REMARK INTRA:                   0.000
REMARK UNBOUND:                 0.000
REMARK  Name = No_2430-gen_results/8p0m/2024-11-26-14-13-15/
REMARK  0 active torsions:
REMARK  status: ('A' for Active; 'I' for Inactive)
REMARK                            x       y       z     vdW  Elec       q    Type
REMARK                         _______ _______ _______ _____ _____    ______ ____
ROOT
ATOM      1  C   UNL A   1     -24.918  -2.698  29.246  0.00  0.00    +0.000 A 
ATOM      2  C   UNL A   1     -24.043  -3.387  28.775  0.00  0.00    +0.000 A 
ATOM      3  C   UNL A   1     -24.150  -4.768  28.616  0.00  0.00    +0.000 A 
ATOM      4  C   UNL A   1     -24.944  -5.369  28.979  0.00  0.00    +0.000 A 
ATOM      5  C   UNL A   1     -26.125  -4.753  29.619  0.00  0.00    +0.000 A 
ATOM      6  C   UNL A   1     -26.079  -3.442  29.761  0.00  0.00    +0.000 A 
ENDROOT
TORSDOF 0
ENDMDL
ENDMDL
