REMARK  Name = No_2431-gen_results/8p0m/2024-11-26-14-13-15/
REMARK  6 active torsions:
REMARK  status: ('A' for Active; 'I' for Inactive)
REMARK    1  A    between atoms: C_2  and  C_3
REMARK    2  A    between atoms: C_5  and  C_15
REMARK    3  A    between atoms: C_9  and  C_30
REMARK    4  A    between atoms: C_11  and  C_24
REMARK    5  A    between atoms: C_15  and  N_16
REMARK    6  A    between atoms: C_30  and  C_32
REMARK                            x       y       z     vdW  Elec       q    Type
REMARK                         _______ _______ _______ _____ _____    ______ ____
ROOT
ATOM      1  C   UNL A   1     -26.380  -0.087  27.939  0.00  0.00    +0.047 A 
ATOM      2  C   UNL A   1     -26.409   0.857  26.880  0.00  0.00    -0.002 A 
ATOM      3  C   UNL A   1     -25.247   1.120  26.110  0.00  0.00    -0.003 A 
ATOM      4  C   UNL A   1     -23.999   0.750  26.596  0.00  0.00    -0.001 A 
ATOM      5  C   UNL A   1     -23.941   0.039  27.787  0.00  0.00    -0.004 A 
ATOM      6  C   UNL A   1     -25.042  -0.384  28.468  0.00  0.00    -0.015 A 
ENDROOT
BRANCH   1   8
ATOM      7  O   UNL A   1     -28.123  -1.335  28.487  0.00  0.00    -0.270 OA
ATOM      8  C   UNL A   1     -27.481  -0.404  28.709  0.00  0.00    +0.248 C 
ATOM      9  N   UNL A   1     -27.666   0.447  29.899  0.00  0.00    -0.276 N 
ATOM     10  C   UNL A   1     -26.943   1.556  30.320  0.00  0.00    +0.105 C 
ATOM     11  C   UNL A   1     -26.948   1.768  31.518  0.00  0.00    +0.123 C 
ATOM     12  C   UNL A   1     -27.774   1.239  32.515  0.00  0.00    +0.015 C 
ATOM     13  C   UNL A   1     -28.438   0.075  32.102  0.00  0.00    +0.022 C 
ATOM     14  C   UNL A   1     -28.359  -0.396  30.834  0.00  0.00    +0.094 C 
BRANCH  11  15
ATOM     15  C   UNL A   1     -26.264   3.120  31.954  0.00  0.00    +0.366 C 
ATOM     16  O   UNL A   1     -26.380   3.488  33.054  0.00  0.00    -0.246 OA
ATOM     17  O   UNL A   1     -25.411   3.643  31.092  0.00  0.00    -0.246 OA
ENDBRANCH  11  15
ENDBRANCH   1   8
BRANCH   6  18
ATOM     18  C   UNL A   1     -24.787  -1.241  29.623  0.00  0.00    +0.041 C 
ATOM     19  C   UNL A   1     -24.538  -2.632  29.377  0.00  0.00    +0.009 C 
BRANCH  18  20
ATOM     20  C   UNL A   1     -24.717  -0.768  30.941  0.00  0.00    -0.040 C 
ATOM     21  C   UNL A   1     -23.926   0.250  31.458  0.00  0.00    -0.009 C 
ATOM     22  C   UNL A   1     -25.619  -1.454  31.916  0.00  0.00    +0.027 C 
ENDBRANCH  18  20
ENDBRANCH   6  18
BRANCH   2  23
ATOM     23  C   UNL A   1     -27.698   1.177  26.417  0.00  0.00    +0.104 C 
BRANCH  23  24
ATOM     24  N   UNL A   1     -28.023   2.379  26.737  0.00  0.00    -0.213 NA
ATOM     25  C   UNL A   1     -28.848   2.918  27.357  0.00  0.00    +0.289 C 
ATOM     26  F   UNL A   1     -29.668   2.221  27.923  0.00  0.00    -0.200 F 
ATOM     27  N   UNL A   1     -29.005   4.246  27.583  0.00  0.00    -0.220 NA
ATOM     28  C   UNL A   1     -27.068   3.459  26.068  0.00  0.00    +0.168 C 
ATOM     29  C   UNL A   1     -29.989   4.855  28.462  0.00  0.00    +0.077 C 
ATOM     30  C   UNL A   1     -28.094   5.090  26.996  0.00  0.00    +0.137 C 
ATOM     31  N   UNL A   1     -27.150   4.708  26.240  0.00  0.00    -0.186 NA
ATOM     32  C   UNL A   1     -30.249   5.973  28.410  0.00  0.00    +0.018 C 
ATOM     33  C   UNL A   1     -29.320   6.952  27.829  0.00  0.00    +0.004 C 
ATOM     34  C   UNL A   1     -28.280   6.577  27.039  0.00  0.00    +0.034 C 
ENDBRANCH  23  24
ENDBRANCH   2  23
TORSDOF 6
