MODEL 2432
MODEL 1
REMARK VINA RESULT:    -6.576      0.000      0.000
REMARK INTER + INTRA:          -7.308
REMARK INTER:                  -6.960
REMARK INTRA:                  -0.348
REMARK UNBOUND:                -0.348
REMARK  Name = No_2432-gen_results/8p0m/2024-11-26-14-13-15/
REMARK  1 active torsions:
REMARK  status: ('A' for Active; 'I' for Inactive)
REMARK    1  A    between atoms: C_2  and  C_7
REMARK                            x       y       z     vdW  Elec       q    Type
REMARK                         _______ _______ _______ _____ _____    ______ ____
ROOT
ATOM      1  C   UNL A   1     -25.739  -2.543  29.516  0.00  0.00    +0.000 A 
ATOM      2  C   UNL A   1     -24.628  -2.527  29.038  0.00  0.00    +0.000 A 
ATOM      3  C   UNL A   1     -23.978  -3.707  28.693  0.00  0.00    +0.000 A 
ATOM      4  C   UNL A   1     -24.589  -4.988  28.935  0.00  0.00    +0.000 A 
ATOM      5  C   UNL A   1     -25.864  -4.915  29.511  0.00  0.00    +0.000 A 
ATOM      6  C   UNL A   1     -26.428  -3.774  29.835  0.00  0.00    +0.000 A 
ENDROOT
BRANCH   2   7
ATOM      7  C   UNL A   1     -23.837  -1.302  28.745  0.00  0.00    +0.000 A 
ATOM      8  C   UNL A   1     -22.612  -1.150  29.109  0.00  0.00    +0.000 A 
ATOM      9  C   UNL A   1     -21.794  -0.024  28.855  0.00  0.00    +0.000 A 
ATOM     10  C   UNL A   1     -22.309   0.959  27.960  0.00  0.00    +0.000 A 
ATOM     11  C   UNL A   1     -23.566   0.785  27.452  0.00  0.00    +0.000 A 
ATOM     12  C   UNL A   1     -24.367  -0.340  27.817  0.00  0.00    +0.000 A 
ENDBRANCH   2   7
TORSDOF 1
ENDMDL
ENDMDL
