REMARK  Name = No_2433-gen_results/8p0m/2024-11-26-14-13-15/
REMARK  3 active torsions:
REMARK  status: ('A' for Active; 'I' for Inactive)
REMARK    1  A    between atoms: C_5  and  C_18
REMARK    2  A    between atoms: C_7  and  C_8
REMARK    3  A    between atoms: C_12  and  C_14
REMARK                            x       y       z     vdW  Elec       q    Type
REMARK                         _______ _______ _______ _____ _____    ______ ____
ROOT
ATOM      1  F   UNL A   1     -28.073  -1.254  28.532  0.00  0.00    -0.202 F 
ATOM      2  C   UNL A   1     -28.266  -0.421  29.193  0.00  0.00    +0.167 A 
ATOM      3  C   UNL A   1     -29.445   0.076  29.339  0.00  0.00    +0.168 A 
ATOM      4  C   UNL A   1     -29.707   1.174  30.228  0.00  0.00    +0.038 A 
ATOM      5  C   UNL A   1     -28.597   1.711  30.911  0.00  0.00    +0.082 A 
ATOM      6  C   UNL A   1     -27.302   1.182  30.791  0.00  0.00    +0.009 A 
ATOM      7  C   UNL A   1     -27.122   0.122  29.980  0.00  0.00    +0.030 A 
ATOM      8  F   UNL A   1     -30.454  -0.423  28.709  0.00  0.00    -0.202 F 
ENDROOT
BRANCH   7   9
ATOM      9  C   UNL A   1     -25.798  -0.426  29.845  0.00  0.00    +0.002 A 
ATOM     10  C   UNL A   1     -25.492  -1.664  29.816  0.00  0.00    +0.000 A 
ATOM     11  C   UNL A   1     -24.182  -2.179  29.620  0.00  0.00    +0.000 A 
ATOM     12  C   UNL A   1     -23.150  -1.271  29.534  0.00  0.00    +0.005 A 
ATOM     13  C   UNL A   1     -23.394   0.087  29.484  0.00  0.00    +0.057 A 
ATOM     14  C   UNL A   1     -24.731   0.513  29.690  0.00  0.00    +0.005 A 
BRANCH  13  15
ATOM     15  C   UNL A   1     -22.291   1.032  29.400  0.00  0.00    +0.284 C 
ATOM     16  N   UNL A   1     -21.281   0.563  28.553  0.00  0.00    -0.084 NA
ATOM     17  O   UNL A   1     -22.328   2.171  29.735  0.00  0.00    -0.267 OA
ENDBRANCH  13  15
ENDBRANCH   7   9
BRANCH   5  18
ATOM     18  C   UNL A   1     -28.823   2.871  31.883  0.00  0.00    +0.388 C 
ATOM     19  O   UNL A   1     -29.710   3.268  32.337  0.00  0.00    -0.241 OA
ATOM     20  O   UNL A   1     -27.606   3.187  32.433  0.00  0.00    -0.241 OA
ENDBRANCH   5  18
TORSDOF 3
