MODEL 2433
MODEL 1
REMARK VINA RESULT:    -7.897      0.000      0.000
REMARK INTER + INTRA:          -9.848
REMARK INTER:                  -9.282
REMARK INTRA:                  -0.566
REMARK UNBOUND:                -0.566
REMARK  Name = No_2433-gen_results/8p0m/2024-11-26-14-13-15/
REMARK  3 active torsions:
REMARK  status: ('A' for Active; 'I' for Inactive)
REMARK    1  A    between atoms: C_5  and  C_18
REMARK    2  A    between atoms: C_7  and  C_8
REMARK    3  A    between atoms: C_12  and  C_14
REMARK                            x       y       z     vdW  Elec       q    Type
REMARK                         _______ _______ _______ _____ _____    ______ ____
ROOT
ATOM      1  F   UNL A   1     -23.443  -4.071  28.293  0.00  0.00    -0.202 F 
ATOM      2  C   UNL A   1     -24.379  -3.874  28.795  0.00  0.00    +0.167 A 
ATOM      3  C   UNL A   1     -25.208  -4.816  29.087  0.00  0.00    +0.168 A 
ATOM      4  C   UNL A   1     -26.447  -4.560  29.768  0.00  0.00    +0.038 A 
ATOM      5  C   UNL A   1     -26.733  -3.213  30.071  0.00  0.00    +0.082 A 
ATOM      6  C   UNL A   1     -25.845  -2.164  29.785  0.00  0.00    +0.009 A 
ATOM      7  C   UNL A   1     -24.676  -2.467  29.189  0.00  0.00    +0.030 A 
ATOM      8  F   UNL A   1     -24.936  -6.045  28.805  0.00  0.00    -0.202 F 
ENDROOT
BRANCH   7   9
ATOM      9  C   UNL A   1     -23.759  -1.400  28.887  0.00  0.00    +0.002 A 
ATOM     10  C   UNL A   1     -22.559  -1.294  29.306  0.00  0.00    +0.000 A 
ATOM     11  C   UNL A   1     -21.653  -0.260  28.943  0.00  0.00    +0.000 A 
ATOM     12  C   UNL A   1     -22.133   0.749  28.138  0.00  0.00    +0.005 A 
ATOM     13  C   UNL A   1     -23.394   0.681  27.580  0.00  0.00    +0.057 A 
ATOM     14  C   UNL A   1     -24.232  -0.384  27.999  0.00  0.00    +0.005 A 
BRANCH  13  15
ATOM     15  C   UNL A   1     -23.887   1.760  26.738  0.00  0.00    +0.284 C 
ATOM     16  N   UNL A   1     -23.943   2.970  27.439  0.00  0.00    -0.084 NA
ATOM     17  O   UNL A   1     -23.955   1.737  25.552  0.00  0.00    -0.267 OA
ENDBRANCH  13  15
ENDBRANCH   7   9
BRANCH   5  18
ATOM     18  C   UNL A   1     -28.032  -2.886  30.810  0.00  0.00    +0.388 C 
ATOM     19  O   UNL A   1     -28.265  -2.175  31.579  0.00  0.00    -0.241 OA
ATOM     20  O   UNL A   1     -29.063  -3.430  30.086  0.00  0.00    -0.241 OA
ENDBRANCH   5  18
TORSDOF 3
ENDMDL
ENDMDL
