MODEL 2434
MODEL 1
REMARK VINA RESULT:    -7.206      0.000      0.000
REMARK INTER + INTRA:         -11.508
REMARK INTER:                  -9.733
REMARK INTRA:                  -1.775
REMARK UNBOUND:                -1.775
REMARK  Name = No_2434-gen_results/8p0m/2024-11-26-14-13-15/
REMARK  6 active torsions:
REMARK  status: ('A' for Active; 'I' for Inactive)
REMARK    1  A    between atoms: C_1  and  C_2
REMARK    2  A    between atoms: C_1  and  N_8
REMARK    3  A    between atoms: C_3  and  C_25
REMARK    4  A    between atoms: C_5  and  C_15
REMARK    5  A    between atoms: C_7  and  C_19
REMARK    6  A    between atoms: C_25  and  C_27
REMARK                            x       y       z     vdW  Elec       q    Type
REMARK                         _______ _______ _______ _____ _____    ______ ____
ROOT
ATOM      1  C   UNL A   1      -9.452   0.990  35.195  0.00  0.00    -0.005 A 
ATOM      2  C   UNL A   1     -10.762   1.192  35.615  0.00  0.00    -0.008 A 
ATOM      3  C   UNL A   1     -11.426   0.531  36.775  0.00  0.00    +0.001 A 
ATOM      4  C   UNL A   1     -10.687  -0.514  37.405  0.00  0.00    +0.071 A 
ATOM      5  C   UNL A   1      -9.382  -0.743  36.924  0.00  0.00    +0.004 A 
ATOM      6  C   UNL A   1      -8.819  -0.075  35.906  0.00  0.00    -0.003 A 
ENDROOT
BRANCH   6   7
ATOM      7  C   UNL A   1      -7.438  -0.475  35.518  0.00  0.00    +0.000 A 
ATOM      8  C   UNL A   1      -6.454   0.291  36.022  0.00  0.00    +0.007 A 
ATOM      9  C   UNL A   1      -5.123   0.167  35.542  0.00  0.00    +0.035 A 
ATOM     10  C   UNL A   1      -7.220  -1.533  34.700  0.00  0.00    +0.000 A 
ATOM     11  C   UNL A   1      -5.916  -1.749  34.218  0.00  0.00    +0.001 A 
ATOM     12  C   UNL A   1      -4.873  -0.942  34.704  0.00  0.00    +0.007 A 
ATOM     13 BR   UNL A   1      -3.683   1.220  36.125  0.00  0.00    -0.049 Br
ENDBRANCH   6   7
BRANCH   4  14
ATOM     14  C   UNL A   1     -11.342  -1.253  38.464  0.00  0.00    +0.419 C 
ATOM     15  F   UNL A   1     -12.257  -0.692  39.051  0.00  0.00    -0.166 F 
ATOM     16  F   UNL A   1     -10.444  -1.721  39.458  0.00  0.00    -0.166 F 
ATOM     17  F   UNL A   1     -11.894  -2.443  37.968  0.00  0.00    -0.166 F 
ENDBRANCH   4  14
BRANCH   2  18
ATOM     18  C   UNL A   1     -11.724   2.227  35.035  0.00  0.00    +0.131 C 
ATOM     19 CL   UNL A   1     -12.748   1.898  33.960  0.00  0.00    -0.108 Cl
BRANCH  18  20
ATOM     20  C   UNL A   1     -11.825   3.452  35.826  0.00  0.00    +0.175 C 
ATOM     21  C   UNL A   1     -12.946   3.791  36.609  0.00  0.00    +0.141 C 
ATOM     22  N   UNL A   1     -12.957   4.998  37.180  0.00  0.00    -0.215 NA
ATOM     23  C   UNL A   1     -11.741   5.560  36.892  0.00  0.00    +0.195 C 
ATOM     24  N   UNL A   1     -11.139   4.642  36.036  0.00  0.00    -0.243 NA
ATOM     25 CL   UNL A   1     -14.343   2.695  36.818  0.00  0.00    -0.064 Cl
ENDBRANCH  18  20
ENDBRANCH   2  18
BRANCH   1  26
ATOM     26  C   UNL A   1      -9.003   1.585  34.243  0.00  0.00    +0.121 C 
BRANCH  26  27
ATOM     27  N   UNL A   1      -8.399   2.822  34.504  0.00  0.00    -0.259 N 
ATOM     28  C   UNL A   1      -8.100   3.252  35.393  0.00  0.00    +0.097 C 
ATOM     29  C   UNL A   1      -7.519   4.711  35.396  0.00  0.00    +0.045 C 
ATOM     30  C   UNL A   1      -8.353   3.734  33.215  0.00  0.00    +0.324 C 
ATOM     31  O   UNL A   1      -8.740   3.247  32.208  0.00  0.00    -0.251 OA
ATOM     32  N   UNL A   1      -7.935   4.996  33.264  0.00  0.00    -0.188 NA
ATOM     33  C   UNL A   1      -7.517   5.505  34.410  0.00  0.00    +0.118 C 
ENDBRANCH  26  27
ENDBRANCH   1  26
TORSDOF 6
ENDMDL
ENDMDL
