REMARK  Name = No_2434-gen_results/8p0m/2024-11-26-14-13-15/
REMARK  6 active torsions:
REMARK  status: ('A' for Active; 'I' for Inactive)
REMARK    1  A    between atoms: C_1  and  C_2
REMARK    2  A    between atoms: C_1  and  N_8
REMARK    3  A    between atoms: C_3  and  C_25
REMARK    4  A    between atoms: C_5  and  C_15
REMARK    5  A    between atoms: C_7  and  C_19
REMARK    6  A    between atoms: C_25  and  C_27
REMARK                            x       y       z     vdW  Elec       q    Type
REMARK                         _______ _______ _______ _____ _____    ______ ____
ROOT
ATOM      1  C   UNL A   1     -27.064  -0.119  28.608  0.00  0.00    -0.005 A 
ATOM      2  C   UNL A   1     -25.792  -0.430  29.076  0.00  0.00    -0.008 A 
ATOM      3  C   UNL A   1     -24.546   0.349  28.823  0.00  0.00    +0.001 A 
ATOM      4  C   UNL A   1     -24.659   1.420  27.888  0.00  0.00    +0.071 A 
ATOM      5  C   UNL A   1     -25.947   1.681  27.379  0.00  0.00    +0.004 A 
ATOM      6  C   UNL A   1     -27.044   0.974  27.687  0.00  0.00    -0.003 A 
ENDROOT
BRANCH   6   7
ATOM      7  C   UNL A   1     -28.316   1.379  27.028  0.00  0.00    +0.000 A 
ATOM      8  C   UNL A   1     -28.999   2.359  27.648  0.00  0.00    +0.007 A 
ATOM      9  C   UNL A   1     -30.330   2.669  27.262  0.00  0.00    +0.035 A 
ATOM     10  C   UNL A   1     -28.739   0.775  25.892  0.00  0.00    +0.000 A 
ATOM     11  C   UNL A   1     -30.032   1.066  25.420  0.00  0.00    +0.001 A 
ATOM     12  C   UNL A   1     -30.781   2.063  26.069  0.00  0.00    +0.007 A 
ATOM     13 BR   UNL A   1     -31.399   3.969  28.092  0.00  0.00    -0.049 Br
ENDBRANCH   6   7
BRANCH   4  14
ATOM     14  C   UNL A   1     -23.447   2.130  27.533  0.00  0.00    +0.419 C 
ATOM     15  F   UNL A   1     -23.578   3.203  26.962  0.00  0.00    -0.166 F 
ATOM     16  F   UNL A   1     -22.554   1.355  26.749  0.00  0.00    -0.166 F 
ATOM     17  F   UNL A   1     -22.685   2.409  28.677  0.00  0.00    -0.166 F 
ENDBRANCH   4  14
BRANCH   2  18
ATOM     18  C   UNL A   1     -25.462  -1.565  30.043  0.00  0.00    +0.131 C 
ATOM     19 CL   UNL A   1     -25.953  -1.599  31.482  0.00  0.00    -0.108 Cl
BRANCH  18  20
ATOM     20  C   UNL A   1     -24.942  -2.766  29.393  0.00  0.00    +0.175 C 
ATOM     21  C   UNL A   1     -25.625  -3.998  29.358  0.00  0.00    +0.141 C 
ATOM     22  N   UNL A   1     -24.980  -5.046  28.840  0.00  0.00    -0.215 NA
ATOM     23  C   UNL A   1     -23.787  -4.559  28.374  0.00  0.00    +0.195 C 
ATOM     24  N   UNL A   1     -23.782  -3.229  28.785  0.00  0.00    -0.243 NA
ATOM     25 CL   UNL A   1     -27.275  -4.204  30.014  0.00  0.00    -0.064 Cl
ENDBRANCH  18  20
ENDBRANCH   2  18
BRANCH   1  26
ATOM     26  C   UNL A   1     -28.016  -0.814  28.878  0.00  0.00    +0.121 C 
BRANCH  26  27
ATOM     27  N   UNL A   1     -28.657  -0.553  30.096  0.00  0.00    -0.259 N 
ATOM     28  C   UNL A   1     -28.584   0.251  30.738  0.00  0.00    +0.097 C 
ATOM     29  C   UNL A   1     -29.370   0.237  32.098  0.00  0.00    +0.045 C 
ATOM     30  C   UNL A   1     -29.478  -1.804  30.604  0.00  0.00    +0.324 C 
ATOM     31  O   UNL A   1     -29.519  -2.739  29.880  0.00  0.00    -0.251 OA
ATOM     32  N   UNL A   1     -30.063  -1.820  31.799  0.00  0.00    -0.188 NA
ATOM     33  C   UNL A   1     -29.988  -0.757  32.581  0.00  0.00    +0.118 C 
ENDBRANCH  26  27
ENDBRANCH   1  26
TORSDOF 6
