REMARK  Name = No_2435-gen_results/8p0m/2024-11-26-14-13-15/
REMARK  0 active torsions:
REMARK  status: ('A' for Active; 'I' for Inactive)
REMARK                            x       y       z     vdW  Elec       q    Type
REMARK                         _______ _______ _______ _____ _____    ______ ____
ROOT
ATOM      1  O   UNL A   1     -28.123  -1.335  28.487  0.00  0.00    -0.273 OA
ATOM      2  C   UNL A   1     -27.481  -0.404  28.709  0.00  0.00    +0.246 C 
ATOM      3  C   UNL A   1     -26.380  -0.087  27.939  0.00  0.00    +0.113 C 
ATOM      4  N   UNL A   1     -27.423   0.175  30.055  0.00  0.00    -0.200 NA
ATOM      5  C   UNL A   1     -25.407   0.742  28.286  0.00  0.00    -0.015 A 
ATOM      6  C   UNL A   1     -25.543   1.480  29.533  0.00  0.00    -0.004 A 
ATOM      7  C   UNL A   1     -26.532   1.082  30.401  0.00  0.00    +0.141 C 
ATOM      8  C   UNL A   1     -24.317   1.219  27.410  0.00  0.00    +0.007 A 
ATOM      9  C   UNL A   1     -23.056   1.462  27.970  0.00  0.00    +0.057 A 
ATOM     10  C   UNL A   1     -22.999   1.833  29.359  0.00  0.00    +0.011 A 
ATOM     11  C   UNL A   1     -24.166   1.686  30.194  0.00  0.00    -0.002 A 
ATOM     12 CL   UNL A   1     -21.708   1.944  27.070  0.00  0.00    -0.082 Cl
ENDROOT
TORSDOF 0
