MODEL 2435
MODEL 1
REMARK VINA RESULT:    -5.354      0.000      0.000
REMARK INTER + INTRA:          -5.354
REMARK INTER:                  -5.354
REMARK INTRA:                   0.000
REMARK UNBOUND:                 0.000
REMARK  Name = No_2435-gen_results/8p0m/2024-11-26-14-13-15/
REMARK  0 active torsions:
REMARK  status: ('A' for Active; 'I' for Inactive)
REMARK                            x       y       z     vdW  Elec       q    Type
REMARK                         _______ _______ _______ _____ _____    ______ ____
ROOT
ATOM      1  O   UNL A   1     -23.697  -3.095  29.030  0.00  0.00    -0.273 OA
ATOM      2  C   UNL A   1     -23.467  -1.965  29.013  0.00  0.00    +0.246 C 
ATOM      3  C   UNL A   1     -24.297  -1.071  28.368  0.00  0.00    +0.113 C 
ATOM      4  N   UNL A   1     -22.097  -1.467  29.165  0.00  0.00    -0.200 NA
ATOM      5  C   UNL A   1     -23.974   0.163  28.010  0.00  0.00    -0.015 A 
ATOM      6  C   UNL A   1     -22.678   0.682  28.420  0.00  0.00    -0.004 A 
ATOM      7  C   UNL A   1     -21.764  -0.216  28.918  0.00  0.00    +0.141 C 
ATOM      8  C   UNL A   1     -24.899   1.184  27.475  0.00  0.00    +0.007 A 
ATOM      9  C   UNL A   1     -24.422   2.099  26.528  0.00  0.00    +0.057 A 
ATOM     10  C   UNL A   1     -23.021   2.427  26.558  0.00  0.00    +0.011 A 
ATOM     11  C   UNL A   1     -22.111   1.633  27.348  0.00  0.00    -0.002 A 
ATOM     12 CL   UNL A   1     -25.390   3.272  25.787  0.00  0.00    -0.082 Cl
ENDROOT
TORSDOF 0
ENDMDL
ENDMDL
