MODEL 2436
MODEL 1
REMARK VINA RESULT:    -6.714      0.000      0.000
REMARK INTER + INTRA:          -6.714
REMARK INTER:                  -6.714
REMARK INTRA:                   0.000
REMARK UNBOUND:                 0.000
REMARK  Name = No_2436-gen_results/8p0m/2024-11-26-14-13-15/
REMARK  0 active torsions:
REMARK  status: ('A' for Active; 'I' for Inactive)
REMARK                            x       y       z     vdW  Elec       q    Type
REMARK                         _______ _______ _______ _____ _____    ______ ____
ROOT
ATOM      1  C   UNL A   1     -30.023  -9.866  30.997  0.00  0.00    +0.000 A 
ATOM      2  C   UNL A   1     -30.146 -10.332  30.060  0.00  0.00    +0.000 A 
ATOM      3  C   UNL A   1     -29.076 -10.562  31.950  0.00  0.00    +0.000 A 
ATOM      4  C   UNL A   1     -28.847 -10.216  33.330  0.00  0.00    +0.000 A 
ATOM      5  C   UNL A   1     -31.080  -9.723  29.014  0.00  0.00    +0.000 A 
ATOM      6  C   UNL A   1     -27.911 -11.046  34.047  0.00  0.00    +0.000 A 
ATOM      7  C   UNL A   1     -27.201 -12.069  33.421  0.00  0.00    +0.000 A 
ATOM      8  C   UNL A   1     -27.388 -12.393  32.126  0.00  0.00    +0.000 A 
ATOM      9  C   UNL A   1     -28.273 -11.662  31.386  0.00  0.00    +0.000 A 
ATOM     10  C   UNL A   1     -31.034 -10.034  27.699  0.00  0.00    +0.000 A 
ATOM     11  C   UNL A   1     -30.219 -11.131  27.281  0.00  0.00    +0.000 A 
ATOM     12  C   UNL A   1     -29.350 -11.730  28.093  0.00  0.00    +0.000 A 
ATOM     13  C   UNL A   1     -29.222 -11.339  29.359  0.00  0.00    +0.000 A 
ATOM     14  C   UNL A   1     -28.352 -11.936  30.223  0.00  0.00    +0.000 A 
ENDROOT
TORSDOF 0
ENDMDL
ENDMDL
