REMARK  Name = No_2437-gen_results/8p0m/2024-11-26-14-13-15/
REMARK  3 active torsions:
REMARK  status: ('A' for Active; 'I' for Inactive)
REMARK    1  A    between atoms: C_9  and  C_11
REMARK    2  A    between atoms: C_11  and  N_22
REMARK    3  A    between atoms: C_23  and  C_25
REMARK                            x       y       z     vdW  Elec       q    Type
REMARK                         _______ _______ _______ _____ _____    ______ ____
ROOT
ATOM      1  C   UNL A   1     -28.016  -0.814  28.878  0.00  0.00    +0.004 A 
ATOM      2  C   UNL A   1     -27.064  -0.119  28.608  0.00  0.00    +0.036 A 
ATOM      3  C   UNL A   1     -27.001   0.691  27.491  0.00  0.00    +0.001 A 
ATOM      4  C   UNL A   1     -28.137   0.736  26.635  0.00  0.00    +0.016 A 
ATOM      5  C   UNL A   1     -29.236   0.076  27.069  0.00  0.00    +0.081 A 
ATOM      6  C   UNL A   1     -29.218  -0.643  28.175  0.00  0.00    +0.018 A 
ATOM      7  N   UNL A   1     -30.352   0.156  26.243  0.00  0.00    -0.244 NA
ATOM      8  C   UNL A   1     -31.431  -0.431  26.600  0.00  0.00    +0.103 A 
ATOM      9  C   UNL A   1     -31.483  -1.121  27.841  0.00  0.00    +0.074 A 
ATOM     10  C   UNL A   1     -30.409  -1.293  28.580  0.00  0.00    +0.008 A 
ATOM     11  C   UNL A   1     -25.692   1.395  27.101  0.00  0.00    +0.124 C 
ATOM     12  C   UNL A   1     -24.621   0.950  27.779  0.00  0.00    -0.000 A 
ATOM     13  C   UNL A   1     -23.360   1.736  27.583  0.00  0.00    -0.003 A 
ATOM     14  C   UNL A   1     -22.200   1.423  28.407  0.00  0.00    -0.000 A 
ATOM     15  C   UNL A   1     -22.230   0.292  29.229  0.00  0.00    +0.000 A 
ATOM     16  C   UNL A   1     -23.368  -0.467  29.380  0.00  0.00    +0.003 A 
ATOM     17  C   UNL A   1     -24.528  -0.152  28.646  0.00  0.00    +0.036 A 
ATOM     18  C   UNL A   1     -25.729  -0.526  29.209  0.00  0.00    +0.195 C 
ATOM     19  O   UNL A   1     -25.800  -1.434  30.123  0.00  0.00    -0.287 OA
ATOM     20 CL   UNL A   1     -25.708   2.525  25.852  0.00  0.00    -0.105 Cl
ENDROOT
BRANCH   9  21
ATOM     21  C   UNL A   1     -32.802  -1.825  28.189  0.00  0.00    +0.271 C 
ATOM     22  O   UNL A   1     -33.193  -2.760  27.485  0.00  0.00    -0.268 OA
BRANCH  21  23
ATOM     23  N   UNL A   1     -33.182  -1.813  29.423  0.00  0.00    -0.174 NA
ATOM     24  C   UNL A   1     -34.050  -2.411  29.927  0.00  0.00    +0.089 C 
BRANCH  24  25
ATOM     25  C   UNL A   1     -33.788  -3.550  30.674  0.00  0.00    +0.017 A 
ATOM     26  C   UNL A   1     -34.772  -4.362  31.252  0.00  0.00    +0.001 A 
ATOM     27  C   UNL A   1     -34.454  -5.520  31.965  0.00  0.00    +0.000 A 
ATOM     28  C   UNL A   1     -33.087  -5.910  32.073  0.00  0.00    +0.000 A 
ATOM     29  C   UNL A   1     -32.063  -5.151  31.454  0.00  0.00    +0.000 A 
ATOM     30  C   UNL A   1     -32.438  -3.976  30.767  0.00  0.00    +0.001 A 
ENDBRANCH  24  25
ENDBRANCH  21  23
ENDBRANCH   9  21
TORSDOF 3
