MODEL 2437
MODEL 1
REMARK VINA RESULT:    -8.710      0.000      0.000
REMARK INTER + INTRA:         -10.757
REMARK INTER:                 -10.238
REMARK INTRA:                  -0.520
REMARK UNBOUND:                -0.520
REMARK  Name = No_2437-gen_results/8p0m/2024-11-26-14-13-15/
REMARK  3 active torsions:
REMARK  status: ('A' for Active; 'I' for Inactive)
REMARK    1  A    between atoms: C_9  and  C_11
REMARK    2  A    between atoms: C_11  and  N_22
REMARK    3  A    between atoms: C_23  and  C_25
REMARK                            x       y       z     vdW  Elec       q    Type
REMARK                         _______ _______ _______ _____ _____    ______ ____
ROOT
ATOM      1  C   UNL A   1     -26.264   0.416  25.673  0.00  0.00    +0.004 A 
ATOM      2  C   UNL A   1     -27.091   1.171  25.217  0.00  0.00    +0.036 A 
ATOM      3  C   UNL A   1     -27.352   2.424  25.735  0.00  0.00    +0.001 A 
ATOM      4  C   UNL A   1     -26.575   2.862  26.844  0.00  0.00    +0.016 A 
ATOM      5  C   UNL A   1     -25.551   2.055  27.209  0.00  0.00    +0.081 A 
ATOM      6  C   UNL A   1     -25.350   0.888  26.627  0.00  0.00    +0.018 A 
ATOM      7  N   UNL A   1     -24.775   2.509  28.270  0.00  0.00    -0.244 NA
ATOM      8  C   UNL A   1     -23.780   1.804  28.657  0.00  0.00    +0.103 A 
ATOM      9  C   UNL A   1     -23.465   0.595  27.980  0.00  0.00    +0.074 A 
ATOM     10  C   UNL A   1     -24.249   0.103  27.046  0.00  0.00    +0.008 A 
ATOM     11  C   UNL A   1     -28.546   3.251  25.235  0.00  0.00    +0.124 C 
ATOM     12  C   UNL A   1     -29.403   2.550  24.473  0.00  0.00    -0.000 A 
ATOM     13  C   UNL A   1     -30.473   3.353  23.797  0.00  0.00    -0.003 A 
ATOM     14  C   UNL A   1     -31.337   2.697  22.825  0.00  0.00    -0.000 A 
ATOM     15  C   UNL A   1     -31.267   1.309  22.675  0.00  0.00    +0.000 A 
ATOM     16  C   UNL A   1     -30.320   0.553  23.327  0.00  0.00    +0.003 A 
ATOM     17  C   UNL A   1     -29.426   1.167  24.226  0.00  0.00    +0.036 A 
ATOM     18  C   UNL A   1     -28.208   0.545  24.399  0.00  0.00    +0.195 C 
ATOM     19  O   UNL A   1     -28.026  -0.695  24.091  0.00  0.00    -0.287 OA
ATOM     20 CL   UNL A   1     -28.713   4.846  25.748  0.00  0.00    -0.105 Cl
ENDROOT
BRANCH   9  21
ATOM     21  C   UNL A   1     -22.275  -0.211  28.519  0.00  0.00    +0.271 C 
ATOM     22  O   UNL A   1     -21.131   0.228  28.374  0.00  0.00    -0.268 OA
BRANCH  21  23
ATOM     23  N   UNL A   1     -22.486  -0.996  29.522  0.00  0.00    -0.174 NA
ATOM     24  C   UNL A   1     -23.456  -1.122  30.161  0.00  0.00    +0.089 C 
BRANCH  24  25
ATOM     25  C   UNL A   1     -24.312  -2.193  29.949  0.00  0.00    +0.017 A 
ATOM     26  C   UNL A   1     -25.664  -2.212  30.314  0.00  0.00    +0.001 A 
ATOM     27  C   UNL A   1     -26.491  -3.304  30.044  0.00  0.00    +0.000 A 
ATOM     28  C   UNL A   1     -25.952  -4.419  29.338  0.00  0.00    +0.000 A 
ATOM     29  C   UNL A   1     -24.606  -4.419  28.897  0.00  0.00    +0.000 A 
ATOM     30  C   UNL A   1     -23.807  -3.300  29.218  0.00  0.00    +0.001 A 
ENDBRANCH  24  25
ENDBRANCH  21  23
ENDBRANCH   9  21
TORSDOF 3
ENDMDL
ENDMDL
