MODEL 2438
MODEL 1
REMARK VINA RESULT:    -7.530      0.000      0.000
REMARK INTER + INTRA:         -10.181
REMARK INTER:                  -9.291
REMARK INTRA:                  -0.891
REMARK UNBOUND:                -0.891
REMARK  Name = No_2438-gen_results/8p0m/2024-11-26-14-13-15/
REMARK  4 active torsions:
REMARK  status: ('A' for Active; 'I' for Inactive)
REMARK    1  A    between atoms: C_3  and  C_4
REMARK    2  A    between atoms: C_6  and  O_16
REMARK    3  A    between atoms: C_10  and  C_13
REMARK    4  A    between atoms: O_16  and  C_17
REMARK                            x       y       z     vdW  Elec       q    Type
REMARK                         _______ _______ _______ _____ _____    ______ ____
ROOT
ATOM      1  C   UNL A   1     -24.614   0.785  26.830  0.00  0.00    +0.003 A 
ATOM      2  C   UNL A   1     -24.898  -0.058  27.944  0.00  0.00    +0.037 A 
ATOM      3  C   UNL A   1     -23.903  -0.352  28.875  0.00  0.00    +0.145 A 
ATOM      4  C   UNL A   1     -22.678   0.337  28.746  0.00  0.00    +0.037 A 
ATOM      5  C   UNL A   1     -22.402   1.161  27.693  0.00  0.00    +0.003 A 
ATOM      6  C   UNL A   1     -23.420   1.443  26.707  0.00  0.00    +0.000 A 
ENDROOT
BRANCH   1   9
ATOM      7  C   UNL A   1     -27.415   2.392  25.106  0.00  0.00    +0.007 A 
ATOM      8  C   UNL A   1     -26.492   2.259  25.875  0.00  0.00    +0.000 A 
ATOM      9  C   UNL A   1     -25.762   1.076  25.923  0.00  0.00    +0.000 A 
ATOM     10  C   UNL A   1     -27.963   1.275  24.342  0.00  0.00    +0.080 A 
ATOM     11  C   UNL A   1     -27.246   0.100  24.244  0.00  0.00    +0.007 A 
ATOM     12  C   UNL A   1     -26.144  -0.059  25.095  0.00  0.00    +0.000 A 
BRANCH  10  13
ATOM     13  C   UNL A   1     -29.128   1.425  23.451  0.00  0.00    +0.388 C 
ATOM     14  O   UNL A   1     -29.905   0.395  23.350  0.00  0.00    -0.241 OA
ATOM     15  O   UNL A   1     -29.603   2.473  23.095  0.00  0.00    -0.241 OA
ENDBRANCH  10  13
ENDBRANCH   1   9
BRANCH   3  16
ATOM     16  O   UNL A   1     -24.161  -1.139  29.897  0.00  0.00    -0.454 OA
BRANCH  16  17
ATOM     17  C   UNL A   1     -24.516  -2.518  29.534  0.00  0.00    +0.145 A 
ATOM     18  C   UNL A   1     -23.700  -3.196  28.870  0.00  0.00    +0.037 A 
ATOM     19  C   UNL A   1     -24.166  -4.540  28.592  0.00  0.00    +0.003 A 
ATOM     20  C   UNL A   1     -25.329  -5.002  29.032  0.00  0.00    +0.000 A 
ATOM     21  C   UNL A   1     -25.795  -2.951  29.996  0.00  0.00    +0.037 A 
ATOM     22  C   UNL A   1     -26.215  -4.180  29.748  0.00  0.00    +0.003 A 
ENDBRANCH  16  17
ENDBRANCH   3  16
TORSDOF 4
ENDMDL
ENDMDL
