REMARK  Name = No_2438-gen_results/8p0m/2024-11-26-14-13-15/
REMARK  4 active torsions:
REMARK  status: ('A' for Active; 'I' for Inactive)
REMARK    1  A    between atoms: C_3  and  C_4
REMARK    2  A    between atoms: C_6  and  O_16
REMARK    3  A    between atoms: C_10  and  C_13
REMARK    4  A    between atoms: O_16  and  C_17
REMARK                            x       y       z     vdW  Elec       q    Type
REMARK                         _______ _______ _______ _____ _____    ______ ____
ROOT
ATOM      1  C   UNL A   1     -24.546   0.349  28.823  0.00  0.00    +0.003 A 
ATOM      2  C   UNL A   1     -24.659   1.420  27.888  0.00  0.00    +0.037 A 
ATOM      3  C   UNL A   1     -23.540   2.179  27.550  0.00  0.00    +0.145 A 
ATOM      4  C   UNL A   1     -22.293   1.743  28.047  0.00  0.00    +0.037 A 
ATOM      5  C   UNL A   1     -22.171   0.708  28.928  0.00  0.00    +0.003 A 
ATOM      6  C   UNL A   1     -23.334  -0.062  29.308  0.00  0.00    +0.000 A 
ENDROOT
BRANCH   1   9
ATOM      7  C   UNL A   1     -28.016  -0.814  28.878  0.00  0.00    +0.007 A 
ATOM      8  C   UNL A   1     -27.064  -0.119  28.608  0.00  0.00    +0.000 A 
ATOM      9  C   UNL A   1     -25.792  -0.430  29.076  0.00  0.00    +0.000 A 
ATOM     10  C   UNL A   1     -27.947  -1.882  29.871  0.00  0.00    +0.080 A 
ATOM     11  C   UNL A   1     -26.716  -2.329  30.306  0.00  0.00    +0.007 A 
ATOM     12  C   UNL A   1     -25.592  -1.564  29.967  0.00  0.00    +0.000 A 
BRANCH  10  13
ATOM     13  C   UNL A   1     -29.123  -2.688  30.245  0.00  0.00    +0.388 C 
ATOM     14  O   UNL A   1     -29.401  -2.739  31.508  0.00  0.00    -0.241 OA
ATOM     15  O   UNL A   1     -30.016  -3.005  29.502  0.00  0.00    -0.241 OA
ENDBRANCH  10  13
ENDBRANCH   1   9
BRANCH   3  16
ATOM     16  O   UNL A   1     -23.646   3.174  26.696  0.00  0.00    -0.454 OA
BRANCH  16  17
ATOM     17  C   UNL A   1     -25.001   3.729  26.568  0.00  0.00    +0.145 A 
ATOM     18  C   UNL A   1     -25.874   3.058  25.973  0.00  0.00    +0.037 A 
ATOM     19  C   UNL A   1     -27.167   3.713  25.930  0.00  0.00    +0.003 A 
ATOM     20  C   UNL A   1     -27.395   4.890  26.498  0.00  0.00    +0.000 A 
ATOM     21  C   UNL A   1     -25.182   5.016  27.159  0.00  0.00    +0.037 A 
ATOM     22  C   UNL A   1     -26.364   5.607  27.126  0.00  0.00    +0.003 A 
ENDBRANCH  16  17
ENDBRANCH   3  16
TORSDOF 4
