REMARK  Name = No_2439-gen_results/8p0m/2024-11-26-14-13-15/
REMARK  4 active torsions:
REMARK  status: ('A' for Active; 'I' for Inactive)
REMARK    1  A    between atoms: C_3  and  C_7
REMARK    2  A    between atoms: C_10  and  C_13
REMARK    3  A    between atoms: C_17  and  C_18
REMARK    4  A    between atoms: C_18  and  C_19
REMARK                            x       y       z     vdW  Elec       q    Type
REMARK                         _______ _______ _______ _____ _____    ______ ____
ROOT
ATOM      1  C   UNL A   1     -26.399   0.295  27.228  0.00  0.00    -0.003 A 
ATOM      2  C   UNL A   1     -26.902   0.728  26.213  0.00  0.00    -0.000 A 
ATOM      3  C   UNL A   1     -26.175   0.636  24.926  0.00  0.00    -0.000 A 
ATOM      4  C   UNL A   1     -25.077  -0.207  27.239  0.00  0.00    -0.015 A 
ATOM      5  C   UNL A   1     -24.266  -0.122  26.150  0.00  0.00    -0.004 A 
ATOM      6  C   UNL A   1     -24.875   0.282  24.927  0.00  0.00    -0.000 A 
ENDROOT
BRANCH   1   9
ATOM      7  C   UNL A   1     -28.016  -0.814  28.878  0.00  0.00    -0.000 A 
ATOM      8  C   UNL A   1     -28.469  -0.785  29.829  0.00  0.00    -0.000 A 
ATOM      9  C   UNL A   1     -27.136   0.236  28.535  0.00  0.00    -0.000 A 
ATOM     10  C   UNL A   1     -26.875   1.282  29.398  0.00  0.00    -0.000 A 
ATOM     11  C   UNL A   1     -28.361   0.199  30.924  0.00  0.00    -0.000 A 
ATOM     12  C   UNL A   1     -27.528   1.223  30.636  0.00  0.00    -0.000 A 
ENDBRANCH   1   9
BRANCH   4  13
ATOM     13  C   UNL A   1     -24.407  -0.657  28.507  0.00  0.00    +0.063 C 
ATOM     14  C   UNL A   1     -23.455  -0.833  29.052  0.00  0.00    -0.018 C 
ATOM     15  C   UNL A   1     -23.174  -1.438  30.239  0.00  0.00    -0.004 C 
ATOM     16  C   UNL A   1     -24.395  -1.587  30.933  0.00  0.00    -0.008 C 
ATOM     17  C   UNL A   1     -25.448  -1.062  29.653  0.00  0.00    -0.029 C 
BRANCH  17  18
ATOM     18  C   UNL A   1     -25.747  -2.546  29.348  0.00  0.00    +0.095 C 
BRANCH  18  19
ATOM     19  C   UNL A   1     -25.287  -3.485  30.366  0.00  0.00    +0.212 C 
ATOM     20  O   UNL A   1     -24.769  -2.968  31.196  0.00  0.00    -0.288 OA
ENDBRANCH  18  19
ENDBRANCH  17  18
ENDBRANCH   4  13
TORSDOF 4
