MODEL 243
MODEL 1
REMARK VINA RESULT:    -7.406      0.000      0.000
REMARK INTER + INTRA:          -9.185
REMARK INTER:                  -8.705
REMARK INTRA:                  -0.480
REMARK UNBOUND:                -0.480
REMARK  Name = No_243-gen_results/8p0m/2024-11-26-14-13-15/
REMARK  3 active torsions:
REMARK  status: ('A' for Active; 'I' for Inactive)
REMARK    1  A    between atoms: C_2  and  N_7
REMARK    2  A    between atoms: C_4  and  C_15
REMARK    3  A    between atoms: N_7  and  C_8
REMARK                            x       y       z     vdW  Elec       q    Type
REMARK                         _______ _______ _______ _____ _____    ______ ____
ROOT
ATOM      1  C   UNL A   1     -22.443   0.310  28.823  0.00  0.00    +0.017 A 
ATOM      2  C   UNL A   1     -23.350  -0.478  28.690  0.00  0.00    +0.070 A 
ATOM      3  C   UNL A   1     -24.251  -0.434  27.675  0.00  0.00    +0.020 A 
ATOM      4  C   UNL A   1     -24.127   0.590  26.717  0.00  0.00    +0.073 A 
ATOM      5  C   UNL A   1     -22.200   1.323  27.829  0.00  0.00    +0.001 A 
ATOM      6  C   UNL A   1     -23.093   1.429  26.805  0.00  0.00    +0.004 A 
ENDROOT
BRANCH   4   7
ATOM      7  C   UNL A   1     -25.148   0.665  25.600  0.00  0.00    +0.419 C 
ATOM      8  F   UNL A   1     -26.156   0.052  25.635  0.00  0.00    -0.166 F 
ATOM      9  F   UNL A   1     -24.486   0.347  24.396  0.00  0.00    -0.166 F 
ATOM     10  F   UNL A   1     -25.469   2.003  25.413  0.00  0.00    -0.166 F 
ENDBRANCH   4   7
BRANCH   2  11
ATOM     11  N   UNL A   1     -23.359  -1.496  29.653  0.00  0.00    -0.212 NA
BRANCH  11  12
ATOM     12  C   UNL A   1     -24.400  -2.558  29.617  0.00  0.00    +0.073 A 
ATOM     13  C   UNL A   1     -25.676  -2.250  30.187  0.00  0.00    +0.017 A 
ATOM     14  C   UNL A   1     -24.072  -3.768  29.010  0.00  0.00    +0.046 A 
ATOM     15  C   UNL A   1     -25.073  -4.796  29.125  0.00  0.00    +0.141 A 
ATOM     16  C   UNL A   1     -26.342  -4.570  29.652  0.00  0.00    +0.030 A 
ATOM     17  C   UNL A   1     -26.616  -3.258  30.190  0.00  0.00    +0.004 A 
ATOM     18  F   UNL A   1     -24.869  -6.028  28.640  0.00  0.00    -0.204 F 
ENDBRANCH  11  12
ENDBRANCH   2  11
TORSDOF 3
ENDMDL
ENDMDL
