REMARK  Name = No_244-gen_results/8p0m/2024-11-26-14-13-15/
REMARK  2 active torsions:
REMARK  status: ('A' for Active; 'I' for Inactive)
REMARK    1  A    between atoms: C_3  and  C_4
REMARK    2  A    between atoms: C_4  and  C_8
REMARK                            x       y       z     vdW  Elec       q    Type
REMARK                         _______ _______ _______ _____ _____    ______ ____
ROOT
ATOM      1  C   UNL A   1     -25.361   0.775  26.967  0.00  0.00    +0.039 A 
ATOM      2  C   UNL A   1     -24.535   1.133  27.419  0.00  0.00    +0.003 A 
ATOM      3  C   UNL A   1     -23.304   1.838  26.905  0.00  0.00    +0.000 A 
ATOM      4  C   UNL A   1     -22.194   2.280  27.690  0.00  0.00    +0.000 A 
ATOM      5  C   UNL A   1     -22.130   1.379  28.801  0.00  0.00    +0.000 A 
ATOM      6  C   UNL A   1     -23.074   0.692  29.425  0.00  0.00    +0.000 A 
ATOM      7  C   UNL A   1     -24.159   0.459  28.803  0.00  0.00    +0.000 A 
ATOM      8  C   UNL A   1     -25.248   0.977  25.376  0.00  0.00    +0.003 A 
ATOM      9  C   UNL A   1     -23.391   2.328  25.627  0.00  0.00    +0.000 A 
ATOM     10  C   UNL A   1     -24.355   1.790  24.863  0.00  0.00    +0.000 A 
ENDROOT
BRANCH   1  11
ATOM     11  C   UNL A   1     -26.335   0.290  27.284  0.00  0.00    +0.196 C 
ATOM     12  O   UNL A   1     -27.273  -0.380  26.394  0.00  0.00    -0.287 OA
BRANCH  11  15
ATOM     13  C   UNL A   1     -28.016  -0.814  28.878  0.00  0.00    +0.003 A 
ATOM     14  C   UNL A   1     -28.469  -0.785  29.829  0.00  0.00    +0.000 A 
ATOM     15  C   UNL A   1     -27.136   0.236  28.535  0.00  0.00    +0.039 A 
ATOM     16  C   UNL A   1     -28.369   0.196  30.924  0.00  0.00    +0.000 A 
ATOM     17  C   UNL A   1     -27.516   1.266  30.654  0.00  0.00    +0.000 A 
ATOM     18  C   UNL A   1     -26.841   1.294  29.476  0.00  0.00    +0.003 A 
ENDBRANCH  11  15
ENDBRANCH   1  11
TORSDOF 2
