REMARK  Name = No_2440-gen_results/8p0m/2024-11-26-14-13-15/
REMARK  9 active torsions:
REMARK  status: ('A' for Active; 'I' for Inactive)
REMARK    1  A    between atoms: C_1  and  O_17
REMARK    2  A    between atoms: C_3  and  C_9
REMARK    3  A    between atoms: C_11  and  O_15
REMARK    4  A    between atoms: O_17  and  C_18
REMARK    5  A    between atoms: C_18  and  C_19
REMARK    6  A    between atoms: N_21  and  C_22
REMARK    7  A    between atoms: C_22  and  C_23
REMARK    8  A    between atoms: C_24  and  C_25
REMARK    9  A    between atoms: C_26  and  C_27
REMARK                            x       y       z     vdW  Elec       q    Type
REMARK                         _______ _______ _______ _____ _____    ______ ____
ROOT
ATOM      1  C   UNL A   1     -28.016  -0.814  28.878  0.00  0.00    +0.177 A 
ATOM      2  C   UNL A   1     -27.064  -0.119  28.608  0.00  0.00    +0.175 A 
ATOM      3  C   UNL A   1     -25.792  -0.430  29.076  0.00  0.00    +0.031 A 
ATOM      4  C   UNL A   1     -25.576  -1.565  29.936  0.00  0.00    +0.003 A 
ATOM      5  C   UNL A   1     -26.735  -2.300  30.217  0.00  0.00    +0.015 A 
ATOM      6  C   UNL A   1     -27.918  -1.954  29.763  0.00  0.00    +0.094 A 
ATOM      7 CL   UNL A   1     -29.268  -2.889  30.215  0.00  0.00    -0.079 Cl
ATOM      8  F   UNL A   1     -27.132   1.000  27.871  0.00  0.00    -0.201 F 
ENDROOT
BRANCH   3   9
ATOM      9  C   UNL A   1     -24.517   0.350  28.751  0.00  0.00    +0.005 A 
ATOM     10  C   UNL A   1     -24.349   1.172  27.844  0.00  0.00    +0.037 A 
ATOM     11  C   UNL A   1     -23.108   1.830  27.588  0.00  0.00    +0.139 A 
ATOM     12  C   UNL A   1     -21.950   1.373  28.266  0.00  0.00    +0.037 A 
ATOM     13  C   UNL A   1     -23.296  -0.096  29.482  0.00  0.00    +0.000 A 
ATOM     14  C   UNL A   1     -22.046   0.523  29.219  0.00  0.00    +0.003 A 
BRANCH  11  15
ATOM     15  O   UNL A   1     -23.034   2.754  26.584  0.00  0.00    -0.471 OA
ATOM     16  C   UNL A   1     -24.254   3.090  26.059  0.00  0.00    +0.253 C 
ENDBRANCH  11  15
ENDBRANCH   3   9
BRANCH   1  17
ATOM     17  O   UNL A   1     -29.346  -0.638  28.626  0.00  0.00    -0.462 OA
BRANCH  17  18
ATOM     18  C   UNL A   1     -29.928   0.533  28.964  0.00  0.00    +0.291 C 
BRANCH  18  19
ATOM     19  C   UNL A   1     -31.197   0.530  28.907  0.00  0.00    +0.286 C 
ATOM     20  O   UNL A   1     -31.829  -0.385  28.658  0.00  0.00    -0.269 OA
ATOM     21  N   UNL A   1     -31.904   1.745  29.211  0.00  0.00    -0.197 NA
BRANCH  21  22
ATOM     22  C   UNL A   1     -33.340   1.863  29.204  0.00  0.00    +0.141 C 
BRANCH  22  23
ATOM     23  C   UNL A   1     -34.052   1.235  29.802  0.00  0.00    -0.003 C 
ATOM     24  C   UNL A   1     -33.869   1.066  31.182  0.00  0.00    -0.003 C 
BRANCH  24  25
ATOM     25  C   UNL A   1     -34.755   0.208  32.036  0.00  0.00    -0.000 C 
ATOM     26  C   UNL A   1     -34.502   0.127  33.424  0.00  0.00    -0.000 C 
BRANCH  26  27
ATOM     27  C   UNL A   1     -33.373   0.759  33.967  0.00  0.00    -0.000 C 
ATOM     28  C   UNL A   1     -32.513   1.500  33.175  0.00  0.00    -0.000 C 
ENDBRANCH  26  27
ENDBRANCH  24  25
ENDBRANCH  22  23
ENDBRANCH  21  22
ENDBRANCH  18  19
ENDBRANCH  17  18
ENDBRANCH   1  17
TORSDOF 9
