MODEL 2440
MODEL 1
REMARK VINA RESULT:    -7.126      0.000      0.000
REMARK INTER + INTRA:         -11.789
REMARK INTER:                 -10.875
REMARK INTRA:                  -0.913
REMARK UNBOUND:                -0.913
REMARK  Name = No_2440-gen_results/8p0m/2024-11-26-14-13-15/
REMARK  9 active torsions:
REMARK  status: ('A' for Active; 'I' for Inactive)
REMARK    1  A    between atoms: C_1  and  O_17
REMARK    2  A    between atoms: C_3  and  C_9
REMARK    3  A    between atoms: C_11  and  O_15
REMARK    4  A    between atoms: O_17  and  C_18
REMARK    5  A    between atoms: C_18  and  C_19
REMARK    6  A    between atoms: N_21  and  C_22
REMARK    7  A    between atoms: C_22  and  C_23
REMARK    8  A    between atoms: C_24  and  C_25
REMARK    9  A    between atoms: C_26  and  C_27
REMARK                            x       y       z     vdW  Elec       q    Type
REMARK                         _______ _______ _______ _____ _____    ______ ____
ROOT
ATOM      1  C   UNL A   1     -23.854   0.657  27.741  0.00  0.00    +0.177 A 
ATOM      2  C   UNL A   1     -24.533  -0.329  27.913  0.00  0.00    +0.175 A 
ATOM      3  C   UNL A   1     -24.036  -1.433  28.597  0.00  0.00    +0.031 A 
ATOM      4  C   UNL A   1     -22.680  -1.455  29.083  0.00  0.00    +0.003 A 
ATOM      5  C   UNL A   1     -21.958  -0.284  28.820  0.00  0.00    +0.015 A 
ATOM      6  C   UNL A   1     -22.469   0.726  28.154  0.00  0.00    +0.094 A 
ATOM      7 CL   UNL A   1     -21.481   2.078  27.842  0.00  0.00    -0.079 Cl
ATOM      8  F   UNL A   1     -25.788  -0.468  27.460  0.00  0.00    -0.201 F 
ENDROOT
BRANCH   3   9
ATOM      9  C   UNL A   1     -24.826  -2.704  28.913  0.00  0.00    +0.005 A 
ATOM     10  C   UNL A   1     -25.901  -2.791  29.517  0.00  0.00    +0.037 A 
ATOM     11  C   UNL A   1     -26.554  -4.028  29.802  0.00  0.00    +0.139 A 
ATOM     12  C   UNL A   1     -25.846  -5.233  29.572  0.00  0.00    +0.037 A 
ATOM     13  C   UNL A   1     -24.107  -3.982  28.644  0.00  0.00    +0.000 A 
ATOM     14  C   UNL A   1     -24.726  -5.223  28.951  0.00  0.00    +0.003 A 
BRANCH  11  15
ATOM     15  O   UNL A   1     -27.762  -4.016  30.442  0.00  0.00    -0.471 OA
ATOM     16  C   UNL A   1     -28.095  -2.791  30.958  0.00  0.00    +0.253 C 
ENDBRANCH  11  15
ENDBRANCH   3   9
BRANCH   1  17
ATOM     17  O   UNL A   1     -24.094   1.787  27.014  0.00  0.00    -0.462 OA
BRANCH  17  18
ATOM     18  C   UNL A   1     -24.588   1.669  25.763  0.00  0.00    +0.291 C 
BRANCH  18  19
ATOM     19  C   UNL A   1     -25.686   2.277  25.568  0.00  0.00    +0.286 C 
ATOM     20  O   UNL A   1     -25.928   3.317  25.968  0.00  0.00    -0.269 OA
ATOM     21  N   UNL A   1     -26.691   1.644  24.757  0.00  0.00    -0.197 NA
BRANCH  21  22
ATOM     22  C   UNL A   1     -27.965   2.240  24.444  0.00  0.00    +0.141 C 
BRANCH  22  23
ATOM     23  C   UNL A   1     -28.705   1.849  23.696  0.00  0.00    -0.003 C 
ATOM     24  C   UNL A   1     -30.068   1.768  24.017  0.00  0.00    -0.003 C 
BRANCH  24  25
ATOM     25  C   UNL A   1     -31.106   1.217  23.084  0.00  0.00    -0.000 C 
ATOM     26  C   UNL A   1     -31.409  -0.163  23.131  0.00  0.00    -0.000 C 
BRANCH  26  27
ATOM     27  C   UNL A   1     -30.669  -1.013  23.966  0.00  0.00    -0.000 C 
ATOM     28  C   UNL A   1     -29.499  -1.610  23.529  0.00  0.00    -0.000 C 
ENDBRANCH  26  27
ENDBRANCH  24  25
ENDBRANCH  22  23
ENDBRANCH  21  22
ENDBRANCH  18  19
ENDBRANCH  17  18
ENDBRANCH   1  17
TORSDOF 9
ENDMDL
ENDMDL
