REMARK  Name = No_2441-gen_results/8p0m/2024-11-26-14-13-15/
REMARK  1 active torsions:
REMARK  status: ('A' for Active; 'I' for Inactive)
REMARK    1  A    between atoms: C_11  and  C_12
REMARK                            x       y       z     vdW  Elec       q    Type
REMARK                         _______ _______ _______ _____ _____    ______ ____
ROOT
ATOM      1  O   UNL A   1     -28.123  -1.335  28.487  0.00  0.00    -0.268 OA
ATOM      2  C   UNL A   1     -27.064  -0.824  28.869  0.00  0.00    +0.265 C 
ATOM      3  C   UNL A   1     -26.402  -0.062  28.622  0.00  0.00    +0.051 A 
ATOM      4  N   UNL A   1     -26.572  -1.584  30.117  0.00  0.00    -0.201 NA
ATOM      5  C   UNL A   1     -25.021   0.356  29.044  0.00  0.00    -0.010 A 
ATOM      6  C   UNL A   1     -24.654  -0.347  30.252  0.00  0.00    +0.050 C 
ATOM      7  C   UNL A   1     -25.424  -1.343  30.697  0.00  0.00    +0.120 C 
ATOM      8  C   UNL A   1     -26.699   0.815  27.343  0.00  0.00    +0.004 A 
ATOM      9  C   UNL A   1     -25.821   1.553  26.717  0.00  0.00    +0.000 A 
ATOM     10  C   UNL A   1     -24.553   1.919  27.330  0.00  0.00    +0.006 A 
ATOM     11  C   UNL A   1     -24.113   1.242  28.459  0.00  0.00    +0.076 A 
ENDROOT
BRANCH  11  12
ATOM     12  C   UNL A   1     -22.781   1.512  28.953  0.00  0.00    +0.387 C 
ATOM     13  O   UNL A   1     -21.881   1.910  28.098  0.00  0.00    -0.241 OA
ATOM     14  O   UNL A   1     -22.553   1.568  30.216  0.00  0.00    -0.241 OA
ENDBRANCH  11  12
TORSDOF 1
