MODEL 2441
MODEL 1
REMARK VINA RESULT:    -5.533      0.000      0.000
REMARK INTER + INTRA:          -5.962
REMARK INTER:                  -5.856
REMARK INTRA:                  -0.105
REMARK UNBOUND:                -0.105
REMARK  Name = No_2441-gen_results/8p0m/2024-11-26-14-13-15/
REMARK  1 active torsions:
REMARK  status: ('A' for Active; 'I' for Inactive)
REMARK    1  A    between atoms: C_11  and  C_12
REMARK                            x       y       z     vdW  Elec       q    Type
REMARK                         _______ _______ _______ _____ _____    ______ ____
ROOT
ATOM      1  O   UNL A   1     -28.338  -4.853  30.661  0.00  0.00    -0.268 OA
ATOM      2  C   UNL A   1     -27.572  -3.909  30.437  0.00  0.00    +0.265 C 
ATOM      3  C   UNL A   1     -26.666  -3.700  29.973  0.00  0.00    +0.051 A 
ATOM      4  N   UNL A   1     -28.166  -2.633  31.066  0.00  0.00    -0.201 NA
ATOM      5  C   UNL A   1     -25.713  -2.538  29.927  0.00  0.00    -0.010 A 
ATOM      6  C   UNL A   1     -26.358  -1.365  30.472  0.00  0.00    +0.050 C 
ATOM      7  C   UNL A   1     -27.539  -1.484  31.084  0.00  0.00    +0.120 C 
ATOM      8  C   UNL A   1     -25.867  -4.884  29.301  0.00  0.00    +0.004 A 
ATOM      9  C   UNL A   1     -24.597  -4.856  28.996  0.00  0.00    +0.000 A 
ATOM     10  C   UNL A   1     -23.853  -3.607  28.928  0.00  0.00    +0.006 A 
ATOM     11  C   UNL A   1     -24.390  -2.455  29.486  0.00  0.00    +0.076 A 
ENDROOT
BRANCH  11  12
ATOM     12  C   UNL A   1     -23.567  -1.268  29.549  0.00  0.00    +0.387 C 
ATOM     13  O   UNL A   1     -22.896  -1.047  30.645  0.00  0.00    -0.241 OA
ATOM     14  O   UNL A   1     -23.335  -0.577  28.491  0.00  0.00    -0.241 OA
ENDBRANCH  11  12
TORSDOF 1
ENDMDL
ENDMDL
