REMARK  Name = No_2442-gen_results/8p0m/2024-11-26-14-13-15/
REMARK  5 active torsions:
REMARK  status: ('A' for Active; 'I' for Inactive)
REMARK    1  A    between atoms: C_1  and  C_2
REMARK    2  A    between atoms: C_1  and  C_5
REMARK    3  A    between atoms: C_5  and  C_6
REMARK    4  A    between atoms: C_8  and  C_9
REMARK    5  A    between atoms: C_10  and  C_11
REMARK                            x       y       z     vdW  Elec       q    Type
REMARK                         _______ _______ _______ _____ _____    ______ ____
ROOT
ATOM      1  C   UNL A   1     -28.667  -0.352  30.200  0.00  0.00    +0.036 C 
ENDROOT
BRANCH   1   2
ATOM      2  C   UNL A   1     -28.413   0.282  30.931  0.00  0.00    -0.026 C 
ATOM      3  C   UNL A   1     -28.440   0.852  31.844  0.00  0.00    -0.005 C 
BRANCH   3   4
ATOM      4  C   UNL A   1     -28.835   0.864  33.091  0.00  0.00    -0.000 C 
ATOM      5  C   UNL A   1     -28.642   1.829  34.143  0.00  0.00    -0.000 C 
BRANCH   5   6
ATOM      6  C   UNL A   1     -27.873   2.962  33.818  0.00  0.00    -0.000 C 
ATOM      7  C   UNL A   1     -27.293   3.079  32.535  0.00  0.00    -0.000 C 
ENDBRANCH   5   6
ENDBRANCH   3   4
ENDBRANCH   1   2
BRANCH   1   8
ATOM      8  C   UNL A   1     -28.016  -0.814  28.878  0.00  0.00    +0.091 C 
BRANCH   8   9
ATOM      9  C   UNL A   1     -27.064  -0.119  28.608  0.00  0.00    +0.242 C 
ATOM     10  O   UNL A   1     -25.859  -0.406  28.904  0.00  0.00    -0.273 OA
ATOM     11  N   UNL A   1     -27.183   1.038  27.743  0.00  0.00    -0.203 NA
ATOM     12  C   UNL A   1     -26.065   1.696  27.175  0.00  0.00    +0.139 C 
ENDBRANCH   8   9
ENDBRANCH   1   8
TORSDOF 5
