MODEL 2443
MODEL 1
REMARK VINA RESULT:    -6.104      0.000      0.000
REMARK INTER + INTRA:          -8.229
REMARK INTER:                  -7.531
REMARK INTRA:                  -0.698
REMARK UNBOUND:                -0.698
REMARK  Name = No_2443-gen_results/8p0m/2024-11-26-14-13-15/
REMARK  4 active torsions:
REMARK  status: ('A' for Active; 'I' for Inactive)
REMARK    1  A    between atoms: C_3  and  C_11
REMARK    2  A    between atoms: C_7  and  C_8
REMARK    3  A    between atoms: C_11  and  N_12
REMARK    4  A    between atoms: N_12  and  C_13
REMARK                            x       y       z     vdW  Elec       q    Type
REMARK                         _______ _______ _______ _____ _____    ______ ____
ROOT
ATOM      1  O   UNL A   1     -26.717 -12.672  33.579  0.00  0.00    -0.273 OA
ATOM      2  C   UNL A   1     -27.289 -11.592  33.764  0.00  0.00    +0.243 C 
ATOM      3  C   UNL A   1     -28.200 -11.095  33.012  0.00  0.00    +0.100 C 
ATOM      4  N   UNL A   1     -26.815 -10.667  34.780  0.00  0.00    -0.205 NA
ATOM      5  C   UNL A   1     -28.895  -9.834  33.193  0.00  0.00    +0.023 C 
ATOM      6  C   UNL A   1     -27.390  -9.453  35.059  0.00  0.00    +0.126 C 
ATOM      7  C   UNL A   1     -28.416  -8.990  34.283  0.00  0.00    +0.126 C 
ATOM      8  C   UNL A   1     -30.486 -10.080  33.506  0.00  0.00    +0.001 C 
ENDROOT
BRANCH   7   9
ATOM      9  C   UNL A   1     -28.997  -7.701  34.545  0.00  0.00    +0.366 C 
ATOM     10  O   UNL A   1     -29.204  -7.344  35.756  0.00  0.00    -0.246 OA
ATOM     11  O   UNL A   1     -29.217  -6.852  33.585  0.00  0.00    -0.246 OA
ENDBRANCH   7   9
BRANCH   3  12
ATOM     12  C   UNL A   1     -28.807 -11.968  31.963  0.00  0.00    +0.121 C 
BRANCH  12  13
ATOM     13  N   UNL A   1     -28.429 -11.985  30.843  0.00  0.00    -0.236 NA
BRANCH  13  14
ATOM     14  C   UNL A   1     -29.048 -11.604  29.895  0.00  0.00    +0.082 A 
ATOM     15  C   UNL A   1     -30.067 -10.453  29.907  0.00  0.00    +0.018 A 
ATOM     16  C   UNL A   1     -30.749 -10.046  28.861  0.00  0.00    +0.001 A 
ATOM     17  C   UNL A   1     -30.583 -10.620  27.569  0.00  0.00    +0.002 A 
ATOM     18  C   UNL A   1     -29.685 -11.649  27.505  0.00  0.00    +0.019 A 
ATOM     19  C   UNL A   1     -29.086 -11.980  28.551  0.00  0.00    +0.104 A 
ATOM     20  N   UNL A   1     -29.662 -13.436  28.812  0.00  0.00    -0.127 NA
ENDBRANCH  13  14
ENDBRANCH  12  13
ENDBRANCH   3  12
TORSDOF 4
ENDMDL
ENDMDL
