REMARK  Name = No_2444-gen_results/8p0m/2024-11-26-14-13-15/
REMARK  5 active torsions:
REMARK  status: ('A' for Active; 'I' for Inactive)
REMARK    1  A    between atoms: C_1  and  C_3
REMARK    2  A    between atoms: C_3  and  C_4
REMARK    3  A    between atoms: C_5  and  C_6
REMARK    4  A    between atoms: C_6  and  C_7
REMARK    5  A    between atoms: C_8  and  C_9
REMARK                            x       y       z     vdW  Elec       q    Type
REMARK                         _______ _______ _______ _____ _____    ______ ____
ROOT
ATOM      1  C   UNL A   1     -25.762  -0.002  27.971  0.00  0.00    -0.030 C 
ATOM      2  C   UNL A   1     -24.391   0.120  28.138  0.00  0.00    -0.026 C 
ENDROOT
BRANCH   1   3
ATOM      3  C   UNL A   1     -26.504  -0.778  28.877  0.00  0.00    +0.026 C 
BRANCH   3   4
ATOM      4  C   UNL A   1     -28.016  -0.814  28.878  0.00  0.00    +0.005 C 
ATOM      5  C   UNL A   1     -28.469  -0.785  29.829  0.00  0.00    +0.000 C 
ENDBRANCH   3   4
ENDBRANCH   1   3
BRANCH   2   6
ATOM      6  C   UNL A   1     -23.545   1.026  27.382  0.00  0.00    +0.052 C 
BRANCH   6   7
ATOM      7  C   UNL A   1     -22.225   1.324  27.784  0.00  0.00    -0.021 C 
ATOM      8  C   UNL A   1     -21.576   0.457  28.681  0.00  0.00    -0.004 C 
BRANCH   8   9
ATOM      9  C   UNL A   1     -22.324  -0.562  29.316  0.00  0.00    -0.000 C 
ATOM     10  C   UNL A   1     -23.660  -0.673  29.084  0.00  0.00    -0.000 C 
ENDBRANCH   8   9
ENDBRANCH   6   7
ENDBRANCH   2   6
TORSDOF 5
