MODEL 2444
MODEL 1
REMARK VINA RESULT:    -5.030      0.000      0.000
REMARK INTER + INTRA:          -6.800
REMARK INTER:                  -6.500
REMARK INTRA:                  -0.300
REMARK UNBOUND:                -0.300
REMARK  Name = No_2444-gen_results/8p0m/2024-11-26-14-13-15/
REMARK  5 active torsions:
REMARK  status: ('A' for Active; 'I' for Inactive)
REMARK    1  A    between atoms: C_1  and  C_3
REMARK    2  A    between atoms: C_3  and  C_4
REMARK    3  A    between atoms: C_5  and  C_6
REMARK    4  A    between atoms: C_6  and  C_7
REMARK    5  A    between atoms: C_8  and  C_9
REMARK                            x       y       z     vdW  Elec       q    Type
REMARK                         _______ _______ _______ _____ _____    ______ ____
ROOT
ATOM      1  C   UNL A   1     -24.063  -2.186  28.692  0.00  0.00    -0.030 C 
ATOM      2  C   UNL A   1     -23.132  -1.336  29.268  0.00  0.00    -0.026 C 
ENDROOT
BRANCH   1   3
ATOM      3  C   UNL A   1     -24.350  -3.417  29.305  0.00  0.00    +0.026 C 
BRANCH   3   4
ATOM      4  C   UNL A   1     -24.177  -4.744  28.599  0.00  0.00    +0.005 C 
ATOM      5  C   UNL A   1     -24.794  -5.524  28.944  0.00  0.00    +0.000 C 
ENDBRANCH   3   4
ENDBRANCH   1   3
BRANCH   2   6
ATOM      6  C   UNL A   1     -22.879   0.026  28.834  0.00  0.00    +0.052 C 
BRANCH   6   7
ATOM      7  C   UNL A   1     -21.627   0.423  28.315  0.00  0.00    -0.021 C 
ATOM      8  C   UNL A   1     -21.568   1.546  27.470  0.00  0.00    -0.004 C 
BRANCH   8   9
ATOM      9  C   UNL A   1     -22.773   2.115  26.996  0.00  0.00    -0.000 C 
ATOM     10  C   UNL A   1     -22.965   2.291  25.661  0.00  0.00    -0.000 C 
ENDBRANCH   8   9
ENDBRANCH   6   7
ENDBRANCH   2   6
TORSDOF 5
ENDMDL
ENDMDL
