MODEL 2445
MODEL 1
REMARK VINA RESULT:    -5.581      0.000      0.000
REMARK INTER + INTRA:          -7.784
REMARK INTER:                  -7.213
REMARK INTRA:                  -0.571
REMARK UNBOUND:                -0.571
REMARK  Name = No_2445-gen_results/8p0m/2024-11-26-14-13-15/
REMARK  5 active torsions:
REMARK  status: ('A' for Active; 'I' for Inactive)
REMARK    1  A    between atoms: C_6  and  O_8
REMARK    2  A    between atoms: O_8  and  C_9
REMARK    3  A    between atoms: C_9  and  C_10
REMARK    4  A    between atoms: C_11  and  C_12
REMARK    5  A    between atoms: C_13  and  C_14
REMARK                            x       y       z     vdW  Elec       q    Type
REMARK                         _______ _______ _______ _____ _____    ______ ____
ROOT
ATOM      1  O   UNL A   1     -22.865  -0.684  30.111  0.00  0.00    -0.471 OA
ENDROOT
BRANCH   1   7
ATOM      2  C   UNL A   1     -24.883  -3.586  29.349  0.00  0.00    +0.015 A 
ATOM      3  C   UNL A   1     -25.927  -3.355  29.914  0.00  0.00    +0.058 A 
ATOM      4  C   UNL A   1     -26.142  -2.267  30.696  0.00  0.00    +0.015 A 
ATOM      5  C   UNL A   1     -25.089  -1.348  30.866  0.00  0.00    +0.038 A 
ATOM      6  C   UNL A   1     -23.797  -2.641  29.400  0.00  0.00    +0.038 A 
ATOM      7  C   UNL A   1     -23.951  -1.546  30.197  0.00  0.00    +0.139 A 
ATOM      8 CL   UNL A   1     -27.304  -4.413  29.756  0.00  0.00    -0.082 Cl
ENDBRANCH   1   7
BRANCH   1   9
ATOM      9  C   UNL A   1     -21.960  -0.708  29.536  0.00  0.00    +0.232 C 
BRANCH   9  10
ATOM     10  C   UNL A   1     -21.553   0.183  28.510  0.00  0.00    +0.021 C 
ATOM     11  C   UNL A   1     -22.558   0.940  27.941  0.00  0.00    -0.001 C 
BRANCH  11  12
ATOM     12  C   UNL A   1     -22.260   1.930  26.914  0.00  0.00    -0.000 C 
ATOM     13  C   UNL A   1     -23.189   2.206  25.864  0.00  0.00    -0.000 C 
BRANCH  13  14
ATOM     14  C   UNL A   1     -24.410   1.477  25.872  0.00  0.00    -0.000 C 
ATOM     15  C   UNL A   1     -24.714   0.522  24.885  0.00  0.00    -0.000 C 
ENDBRANCH  13  14
ENDBRANCH  11  12
ENDBRANCH   9  10
ENDBRANCH   1   9
TORSDOF 5
ENDMDL
ENDMDL
