REMARK  Name = No_2445-gen_results/8p0m/2024-11-26-14-13-15/
REMARK  5 active torsions:
REMARK  status: ('A' for Active; 'I' for Inactive)
REMARK    1  A    between atoms: C_6  and  O_8
REMARK    2  A    between atoms: O_8  and  C_9
REMARK    3  A    between atoms: C_9  and  C_10
REMARK    4  A    between atoms: C_11  and  C_12
REMARK    5  A    between atoms: C_13  and  C_14
REMARK                            x       y       z     vdW  Elec       q    Type
REMARK                         _______ _______ _______ _____ _____    ______ ____
ROOT
ATOM      1  O   UNL A   1     -30.006   1.300  31.033  0.00  0.00    -0.471 OA
ENDROOT
BRANCH   1   7
ATOM      2  C   UNL A   1     -28.016  -0.814  28.878  0.00  0.00    +0.015 A 
ATOM      3  C   UNL A   1     -27.064  -0.119  28.608  0.00  0.00    +0.058 A 
ATOM      4  C   UNL A   1     -26.929   1.171  29.008  0.00  0.00    +0.015 A 
ATOM      5  C   UNL A   1     -27.956   1.741  29.784  0.00  0.00    +0.038 A 
ATOM      6  C   UNL A   1     -29.057  -0.327  29.747  0.00  0.00    +0.038 A 
ATOM      7  C   UNL A   1     -28.983   0.972  30.152  0.00  0.00    +0.139 A 
ATOM      8 CL   UNL A   1     -25.725  -0.728  27.673  0.00  0.00    -0.082 Cl
ENDBRANCH   1   7
BRANCH   1   9
ATOM      9  C   UNL A   1     -31.074   1.235  30.966  0.00  0.00    +0.232 C 
BRANCH   9  10
ATOM     10  C   UNL A   1     -32.042   1.883  31.776  0.00  0.00    +0.021 C 
ATOM     11  C   UNL A   1     -31.540   2.699  32.770  0.00  0.00    -0.001 C 
BRANCH  11  12
ATOM     12  C   UNL A   1     -32.433   3.461  33.634  0.00  0.00    -0.000 C 
ATOM     13  C   UNL A   1     -31.918   4.304  34.667  0.00  0.00    -0.000 C 
BRANCH  13  14
ATOM     14  C   UNL A   1     -30.504   4.364  34.808  0.00  0.00    -0.000 C 
ATOM     15  C   UNL A   1     -29.640   3.631  33.976  0.00  0.00    -0.000 C 
ENDBRANCH  13  14
ENDBRANCH  11  12
ENDBRANCH   9  10
ENDBRANCH   1   9
TORSDOF 5
