MODEL 2446
MODEL 1
REMARK VINA RESULT:    -6.620      0.000      0.000
REMARK INTER + INTRA:          -7.347
REMARK INTER:                  -7.007
REMARK INTRA:                  -0.339
REMARK UNBOUND:                -0.339
REMARK  Name = No_2446-gen_results/8p0m/2024-11-26-14-13-15/
REMARK  1 active torsions:
REMARK  status: ('A' for Active; 'I' for Inactive)
REMARK    1  A    between atoms: C_4  and  C_7
REMARK                            x       y       z     vdW  Elec       q    Type
REMARK                         _______ _______ _______ _____ _____    ______ ____
ROOT
ATOM      1  C   UNL A   1     -26.452  -3.843  29.877  0.00  0.00    +0.000 A 
ATOM      2  C   UNL A   1     -26.195  -4.815  29.559  0.00  0.00    +0.000 A 
ATOM      3  C   UNL A   1     -25.750  -2.674  29.547  0.00  0.00    +0.000 A 
ATOM      4  C   UNL A   1     -24.445  -2.795  29.070  0.00  0.00    +0.000 A 
ATOM      5  C   UNL A   1     -24.851  -5.170  28.991  0.00  0.00    +0.000 A 
ATOM      6  C   UNL A   1     -24.076  -4.083  28.728  0.00  0.00    +0.000 A 
ENDROOT
BRANCH   4   7
ATOM      7  C   UNL A   1     -23.683  -1.606  28.801  0.00  0.00    +0.000 A 
ATOM      8  C   UNL A   1     -22.674  -1.242  29.216  0.00  0.00    +0.000 A 
ATOM      9  C   UNL A   1     -21.943   0.035  28.866  0.00  0.00    +0.000 A 
ATOM     10  C   UNL A   1     -22.567   0.907  27.971  0.00  0.00    +0.000 A 
ATOM     11  C   UNL A   1     -23.794   0.552  27.482  0.00  0.00    +0.000 A 
ATOM     12  C   UNL A   1     -24.402  -0.624  27.852  0.00  0.00    +0.000 A 
ENDBRANCH   4   7
TORSDOF 1
ENDMDL
ENDMDL
