REMARK  Name = No_2446-gen_results/8p0m/2024-11-26-14-13-15/
REMARK  1 active torsions:
REMARK  status: ('A' for Active; 'I' for Inactive)
REMARK    1  A    between atoms: C_4  and  C_7
REMARK                            x       y       z     vdW  Elec       q    Type
REMARK                         _______ _______ _______ _____ _____    ______ ____
ROOT
ATOM      1  C   UNL A   1     -28.016  -0.814  28.878  0.00  0.00    +0.000 A 
ATOM      2  C   UNL A   1     -28.469  -0.785  29.829  0.00  0.00    +0.000 A 
ATOM      3  C   UNL A   1     -28.192   0.147  27.871  0.00  0.00    +0.000 A 
ATOM      4  C   UNL A   1     -29.282   1.012  27.961  0.00  0.00    +0.000 A 
ATOM      5  C   UNL A   1     -29.644   0.090  30.159  0.00  0.00    +0.000 A 
ATOM      6  C   UNL A   1     -29.930   0.993  29.182  0.00  0.00    +0.000 A 
ENDROOT
BRANCH   4   7
ATOM      7  C   UNL A   1     -29.523   1.951  26.900  0.00  0.00    +0.000 A 
ATOM      8  C   UNL A   1     -29.310   1.891  25.771  0.00  0.00    +0.000 A 
ATOM      9  C   UNL A   1     -29.605   2.941  24.723  0.00  0.00    +0.000 A 
ATOM     10  C   UNL A   1     -30.161   4.145  25.160  0.00  0.00    +0.000 A 
ATOM     11  C   UNL A   1     -30.390   4.296  26.500  0.00  0.00    +0.000 A 
ATOM     12  C   UNL A   1     -30.088   3.299  27.396  0.00  0.00    +0.000 A 
ENDBRANCH   4   7
TORSDOF 1
