REMARK  Name = No_2447-gen_results/8p0m/2024-11-26-14-13-15/
REMARK  7 active torsions:
REMARK  status: ('A' for Active; 'I' for Inactive)
REMARK    1  A    between atoms: C_3  and  C_11
REMARK    2  A    between atoms: C_7  and  C_8
REMARK    3  A    between atoms: C_15  and  C_17
REMARK    4  A    between atoms: C_17  and  O_19
REMARK    5  A    between atoms: O_19  and  C_20
REMARK    6  A    between atoms: C_22  and  C_29
REMARK    7  A    between atoms: C_24  and  C_26
REMARK                            x       y       z     vdW  Elec       q    Type
REMARK                         _______ _______ _______ _____ _____    ______ ____
ROOT
ATOM      1  C   UNL A   1     -28.202   0.656  30.358  0.00  0.00    -0.014 A 
ATOM      2  C   UNL A   1     -28.765   0.052  31.284  0.00  0.00    -0.004 A 
ATOM      3  C   UNL A   1     -30.006   0.551  31.945  0.00  0.00    -0.000 A 
ATOM      4  C   UNL A   1     -30.492   1.770  31.451  0.00  0.00    +0.006 A 
ATOM      5  C   UNL A   1     -29.813   2.401  30.422  0.00  0.00    +0.076 A 
ATOM      6  C   UNL A   1     -28.622   1.923  29.885  0.00  0.00    +0.003 A 
ENDROOT
BRANCH   1   9
ATOM      7  O   UNL A   1     -28.123  -1.335  28.487  0.00  0.00    -0.273 OA
ATOM      8  C   UNL A   1     -27.064  -0.824  28.869  0.00  0.00    +0.245 C 
ATOM      9  C   UNL A   1     -26.959   0.093  29.758  0.00  0.00    +0.101 C 
ATOM     10  N   UNL A   1     -25.801  -1.357  28.397  0.00  0.00    -0.205 NA
ATOM     11  C   UNL A   1     -25.737   0.724  30.210  0.00  0.00    +0.025 C 
ATOM     12  C   UNL A   1     -24.549  -0.860  28.787  0.00  0.00    +0.124 C 
ATOM     13  C   UNL A   1     -24.515   0.188  29.698  0.00  0.00    +0.102 C 
BRANCH  13  14
ATOM     14  C   UNL A   1     -23.221   0.733  30.047  0.00  0.00    +0.262 C 
ATOM     15  O   UNL A   1     -23.161   1.677  30.718  0.00  0.00    -0.272 OA
ATOM     16  N   UNL A   1     -22.070   0.084  29.646  0.00  0.00    -0.088 NA
ENDBRANCH  13  14
ENDBRANCH   1   9
BRANCH   5  17
ATOM     17  C   UNL A   1     -30.315   3.728  29.924  0.00  0.00    +0.346 C 
ATOM     18  O   UNL A   1     -30.354   4.063  28.899  0.00  0.00    -0.244 OA
BRANCH  17  19
ATOM     19  O   UNL A   1     -30.731   4.519  30.958  0.00  0.00    -0.421 OA
BRANCH  19  20
ATOM     20  C   UNL A   1     -30.851   5.801  30.799  0.00  0.00    +0.149 A 
ATOM     21  C   UNL A   1     -29.785   6.571  30.933  0.00  0.00    +0.042 A 
ATOM     22  C   UNL A   1     -29.857   7.987  30.709  0.00  0.00    +0.075 A 
ATOM     23  C   UNL A   1     -31.116   8.537  30.420  0.00  0.00    +0.011 A 
ATOM     24  C   UNL A   1     -32.199   7.684  30.323  0.00  0.00    +0.083 A 
ATOM     25  C   UNL A   1     -32.077   6.295  30.509  0.00  0.00    +0.044 A 
BRANCH  22  26
ATOM     26  C   UNL A   1     -28.662   8.810  30.863  0.00  0.00    +0.419 C 
ATOM     27  F   UNL A   1     -28.776   9.830  31.482  0.00  0.00    -0.166 F 
ATOM     28  F   UNL A   1     -27.736   8.075  31.508  0.00  0.00    -0.166 F 
ATOM     29  F   UNL A   1     -28.250   9.023  29.604  0.00  0.00    -0.166 F 
ENDBRANCH  22  26
BRANCH  24  30
ATOM     30  C   UNL A   1     -33.529   8.244  29.996  0.00  0.00    +0.388 C 
ATOM     31  O   UNL A   1     -33.885   8.627  29.038  0.00  0.00    -0.241 OA
ATOM     32  O   UNL A   1     -34.483   7.814  30.954  0.00  0.00    -0.241 OA
ENDBRANCH  24  30
ENDBRANCH  19  20
ENDBRANCH  17  19
ENDBRANCH   5  17
TORSDOF 7
