MODEL 2447
MODEL 1
REMARK VINA RESULT:    -7.922      0.000      0.000
REMARK INTER + INTRA:         -12.650
REMARK INTER:                 -11.164
REMARK INTRA:                  -1.486
REMARK UNBOUND:                -1.486
REMARK  Name = No_2447-gen_results/8p0m/2024-11-26-14-13-15/
REMARK  7 active torsions:
REMARK  status: ('A' for Active; 'I' for Inactive)
REMARK    1  A    between atoms: C_3  and  C_11
REMARK    2  A    between atoms: C_7  and  C_8
REMARK    3  A    between atoms: C_15  and  C_17
REMARK    4  A    between atoms: C_17  and  O_19
REMARK    5  A    between atoms: O_19  and  C_20
REMARK    6  A    between atoms: C_22  and  C_29
REMARK    7  A    between atoms: C_24  and  C_26
REMARK                            x       y       z     vdW  Elec       q    Type
REMARK                         _______ _______ _______ _____ _____    ______ ____
ROOT
ATOM      1  C   UNL A   1     -11.900  -1.167  40.099  0.00  0.00    -0.014 A 
ATOM      2  C   UNL A   1     -12.243  -2.279  39.670  0.00  0.00    -0.004 A 
ATOM      3  C   UNL A   1     -11.932  -2.749  38.288  0.00  0.00    -0.000 A 
ATOM      4  C   UNL A   1     -11.229  -1.832  37.494  0.00  0.00    +0.006 A 
ATOM      5  C   UNL A   1     -10.884  -0.601  38.028  0.00  0.00    +0.076 A 
ATOM      6  C   UNL A   1     -11.256  -0.189  39.303  0.00  0.00    +0.003 A 
ENDROOT
BRANCH   1   9
ATOM      7  O   UNL A   1     -10.233  -1.332  42.259  0.00  0.00    -0.273 OA
ATOM      8  C   UNL A   1     -11.372  -0.875  42.410  0.00  0.00    +0.245 C 
ATOM      9  C   UNL A   1     -12.259  -0.770  41.491  0.00  0.00    +0.101 C 
ATOM     10  N   UNL A   1     -11.836  -0.533  43.740  0.00  0.00    -0.205 NA
ATOM     11  C   UNL A   1     -13.591  -0.222  41.632  0.00  0.00    +0.025 C 
ATOM     12  C   UNL A   1     -13.115  -0.028  44.016  0.00  0.00    +0.124 C 
ATOM     13  C   UNL A   1     -13.999   0.130  42.956  0.00  0.00    +0.102 C 
BRANCH  13  14
ATOM     14  C   UNL A   1     -15.294   0.709  43.243  0.00  0.00    +0.262 C 
ATOM     15  O   UNL A   1     -15.498   1.817  42.969  0.00  0.00    -0.272 OA
ATOM     16  N   UNL A   1     -16.299  -0.080  43.765  0.00  0.00    -0.088 NA
ENDBRANCH  13  14
ENDBRANCH   1   9
BRANCH   5  17
ATOM     17  C   UNL A   1     -10.166   0.394  37.159  0.00  0.00    +0.346 C 
ATOM     18  O   UNL A   1      -9.308   0.207  36.532  0.00  0.00    -0.244 OA
BRANCH  17  19
ATOM     19  O   UNL A   1     -10.733   1.634  37.254  0.00  0.00    -0.421 OA
BRANCH  19  20
ATOM     20  C   UNL A   1     -11.799   1.924  36.574  0.00  0.00    +0.149 A 
ATOM     21  C   UNL A   1     -12.822   2.493  37.187  0.00  0.00    +0.042 A 
ATOM     22  C   UNL A   1     -13.998   2.886  36.464  0.00  0.00    +0.075 A 
ATOM     23  C   UNL A   1     -14.057   2.573  35.097  0.00  0.00    +0.011 A 
ATOM     24  C   UNL A   1     -12.968   1.950  34.519  0.00  0.00    +0.083 A 
ATOM     25  C   UNL A   1     -11.816   1.619  35.255  0.00  0.00    +0.044 A 
BRANCH  22  26
ATOM     26  C   UNL A   1     -15.110   3.514  37.170  0.00  0.00    +0.419 C 
ATOM     27  F   UNL A   1     -15.405   3.062  38.240  0.00  0.00    -0.166 F 
ATOM     28  F   UNL A   1     -14.790   4.806  37.377  0.00  0.00    -0.166 F 
ATOM     29  F   UNL A   1     -16.126   3.452  36.296  0.00  0.00    -0.166 F 
ENDBRANCH  22  26
BRANCH  24  30
ATOM     30  C   UNL A   1     -13.003   1.633  33.074  0.00  0.00    +0.388 C 
ATOM     31  O   UNL A   1     -13.679   2.025  32.311  0.00  0.00    -0.241 OA
ATOM     32  O   UNL A   1     -11.754   1.097  32.666  0.00  0.00    -0.241 OA
ENDBRANCH  24  30
ENDBRANCH  19  20
ENDBRANCH  17  19
ENDBRANCH   5  17
TORSDOF 7
ENDMDL
ENDMDL
