REMARK  Name = No_2448-gen_results/8p0m/2024-11-26-14-13-15/
REMARK  9 active torsions:
REMARK  status: ('A' for Active; 'I' for Inactive)
REMARK    1  A    between atoms: C_2  and  N_11
REMARK    2  A    between atoms: C_4  and  C_5
REMARK    3  A    between atoms: N_11  and  C_12
REMARK    4  A    between atoms: N_11  and  C_21
REMARK    5  A    between atoms: C_13  and  C_16
REMARK    6  A    between atoms: C_21  and  C_22
REMARK    7  A    between atoms: C_23  and  C_24
REMARK    8  A    between atoms: C_25  and  C_26
REMARK    9  A    between atoms: C_27  and  C_28
REMARK                            x       y       z     vdW  Elec       q    Type
REMARK                         _______ _______ _______ _____ _____    ______ ____
ROOT
ATOM      1  N   UNL A   1     -25.884  -0.615  27.950  0.00  0.00    -0.268 N 
ENDROOT
BRANCH   1   3
ATOM      2  C   UNL A   1     -28.016  -0.814  28.878  0.00  0.00    +0.038 A 
ATOM      3  C   UNL A   1     -27.064  -0.119  28.608  0.00  0.00    +0.136 A 
ATOM      4  N   UNL A   1     -26.951   1.129  28.957  0.00  0.00    -0.229 NA
ATOM      5  C   UNL A   1     -29.109  -0.210  29.632  0.00  0.00    +0.076 A 
ATOM      6  C   UNL A   1     -29.064   1.109  29.994  0.00  0.00    +0.025 A 
ATOM      7  C   UNL A   1     -27.909   1.799  29.602  0.00  0.00    +0.100 A 
BRANCH   5   8
ATOM      8  C   UNL A   1     -30.196  -1.043  29.996  0.00  0.00    +0.419 C 
ATOM      9  F   UNL A   1     -29.969  -2.224  30.170  0.00  0.00    -0.166 F 
ATOM     10  F   UNL A   1     -30.780  -0.598  31.143  0.00  0.00    -0.166 F 
ATOM     11  F   UNL A   1     -31.343  -0.993  29.235  0.00  0.00    -0.166 F 
ENDBRANCH   5   8
ENDBRANCH   1   3
BRANCH   1  12
ATOM     12  C   UNL A   1     -24.729  -0.872  28.725  0.00  0.00    +0.053 A 
ATOM     13  C   UNL A   1     -24.396  -2.144  29.012  0.00  0.00    +0.013 A 
ATOM     14  C   UNL A   1     -23.824   0.170  28.923  0.00  0.00    +0.015 A 
ATOM     15  C   UNL A   1     -22.540  -0.164  29.528  0.00  0.00    +0.001 A 
ATOM     16  C   UNL A   1     -22.271  -1.479  29.898  0.00  0.00    +0.000 A 
ATOM     17  C   UNL A   1     -23.169  -2.418  29.657  0.00  0.00    +0.001 A 
BRANCH  13  18
ATOM     18  C   UNL A   1     -25.261  -3.260  28.796  0.00  0.00    -0.003 C 
ATOM     19  C   UNL A   1     -24.890  -4.540  29.206  0.00  0.00    -0.026 C 
ATOM     20  C   UNL A   1     -25.899  -5.558  29.212  0.00  0.00    +0.031 C 
ENDBRANCH  13  18
ENDBRANCH   1  12
BRANCH   1  21
ATOM     21  C   UNL A   1     -25.613   0.150  26.703  0.00  0.00    +0.123 C 
BRANCH  21  22
ATOM     22  C   UNL A   1     -26.432  -0.106  25.595  0.00  0.00    -0.004 C 
ATOM     23  C   UNL A   1     -26.512   0.830  24.611  0.00  0.00    -0.003 C 
BRANCH  23  24
ATOM     24  C   UNL A   1     -27.557   0.716  23.713  0.00  0.00    -0.000 C 
ATOM     25  C   UNL A   1     -28.636  -0.167  23.973  0.00  0.00    -0.000 C 
BRANCH  25  26
ATOM     26  C   UNL A   1     -29.841   0.139  24.403  0.00  0.00    -0.000 C 
ATOM     27  C   UNL A   1     -30.170   1.482  24.769  0.00  0.00    -0.000 C 
BRANCH  27  28
ATOM     28  C   UNL A   1     -31.410   1.743  25.317  0.00  0.00    -0.005 C 
ATOM     29  C   UNL A   1     -32.281   0.665  25.561  0.00  0.00    -0.026 C 
ATOM     30  C   UNL A   1     -31.970  -0.624  25.252  0.00  0.00    +0.031 C 
ENDBRANCH  27  28
ENDBRANCH  25  26
ENDBRANCH  23  24
ENDBRANCH  21  22
ENDBRANCH   1  21
TORSDOF 9
