MODEL 2448
MODEL 1
REMARK VINA RESULT:    -6.981      0.000      0.000
REMARK INTER + INTRA:         -13.722
REMARK INTER:                 -10.654
REMARK INTRA:                  -3.068
REMARK UNBOUND:                -3.068
REMARK  Name = No_2448-gen_results/8p0m/2024-11-26-14-13-15/
REMARK  9 active torsions:
REMARK  status: ('A' for Active; 'I' for Inactive)
REMARK    1  A    between atoms: C_2  and  N_11
REMARK    2  A    between atoms: C_4  and  C_5
REMARK    3  A    between atoms: N_11  and  C_12
REMARK    4  A    between atoms: N_11  and  C_21
REMARK    5  A    between atoms: C_13  and  C_16
REMARK    6  A    between atoms: C_21  and  C_22
REMARK    7  A    between atoms: C_23  and  C_24
REMARK    8  A    between atoms: C_25  and  C_26
REMARK    9  A    between atoms: C_27  and  C_28
REMARK                            x       y       z     vdW  Elec       q    Type
REMARK                         _______ _______ _______ _____ _____    ______ ____
ROOT
ATOM      1  N   UNL A   1     -25.621   2.775  27.839  0.00  0.00    -0.268 N 
ENDROOT
BRANCH   1   3
ATOM      2  C   UNL A   1     -24.981   4.908  27.141  0.00  0.00    +0.038 A 
ATOM      3  C   UNL A   1     -25.791   4.196  27.688  0.00  0.00    +0.136 A 
ATOM      4  N   UNL A   1     -26.947   4.607  28.122  0.00  0.00    -0.229 NA
ATOM      5  C   UNL A   1     -25.318   6.316  26.968  0.00  0.00    +0.076 A 
ATOM      6  C   UNL A   1     -26.503   6.815  27.438  0.00  0.00    +0.025 A 
ATOM      7  C   UNL A   1     -27.339   5.882  28.065  0.00  0.00    +0.100 A 
BRANCH   5   8
ATOM      8  C   UNL A   1     -24.391   7.134  26.276  0.00  0.00    +0.419 C 
ATOM      9  F   UNL A   1     -23.765   6.631  25.363  0.00  0.00    -0.166 F 
ATOM     10  F   UNL A   1     -25.012   8.226  25.750  0.00  0.00    -0.166 F 
ATOM     11  F   UNL A   1     -23.469   7.846  27.011  0.00  0.00    -0.166 F 
ENDBRANCH   5   8
ENDBRANCH   1   3
BRANCH   1  12
ATOM     12  C   UNL A   1     -25.695   1.954  26.690  0.00  0.00    +0.053 A 
ATOM     13  C   UNL A   1     -24.578   1.361  26.228  0.00  0.00    +0.013 A 
ATOM     14  C   UNL A   1     -26.955   1.557  26.244  0.00  0.00    +0.015 A 
ATOM     15  C   UNL A   1     -27.007   0.538  25.203  0.00  0.00    +0.001 A 
ATOM     16  C   UNL A   1     -25.824   0.018  24.684  0.00  0.00    +0.000 A 
ATOM     17  C   UNL A   1     -24.667   0.426  25.173  0.00  0.00    +0.001 A 
BRANCH  13  18
ATOM     18  C   UNL A   1     -23.261   1.693  26.672  0.00  0.00    -0.003 C 
ATOM     19  C   UNL A   1     -22.635   0.945  27.668  0.00  0.00    -0.026 C 
ATOM     20  C   UNL A   1     -21.232   1.151  27.875  0.00  0.00    +0.031 C 
ENDBRANCH  13  18
ENDBRANCH   1  12
BRANCH   1  21
ATOM     21  C   UNL A   1     -26.412   2.267  28.992  0.00  0.00    +0.123 C 
BRANCH  21  22
ATOM     22  C   UNL A   1     -25.751   1.457  29.925  0.00  0.00    -0.004 C 
ATOM     23  C   UNL A   1     -24.642   1.943  30.544  0.00  0.00    -0.003 C 
BRANCH  23  24
ATOM     24  C   UNL A   1     -23.827   1.032  31.190  0.00  0.00    -0.000 C 
ATOM     25  C   UNL A   1     -24.153  -0.349  31.193  0.00  0.00    -0.000 C 
BRANCH  25  26
ATOM     26  C   UNL A   1     -23.615  -1.304  30.466  0.00  0.00    -0.000 C 
ATOM     27  C   UNL A   1     -24.354  -1.929  29.414  0.00  0.00    -0.000 C 
BRANCH  27  28
ATOM     28  C   UNL A   1     -23.794  -3.000  28.745  0.00  0.00    -0.005 C 
ATOM     29  C   UNL A   1     -24.453  -4.242  28.789  0.00  0.00    -0.026 C 
ATOM     30  C   UNL A   1     -25.604  -4.447  29.487  0.00  0.00    +0.031 C 
ENDBRANCH  27  28
ENDBRANCH  25  26
ENDBRANCH  23  24
ENDBRANCH  21  22
ENDBRANCH   1  21
TORSDOF 9
ENDMDL
ENDMDL
