MODEL 2449
MODEL 1
REMARK VINA RESULT:    -6.552      0.000      0.000
REMARK INTER + INTRA:          -6.552
REMARK INTER:                  -6.552
REMARK INTRA:                   0.000
REMARK UNBOUND:                 0.000
REMARK  Name = No_2449-gen_results/8p0m/2024-11-26-14-13-15/
REMARK  0 active torsions:
REMARK  status: ('A' for Active; 'I' for Inactive)
REMARK                            x       y       z     vdW  Elec       q    Type
REMARK                         _______ _______ _______ _____ _____    ______ ____
ROOT
ATOM      1  C   UNL A   1     -27.568 -12.347  32.218  0.00  0.00    -0.004 A 
ATOM      2  C   UNL A   1     -28.316 -11.695  31.527  0.00  0.00    -0.015 A 
ATOM      3  C   UNL A   1     -28.469 -11.974  30.173  0.00  0.00    +0.053 C 
ATOM      4  C   UNL A   1     -29.348 -11.241  29.217  0.00  0.00    -0.015 A 
ATOM      5  C   UNL A   1     -30.220 -10.269  29.791  0.00  0.00    +0.035 A 
ATOM      6  C   UNL A   1     -31.113  -9.564  28.986  0.00  0.00    +0.003 A 
ATOM      7  C   UNL A   1     -31.216  -9.963  27.636  0.00  0.00    +0.000 A 
ATOM      8  C   UNL A   1     -30.399 -10.904  27.081  0.00  0.00    -0.000 A 
ATOM      9  C   UNL A   1     -29.448 -11.616  27.905  0.00  0.00    -0.004 A 
ATOM     10  C   UNL A   1     -27.187 -11.852  33.508  0.00  0.00    -0.000 A 
ATOM     11  C   UNL A   1     -27.946 -10.802  34.026  0.00  0.00    +0.000 A 
ATOM     12  C   UNL A   1     -28.902 -10.187  33.302  0.00  0.00    +0.003 A 
ATOM     13  C   UNL A   1     -29.110 -10.524  31.965  0.00  0.00    +0.035 A 
ATOM     14  C   UNL A   1     -30.041  -9.872  31.144  0.00  0.00    +0.195 C 
ATOM     15  O   UNL A   1     -30.735  -8.914  31.614  0.00  0.00    -0.287 OA
ENDROOT
TORSDOF 0
ENDMDL
ENDMDL
