MODEL 244
MODEL 1
REMARK VINA RESULT:    -8.332      0.000      0.000
REMARK INTER + INTRA:          -9.986
REMARK INTER:                  -9.307
REMARK INTRA:                  -0.680
REMARK UNBOUND:                -0.680
REMARK  Name = No_244-gen_results/8p0m/2024-11-26-14-13-15/
REMARK  2 active torsions:
REMARK  status: ('A' for Active; 'I' for Inactive)
REMARK    1  A    between atoms: C_3  and  C_4
REMARK    2  A    between atoms: C_4  and  C_8
REMARK                            x       y       z     vdW  Elec       q    Type
REMARK                         _______ _______ _______ _____ _____    ______ ____
ROOT
ATOM      1  C   UNL A   1     -24.258  -1.674  29.377  0.00  0.00    +0.039 A 
ATOM      2  C   UNL A   1     -24.722  -2.561  29.266  0.00  0.00    +0.003 A 
ATOM      3  C   UNL A   1     -25.907  -3.196  29.950  0.00  0.00    +0.000 A 
ATOM      4  C   UNL A   1     -26.445  -4.492  29.679  0.00  0.00    +0.000 A 
ATOM      5  C   UNL A   1     -25.337  -5.277  29.223  0.00  0.00    +0.000 A 
ATOM      6  C   UNL A   1     -24.231  -4.937  28.581  0.00  0.00    +0.000 A 
ATOM      7  C   UNL A   1     -23.843  -3.727  28.650  0.00  0.00    +0.000 A 
ATOM      8  C   UNL A   1     -24.931  -0.849  30.581  0.00  0.00    +0.003 A 
ATOM      9  C   UNL A   1     -26.685  -2.348  30.697  0.00  0.00    +0.000 A 
ATOM     10  C   UNL A   1     -26.103  -1.194  31.061  0.00  0.00    +0.000 A 
ENDROOT
BRANCH   1  11
ATOM     11  C   UNL A   1     -23.411  -1.113  28.875  0.00  0.00    +0.196 C 
ATOM     12  O   UNL A   1     -21.998  -1.252  29.197  0.00  0.00    -0.287 OA
BRANCH  11  15
ATOM     13  C   UNL A   1     -24.323   0.371  26.990  0.00  0.00    +0.003 A 
ATOM     14  C   UNL A   1     -24.173   1.235  26.406  0.00  0.00    +0.000 A 
ATOM     15  C   UNL A   1     -23.309   0.008  27.904  0.00  0.00    +0.039 A 
ATOM     16  C   UNL A   1     -23.045   2.181  26.342  0.00  0.00    +0.000 A 
ATOM     17  C   UNL A   1     -22.001   1.882  27.218  0.00  0.00    +0.000 A 
ATOM     18  C   UNL A   1     -22.122   0.819  28.054  0.00  0.00    +0.003 A 
ENDBRANCH  11  15
ENDBRANCH   1  11
TORSDOF 2
ENDMDL
ENDMDL
