REMARK  Name = No_2451-gen_results/8p0m/2024-11-26-14-13-15/
REMARK  5 active torsions:
REMARK  status: ('A' for Active; 'I' for Inactive)
REMARK    1  A    between atoms: C_3  and  C_7
REMARK    2  A    between atoms: C_7  and  C_8
REMARK    3  A    between atoms: C_7  and  C_9
REMARK    4  A    between atoms: C_8  and  C_10
REMARK    5  A    between atoms: C_9  and  C_17
REMARK                            x       y       z     vdW  Elec       q    Type
REMARK                         _______ _______ _______ _____ _____    ______ ____
ROOT
ATOM      1  C   UNL A   1     -26.408   0.307  27.226  0.00  0.00    +0.031 C 
ENDROOT
BRANCH   1   4
ATOM      2  C   UNL A   1     -28.016  -0.814  28.878  0.00  0.00    -0.004 A 
ATOM      3  C   UNL A   1     -28.469  -0.785  29.829  0.00  0.00    -0.000 A 
ATOM      4  C   UNL A   1     -27.136   0.236  28.535  0.00  0.00    -0.022 A 
ATOM      5  C   UNL A   1     -26.875   1.282  29.398  0.00  0.00    -0.004 A 
ATOM      6  C   UNL A   1     -27.507   1.238  30.630  0.00  0.00    -0.000 A 
ATOM      7  C   UNL A   1     -28.329   0.174  30.935  0.00  0.00    -0.000 A 
ENDBRANCH   1   4
BRANCH   1   8
ATOM      8  C   UNL A   1     -26.875   0.839  26.213  0.00  0.00    +0.027 C 
ATOM      9  C   UNL A   1     -26.223   0.741  24.934  0.00  0.00    +0.005 C 
BRANCH   8  10
ATOM     10  C   UNL A   1     -28.178   1.412  26.139  0.00  0.00    -0.022 A 
ATOM     11  C   UNL A   1     -29.102   1.098  25.742  0.00  0.00    -0.004 A 
ATOM     12  C   UNL A   1     -30.368   1.852  25.732  0.00  0.00    -0.000 A 
ATOM     13  C   UNL A   1     -30.332   3.095  26.368  0.00  0.00    -0.000 A 
ATOM     14  C   UNL A   1     -29.171   3.680  26.796  0.00  0.00    -0.000 A 
ATOM     15  C   UNL A   1     -28.011   2.896  26.757  0.00  0.00    -0.004 A 
ENDBRANCH   8  10
ENDBRANCH   1   8
BRANCH   1  16
ATOM     16  C   UNL A   1     -25.081  -0.288  27.183  0.00  0.00    +0.030 C 
BRANCH  16  17
ATOM     17  C   UNL A   1     -24.507  -0.679  28.531  0.00  0.00    -0.030 C 
ATOM     18  C   UNL A   1     -23.788   0.226  29.292  0.00  0.00    -0.030 C 
ATOM     19  C   UNL A   1     -23.162  -0.240  30.441  0.00  0.00    +0.030 C 
ENDBRANCH  16  17
ENDBRANCH   1  16
TORSDOF 5
