MODEL 2452
MODEL 1
REMARK VINA RESULT:    -4.692      0.000      0.000
REMARK INTER + INTRA:          -4.692
REMARK INTER:                  -4.692
REMARK INTRA:                   0.000
REMARK UNBOUND:                 0.000
REMARK  Name = No_2452-gen_results/8p0m/2024-11-26-14-13-15/
REMARK  0 active torsions:
REMARK  status: ('A' for Active; 'I' for Inactive)
REMARK                            x       y       z     vdW  Elec       q    Type
REMARK                         _______ _______ _______ _____ _____    ______ ____
ROOT
ATOM      1  C   UNL A   1      -8.139 -10.233  18.697  0.00  0.00    +0.053 A 
ATOM      2  C   UNL A   1      -9.217 -10.121  18.161  0.00  0.00    +0.061 A 
ATOM      3  C   UNL A   1     -10.284  -9.513  18.814  0.00  0.00    +0.012 A 
ATOM      4  C   UNL A   1     -10.150  -9.037  20.167  0.00  0.00    +0.004 A 
ATOM      5  C   UNL A   1      -8.877  -9.228  20.719  0.00  0.00    +0.042 A 
ATOM      6  C   UNL A   1      -7.906  -9.824  20.065  0.00  0.00    +0.197 A 
ATOM      7 CL   UNL A   1      -9.567 -10.672  16.578  0.00  0.00    -0.082 Cl
ATOM      8  O   UNL A   1      -6.702  -9.995  20.694  0.00  0.00    -0.286 OA
ENDROOT
TORSDOF 0
ENDMDL
ENDMDL
