MODEL 2453
MODEL 1
REMARK VINA RESULT:    -4.887      0.000      0.000
REMARK INTER + INTRA:          -5.558
REMARK INTER:                  -5.458
REMARK INTRA:                  -0.099
REMARK UNBOUND:                -0.099
REMARK  Name = No_2453-gen_results/8p0m/2024-11-26-14-13-15/
REMARK  2 active torsions:
REMARK  status: ('A' for Active; 'I' for Inactive)
REMARK    1  A    between atoms: C_3  and  N_7
REMARK    2  A    between atoms: N_7  and  C_8
REMARK                            x       y       z     vdW  Elec       q    Type
REMARK                         _______ _______ _______ _____ _____    ______ ____
ROOT
ATOM      1  C   UNL A   1     -26.317  -3.219  30.012  0.00  0.00    +0.001 A 
ATOM      2  C   UNL A   1     -25.351  -2.553  29.718  0.00  0.00    +0.017 A 
ATOM      3  C   UNL A   1     -24.230  -2.959  29.194  0.00  0.00    +0.070 A 
ATOM      4  C   UNL A   1     -24.079  -4.354  28.929  0.00  0.00    +0.017 A 
ATOM      5  C   UNL A   1     -25.171  -5.119  29.168  0.00  0.00    +0.001 A 
ATOM      6  C   UNL A   1     -26.327  -4.586  29.677  0.00  0.00    +0.000 A 
ENDROOT
BRANCH   3   7
ATOM      7  N   UNL A   1     -23.128  -2.130  28.946  0.00  0.00    -0.211 NA
BRANCH   7   8
ATOM      8  C   UNL A   1     -22.784  -1.075  29.281  0.00  0.00    +0.086 C 
ATOM      9  C   UNL A   1     -21.613  -0.305  28.877  0.00  0.00    +0.019 C 
ENDBRANCH   7   8
ENDBRANCH   3   7
TORSDOF 2
ENDMDL
ENDMDL
