REMARK  Name = No_2454-gen_results/8p0m/2024-11-26-14-13-15/
REMARK  1 active torsions:
REMARK  status: ('A' for Active; 'I' for Inactive)
REMARK    1  A    between atoms: C_11  and  C_12
REMARK                            x       y       z     vdW  Elec       q    Type
REMARK                         _______ _______ _______ _____ _____    ______ ____
ROOT
ATOM      1  C   UNL A   1     -28.016  -0.814  28.878  0.00  0.00    +0.004 A 
ATOM      2  C   UNL A   1     -27.064  -0.119  28.608  0.00  0.00    +0.051 A 
ATOM      3  C   UNL A   1     -25.792  -0.430  29.076  0.00  0.00    -0.012 A 
ATOM      4  C   UNL A   1     -25.576  -1.565  29.936  0.00  0.00    -0.004 A 
ATOM      5  C   UNL A   1     -26.735  -2.300  30.217  0.00  0.00    -0.000 A 
ATOM      6  C   UNL A   1     -27.918  -1.954  29.763  0.00  0.00    +0.000 A 
ATOM      7  C   UNL A   1     -27.324   1.085  27.819  0.00  0.00    +0.265 C 
ATOM      8  N   UNL A   1     -26.339   1.844  27.483  0.00  0.00    -0.201 NA
ATOM      9  O   UNL A   1     -28.407   1.341  27.348  0.00  0.00    -0.268 OA
ATOM     10  C   UNL A   1     -24.971   1.762  27.983  0.00  0.00    +0.124 C 
ATOM     11  C   UNL A   1     -24.664   0.518  28.694  0.00  0.00    +0.067 C 
ENDROOT
BRANCH  11  12
ATOM     12  C   UNL A   1     -23.289   0.283  29.144  0.00  0.00    -0.003 A 
ATOM     13  C   UNL A   1     -22.905   0.303  30.435  0.00  0.00    +0.073 A 
ATOM     14  C   UNL A   1     -22.337   0.090  28.122  0.00  0.00    +0.018 A 
ATOM     15  C   UNL A   1     -20.989  -0.080  28.569  0.00  0.00    +0.099 A 
ATOM     16 CL   UNL A   1     -24.083   0.658  31.746  0.00  0.00    -0.081 Cl
ATOM     17  N   UNL A   1     -20.713  -0.217  29.866  0.00  0.00    -0.241 NA
ATOM     18  C   UNL A   1     -21.570  -0.016  30.793  0.00  0.00    +0.110 A 
ENDBRANCH  11  12
TORSDOF 1
