MODEL 2454
MODEL 1
REMARK VINA RESULT:    -7.496      0.000      0.000
REMARK INTER + INTRA:          -8.419
REMARK INTER:                  -7.934
REMARK INTRA:                  -0.485
REMARK UNBOUND:                -0.485
REMARK  Name = No_2454-gen_results/8p0m/2024-11-26-14-13-15/
REMARK  1 active torsions:
REMARK  status: ('A' for Active; 'I' for Inactive)
REMARK    1  A    between atoms: C_11  and  C_12
REMARK                            x       y       z     vdW  Elec       q    Type
REMARK                         _______ _______ _______ _____ _____    ______ ____
ROOT
ATOM      1  C   UNL A   1     -26.087  -4.815  29.633  0.00  0.00    +0.004 A 
ATOM      2  C   UNL A   1     -26.145  -3.608  29.673  0.00  0.00    +0.051 A 
ATOM      3  C   UNL A   1     -25.155  -2.821  29.093  0.00  0.00    -0.012 A 
ATOM      4  C   UNL A   1     -24.005  -3.421  28.467  0.00  0.00    -0.004 A 
ATOM      5  C   UNL A   1     -24.006  -4.821  28.487  0.00  0.00    -0.000 A 
ATOM      6  C   UNL A   1     -24.958  -5.519  29.063  0.00  0.00    +0.000 A 
ATOM      7  C   UNL A   1     -27.269  -3.022  30.403  0.00  0.00    +0.265 C 
ATOM      8  N   UNL A   1     -27.390  -1.740  30.451  0.00  0.00    -0.201 NA
ATOM      9  O   UNL A   1     -28.173  -3.682  30.858  0.00  0.00    -0.268 OA
ATOM     10  C   UNL A   1     -26.398  -0.758  30.028  0.00  0.00    +0.124 C 
ATOM     11  C   UNL A   1     -25.313  -1.312  29.213  0.00  0.00    +0.067 C 
ENDROOT
BRANCH  11  12
ATOM     12  C   UNL A   1     -24.320  -0.397  28.643  0.00  0.00    -0.003 A 
ATOM     13  C   UNL A   1     -23.184  -0.033  29.269  0.00  0.00    +0.073 A 
ATOM     14  C   UNL A   1     -24.650   0.157  27.389  0.00  0.00    +0.018 A 
ATOM     15  C   UNL A   1     -23.702   1.094  26.869  0.00  0.00    +0.099 A 
ATOM     16 CL   UNL A   1     -22.800  -0.641  30.917  0.00  0.00    -0.081 Cl
ATOM     17  N   UNL A   1     -22.524   1.274  27.465  0.00  0.00    -0.241 NA
ATOM     18  C   UNL A   1     -22.236   0.793  28.614  0.00  0.00    +0.110 A 
ENDBRANCH  11  12
TORSDOF 1
ENDMDL
ENDMDL
