MODEL 2455
MODEL 1
REMARK VINA RESULT:    -6.805      0.000      0.000
REMARK INTER + INTRA:          -7.292
REMARK INTER:                  -7.203
REMARK INTRA:                  -0.090
REMARK UNBOUND:                -0.090
REMARK  Name = No_2455-gen_results/8p0m/2024-11-26-14-13-15/
REMARK  1 active torsions:
REMARK  status: ('A' for Active; 'I' for Inactive)
REMARK    1  A    between atoms: N_8  and  C_10
REMARK                            x       y       z     vdW  Elec       q    Type
REMARK                         _______ _______ _______ _____ _____    ______ ____
ROOT
ATOM      1  C   UNL A   1     -25.730  -2.357  29.609  0.00  0.00    +0.051 A 
ATOM      2  C   UNL A   1     -25.785  -1.487  30.201  0.00  0.00    +0.258 C 
ATOM      3  C   UNL A   1     -24.355  -2.778  29.314  0.00  0.00    -0.006 A 
ATOM      4  C   UNL A   1     -24.082  -4.079  28.672  0.00  0.00    +0.026 A 
ATOM      5  C   UNL A   1     -24.978  -5.140  28.932  0.00  0.00    +0.140 A 
ATOM      6  C   UNL A   1     -26.212  -4.844  29.601  0.00  0.00    +0.030 A 
ATOM      7  C   UNL A   1     -26.485  -3.609  30.023  0.00  0.00    +0.006 A 
ATOM      8  N   UNL A   1     -25.070  -0.401  30.155  0.00  0.00    -0.204 N 
ATOM      9  O   UNL A   1     -27.095  -1.052  30.692  0.00  0.00    -0.269 OA
ATOM     10  F   UNL A   1     -24.754  -6.383  28.538  0.00  0.00    -0.204 F 
ATOM     11  C   UNL A   1     -23.695  -0.669  29.755  0.00  0.00    +0.240 C 
ATOM     12  C   UNL A   1     -23.455  -1.947  29.059  0.00  0.00    +0.113 C 
ATOM     13  O   UNL A   1     -22.836   0.310  29.560  0.00  0.00    -0.274 OA
ENDROOT
BRANCH   8  14
ATOM     14  C   UNL A   1     -25.158   0.764  30.526  0.00  0.00    +0.061 A 
ATOM     15  C   UNL A   1     -25.560   1.750  29.728  0.00  0.00    +0.015 A 
ATOM     16  C   UNL A   1     -25.699   3.078  30.072  0.00  0.00    +0.001 A 
ATOM     17  C   UNL A   1     -25.365   3.408  31.442  0.00  0.00    +0.000 A 
ATOM     18  C   UNL A   1     -24.970   2.442  32.319  0.00  0.00    +0.001 A 
ATOM     19  C   UNL A   1     -24.825   1.151  31.926  0.00  0.00    +0.015 A 
ENDBRANCH   8  14
TORSDOF 1
ENDMDL
ENDMDL
