REMARK  Name = No_2455-gen_results/8p0m/2024-11-26-14-13-15/
REMARK  1 active torsions:
REMARK  status: ('A' for Active; 'I' for Inactive)
REMARK    1  A    between atoms: N_8  and  C_10
REMARK                            x       y       z     vdW  Elec       q    Type
REMARK                         _______ _______ _______ _____ _____    ______ ____
ROOT
ATOM      1  C   UNL A   1     -28.016  -0.814  28.878  0.00  0.00    +0.051 A 
ATOM      2  C   UNL A   1     -28.469  -0.785  29.829  0.00  0.00    +0.258 C 
ATOM      3  C   UNL A   1     -28.182   0.428  28.113  0.00  0.00    -0.006 A 
ATOM      4  C   UNL A   1     -27.450   0.643  26.850  0.00  0.00    +0.026 A 
ATOM      5  C   UNL A   1     -26.181   0.036  26.715  0.00  0.00    +0.140 A 
ATOM      6  C   UNL A   1     -25.780  -0.933  27.694  0.00  0.00    +0.030 A 
ATOM      7  C   UNL A   1     -26.557  -1.213  28.741  0.00  0.00    +0.006 A 
ATOM      8  N   UNL A   1     -29.610  -0.278  30.194  0.00  0.00    -0.204 N 
ATOM      9  O   UNL A   1     -28.244  -1.903  30.750  0.00  0.00    -0.269 OA
ATOM     10  F   UNL A   1     -25.371   0.281  25.698  0.00  0.00    -0.204 F 
ATOM     11  C   UNL A   1     -29.954   0.907  29.421  0.00  0.00    +0.240 C 
ATOM     12  C   UNL A   1     -29.255   1.071  28.132  0.00  0.00    +0.113 C 
ATOM     13  O   UNL A   1     -31.113   1.513  29.575  0.00  0.00    -0.274 OA
ENDROOT
BRANCH   8  14
ATOM     14  C   UNL A   1     -30.403  -0.394  31.122  0.00  0.00    +0.061 A 
ATOM     15  C   UNL A   1     -31.554   0.271  31.179  0.00  0.00    +0.015 A 
ATOM     16  C   UNL A   1     -32.501   0.185  32.178  0.00  0.00    +0.001 A 
ATOM     17  C   UNL A   1     -32.188  -0.722  33.262  0.00  0.00    +0.000 A 
ATOM     18  C   UNL A   1     -31.037  -1.453  33.254  0.00  0.00    +0.001 A 
ATOM     19  C   UNL A   1     -30.123  -1.315  32.260  0.00  0.00    +0.015 A 
ENDBRANCH   8  14
TORSDOF 1
