MODEL 2457
MODEL 1
REMARK VINA RESULT:    -6.540      0.000      0.000
REMARK INTER + INTRA:          -3.241
REMARK INTER:                  -7.687
REMARK INTRA:                   4.446
REMARK UNBOUND:                 4.446
REMARK  Name = No_2457-gen_results/8p0m/2024-11-26-14-13-15/
REMARK  3 active torsions:
REMARK  status: ('A' for Active; 'I' for Inactive)
REMARK    1  A    between atoms: C_2  and  C_7
REMARK    2  A    between atoms: C_14  and  C_15
REMARK    3  A    between atoms: C_16  and  C_17
REMARK                            x       y       z     vdW  Elec       q    Type
REMARK                         _______ _______ _______ _____ _____    ______ ____
ROOT
ATOM      1  C   UNL A   1     -23.917   1.483  29.580  0.00  0.00    +0.249 C 
ATOM      2  O   UNL A   1     -23.564   2.050  30.474  0.00  0.00    -0.270 OA
ATOM      3  N   UNL A   1     -24.556   0.249  29.678  0.00  0.00    -0.271 N 
ATOM      4  C   UNL A   1     -24.754  -0.314  30.971  0.00  0.00    +0.094 C 
ATOM      5  C   UNL A   1     -24.750  -1.602  30.954  0.00  0.00    +0.022 C 
ATOM      6  C   UNL A   1     -24.867  -2.413  29.753  0.00  0.00    +0.004 C 
ATOM      7  C   UNL A   1     -24.665  -1.749  28.510  0.00  0.00    +0.028 C 
ATOM      8  C   UNL A   1     -24.453  -0.503  28.501  0.00  0.00    +0.137 C 
ENDROOT
BRANCH   1  10
ATOM      9  C   UNL A   1     -22.812   1.425  27.577  0.00  0.00    +0.004 A 
ATOM     10  C   UNL A   1     -23.639   1.867  28.058  0.00  0.00    +0.054 A 
ATOM     11  C   UNL A   1     -22.576   1.817  26.178  0.00  0.00    +0.000 A 
ATOM     12  C   UNL A   1     -23.352   2.848  25.574  0.00  0.00    +0.000 A 
ATOM     13  C   UNL A   1     -24.549   2.983  27.683  0.00  0.00    +0.004 A 
ATOM     14  C   UNL A   1     -24.367   3.368  26.388  0.00  0.00    +0.000 A 
ENDBRANCH   1  10
BRANCH   8  15
ATOM     15  C   UNL A   1     -25.045  -0.093  27.306  0.00  0.00    +0.195 C 
ATOM     16  C   UNL A   1     -24.833  -0.316  26.236  0.00  0.00    +0.114 C 
ATOM     17  O   UNL A   1     -26.076   0.640  27.375  0.00  0.00    -0.290 OA
BRANCH  16  18
ATOM     18  C   UNL A   1     -25.657   0.239  25.055  0.00  0.00    +0.421 C 
ATOM     19  F   UNL A   1     -24.750   0.285  24.125  0.00  0.00    -0.166 F 
ATOM     20  F   UNL A   1     -26.133   1.473  25.216  0.00  0.00    -0.166 F 
ATOM     21  F   UNL A   1     -26.565  -0.596  24.610  0.00  0.00    -0.166 F 
ENDBRANCH  16  18
ENDBRANCH   8  15
TORSDOF 3
ENDMDL
ENDMDL
