REMARK  Name = No_2457-gen_results/8p0m/2024-11-26-14-13-15/
REMARK  3 active torsions:
REMARK  status: ('A' for Active; 'I' for Inactive)
REMARK    1  A    between atoms: C_2  and  C_7
REMARK    2  A    between atoms: C_14  and  C_15
REMARK    3  A    between atoms: C_16  and  C_17
REMARK                            x       y       z     vdW  Elec       q    Type
REMARK                         _______ _______ _______ _____ _____    ______ ____
ROOT
ATOM      1  C   UNL A   1     -30.061  -0.737  29.902  0.00  0.00    +0.249 C 
ATOM      2  O   UNL A   1     -30.725  -1.554  30.270  0.00  0.00    -0.270 OA
ATOM      3  N   UNL A   1     -30.556   0.424  29.312  0.00  0.00    -0.271 N 
ATOM      4  C   UNL A   1     -31.965   0.564  29.163  0.00  0.00    +0.094 C 
ATOM      5  C   UNL A   1     -32.285   1.270  28.134  0.00  0.00    +0.022 C 
ATOM      6  C   UNL A   1     -31.362   2.110  27.389  0.00  0.00    +0.004 C 
ATOM      7  C   UNL A   1     -29.973   1.899  27.623  0.00  0.00    +0.028 C 
ATOM      8  C   UNL A   1     -29.613   1.050  28.487  0.00  0.00    +0.137 C 
ENDROOT
BRANCH   1  10
ATOM      9  C   UNL A   1     -28.016  -0.814  28.878  0.00  0.00    +0.004 A 
ATOM     10  C   UNL A   1     -28.469  -0.785  29.829  0.00  0.00    +0.054 A 
ATOM     11  C   UNL A   1     -26.546  -0.876  28.850  0.00  0.00    +0.000 A 
ATOM     12  C   UNL A   1     -25.804  -1.032  30.057  0.00  0.00    +0.000 A 
ATOM     13  C   UNL A   1     -27.944  -0.987  31.207  0.00  0.00    +0.004 A 
ATOM     14  C   UNL A   1     -26.582  -1.039  31.223  0.00  0.00    +0.000 A 
ENDBRANCH   1  10
BRANCH   8  15
ATOM     15  C   UNL A   1     -28.435   1.600  28.994  0.00  0.00    +0.195 C 
ATOM     16  C   UNL A   1     -28.019   2.633  29.001  0.00  0.00    +0.114 C 
ATOM     17  O   UNL A   1     -27.655   0.840  29.641  0.00  0.00    -0.290 OA
BRANCH  16  18
ATOM     18  C   UNL A   1     -26.680   3.023  29.661  0.00  0.00    +0.421 C 
ATOM     19  F   UNL A   1     -26.253   1.859  30.053  0.00  0.00    -0.166 F 
ATOM     20  F   UNL A   1     -26.775   3.802  30.738  0.00  0.00    -0.166 F 
ATOM     21  F   UNL A   1     -25.780   3.451  28.809  0.00  0.00    -0.166 F 
ENDBRANCH  16  18
ENDBRANCH   8  15
TORSDOF 3
