MODEL 2458
MODEL 1
REMARK VINA RESULT:    -5.320      0.000      0.000
REMARK INTER + INTRA:          -5.781
REMARK INTER:                  -5.631
REMARK INTRA:                  -0.151
REMARK UNBOUND:                -0.151
REMARK  Name = No_2458-gen_results/8p0m/2024-11-26-14-13-15/
REMARK  1 active torsions:
REMARK  status: ('A' for Active; 'I' for Inactive)
REMARK    1  A    between atoms: C_4  and  C_7
REMARK                            x       y       z     vdW  Elec       q    Type
REMARK                         _______ _______ _______ _____ _____    ______ ____
ROOT
ATOM      1  C   UNL A   1     -26.562  -4.098  29.791  0.00  0.00    -0.000 A 
ATOM      2  C   UNL A   1     -26.008  -4.963  29.556  0.00  0.00    -0.000 A 
ATOM      3  C   UNL A   1     -25.873  -2.809  29.622  0.00  0.00    -0.000 A 
ATOM      4  C   UNL A   1     -24.575  -2.752  29.034  0.00  0.00    -0.000 A 
ATOM      5  C   UNL A   1     -24.694  -5.175  28.889  0.00  0.00    -0.000 A 
ATOM      6  C   UNL A   1     -24.021  -4.001  28.724  0.00  0.00    -0.000 A 
ENDROOT
BRANCH   4   7
ATOM      7  C   UNL A   1     -23.869  -1.530  28.837  0.00  0.00    -0.005 C 
ATOM      8  C   UNL A   1     -22.677  -1.318  29.230  0.00  0.00    -0.026 C 
ATOM      9  C   UNL A   1     -21.899  -0.141  28.830  0.00  0.00    +0.031 C 
ENDBRANCH   4   7
TORSDOF 1
ENDMDL
ENDMDL
