REMARK  Name = No_2459-gen_results/8p0m/2024-11-26-14-13-15/
REMARK  9 active torsions:
REMARK  status: ('A' for Active; 'I' for Inactive)
REMARK    1  A    between atoms: C_3  and  C_7
REMARK    2  A    between atoms: C_6  and  C_13
REMARK    3  A    between atoms: C_13  and  O_15
REMARK    4  A    between atoms: O_15  and  C_16
REMARK    5  A    between atoms: C_16  and  C_17
REMARK    6  A    between atoms: N_19  and  C_20
REMARK    7  A    between atoms: C_24  and  C_26
REMARK    8  A    between atoms: C_31  and  C_32
REMARK    9  A    between atoms: C_33  and  C_34
REMARK                            x       y       z     vdW  Elec       q    Type
REMARK                         _______ _______ _______ _____ _____    ______ ____
ROOT
ATOM      1  C   UNL A   1     -32.327  -1.985  31.216  0.00  0.00    +0.290 C 
ATOM      2  O   UNL A   1     -33.234  -2.454  31.742  0.00  0.00    -0.269 OA
ATOM      3  N   UNL A   1     -32.407  -0.773  30.573  0.00  0.00    -0.176 NA
ENDROOT
BRANCH   3   4
ATOM      4  C   UNL A   1     -33.625  -0.034  30.438  0.00  0.00    +0.073 A 
ATOM      5  C   UNL A   1     -33.600   0.981  29.951  0.00  0.00    +0.017 A 
ATOM      6  C   UNL A   1     -34.705   1.931  29.823  0.00  0.00    +0.001 A 
ATOM      7  C   UNL A   1     -35.933   1.386  30.310  0.00  0.00    +0.000 A 
ATOM      8  C   UNL A   1     -35.921   0.128  30.869  0.00  0.00    +0.001 A 
ATOM      9  C   UNL A   1     -34.786  -0.580  31.007  0.00  0.00    +0.017 A 
BRANCH   8  10
ATOM     10  C   UNL A   1     -37.211  -0.344  31.415  0.00  0.00    +0.000 A 
ATOM     11  C   UNL A   1     -38.077  -0.933  31.201  0.00  0.00    +0.000 A 
ATOM     12  C   UNL A   1     -39.203  -1.317  31.956  0.00  0.00    +0.000 A 
ATOM     13  C   UNL A   1     -37.236   0.077  32.937  0.00  0.00    +0.000 A 
ATOM     14  C   UNL A   1     -38.233  -0.208  33.751  0.00  0.00    +0.000 A 
ATOM     15  C   UNL A   1     -39.265  -0.937  33.244  0.00  0.00    +0.000 A 
BRANCH  15  16
ATOM     16  C   UNL A   1     -40.450  -1.309  34.060  0.00  0.00    +0.000 C 
ATOM     17  C   UNL A   1     -40.502  -0.901  35.348  0.00  0.00    +0.000 C 
BRANCH  17  18
ATOM     18  C   UNL A   1     -41.607  -1.232  36.160  0.00  0.00    +0.000 C 
ATOM     19  C   UNL A   1     -42.630  -2.008  35.558  0.00  0.00    +0.000 C 
ENDBRANCH  17  18
ENDBRANCH  15  16
ENDBRANCH   8  10
ENDBRANCH   3   4
BRANCH   1  20
ATOM     20  C   UNL A   1     -31.063  -2.646  31.156  0.00  0.00    +0.295 C 
BRANCH  20  21
ATOM     21  O   UNL A   1     -30.114  -2.200  30.526  0.00  0.00    -0.435 OA
BRANCH  21  22
ATOM     22  C   UNL A   1     -29.022  -2.769  30.201  0.00  0.00    +0.342 C 
ATOM     23  O   UNL A   1     -28.962  -4.008  30.330  0.00  0.00    -0.245 OA
BRANCH  22  29
ATOM     24  C   UNL A   1     -28.016  -0.814  28.878  0.00  0.00    +0.006 A 
ATOM     25  C   UNL A   1     -27.064  -0.119  28.608  0.00  0.00    +0.000 A 
ATOM     26  C   UNL A   1     -25.765  -0.390  29.036  0.00  0.00    +0.000 A 
ATOM     27  C   UNL A   1     -25.530  -1.530  29.901  0.00  0.00    +0.000 A 
ATOM     28  C   UNL A   1     -26.658  -2.292  30.203  0.00  0.00    +0.006 A 
ATOM     29  C   UNL A   1     -27.855  -1.956  29.763  0.00  0.00    +0.076 A 
BRANCH  26  30
ATOM     30  C   UNL A   1     -24.439   0.180  28.728  0.00  0.00    +0.000 A 
ATOM     31  C   UNL A   1     -24.345   1.184  27.768  0.00  0.00    +0.000 A 
ATOM     32  C   UNL A   1     -23.151   1.702  27.371  0.00  0.00    +0.000 A 
ATOM     33  C   UNL A   1     -21.920   1.333  28.011  0.00  0.00    +0.000 A 
ATOM     34  C   UNL A   1     -23.100  -0.311  29.024  0.00  0.00    +0.000 A 
ATOM     35  C   UNL A   1     -21.915   0.328  28.814  0.00  0.00    +0.000 A 
ENDBRANCH  26  30
ENDBRANCH  22  29
ENDBRANCH  21  22
ENDBRANCH  20  21
ENDBRANCH   1  20
TORSDOF 9
