MODEL 2459
MODEL 1
REMARK VINA RESULT:    -6.616      0.000      0.000
REMARK INTER + INTRA:         -15.059
REMARK INTER:                 -10.097
REMARK INTRA:                  -4.962
REMARK UNBOUND:                -4.962
REMARK  Name = No_2459-gen_results/8p0m/2024-11-26-14-13-15/
REMARK  9 active torsions:
REMARK  status: ('A' for Active; 'I' for Inactive)
REMARK    1  A    between atoms: C_3  and  C_7
REMARK    2  A    between atoms: C_6  and  C_13
REMARK    3  A    between atoms: C_13  and  O_15
REMARK    4  A    between atoms: O_15  and  C_16
REMARK    5  A    between atoms: C_16  and  C_17
REMARK    6  A    between atoms: N_19  and  C_20
REMARK    7  A    between atoms: C_24  and  C_26
REMARK    8  A    between atoms: C_31  and  C_32
REMARK    9  A    between atoms: C_33  and  C_34
REMARK                            x       y       z     vdW  Elec       q    Type
REMARK                         _______ _______ _______ _____ _____    ______ ____
ROOT
ATOM      1  C   UNL A   1     -25.697 -13.084   5.244  0.00  0.00    +0.290 C 
ATOM      2  O   UNL A   1     -26.414 -13.620   4.525  0.00  0.00    -0.269 OA
ATOM      3  N   UNL A   1     -25.450 -13.557   6.511  0.00  0.00    -0.176 NA
ENDROOT
BRANCH   3   4
ATOM      4  C   UNL A   1     -26.111 -14.698   7.066  0.00  0.00    +0.073 A 
ATOM      5  C   UNL A   1     -25.702 -15.726   6.853  0.00  0.00    +0.017 A 
ATOM      6  C   UNL A   1     -26.292 -17.011   7.229  0.00  0.00    +0.001 A 
ATOM      7  C   UNL A   1     -27.460 -16.843   8.035  0.00  0.00    +0.000 A 
ATOM      8  C   UNL A   1     -27.905 -15.566   8.295  0.00  0.00    +0.001 A 
ATOM      9  C   UNL A   1     -27.299 -14.481   7.780  0.00  0.00    +0.017 A 
BRANCH   8  10
ATOM     10  C   UNL A   1     -29.156 -15.469   9.075  0.00  0.00    +0.000 A 
ATOM     11  C   UNL A   1     -29.587 -15.621  10.042  0.00  0.00    +0.000 A 
ATOM     12  C   UNL A   1     -30.860 -15.369  10.590  0.00  0.00    +0.000 A 
ATOM     13  C   UNL A   1     -30.204 -14.730   8.154  0.00  0.00    +0.000 A 
ATOM     14  C   UNL A   1     -31.433 -14.444   8.538  0.00  0.00    +0.000 A 
ATOM     15  C   UNL A   1     -31.782 -14.776   9.812  0.00  0.00    +0.000 A 
BRANCH  15  16
ATOM     16  C   UNL A   1     -33.140 -14.516  10.355  0.00  0.00    +0.000 C 
ATOM     17  C   UNL A   1     -34.035 -15.529  10.371  0.00  0.00    +0.000 C 
BRANCH  17  18
ATOM     18  C   UNL A   1     -35.336 -15.328  10.877  0.00  0.00    +0.000 C 
ATOM     19  C   UNL A   1     -36.035 -16.481  11.316  0.00  0.00    +0.000 C 
ENDBRANCH  17  18
ENDBRANCH  15  16
ENDBRANCH   8  10
ENDBRANCH   3   4
BRANCH   1  20
ATOM     20  C   UNL A   1     -25.043 -11.865   4.890  0.00  0.00    +0.295 C 
BRANCH  20  21
ATOM     21  O   UNL A   1     -25.088 -10.863   5.591  0.00  0.00    -0.435 OA
BRANCH  21  22
ATOM     22  C   UNL A   1     -26.076 -10.102   5.847  0.00  0.00    +0.342 C 
ATOM     23  O   UNL A   1     -26.137  -9.017   5.235  0.00  0.00    -0.245 OA
BRANCH  22  29
ATOM     24  C   UNL A   1     -28.425 -10.853   6.557  0.00  0.00    +0.006 A 
ATOM     25  C   UNL A   1     -29.179 -11.240   7.419  0.00  0.00    +0.000 A 
ATOM     26  C   UNL A   1     -28.847 -11.282   8.773  0.00  0.00    +0.000 A 
ATOM     27  C   UNL A   1     -27.509 -10.900   9.183  0.00  0.00    +0.000 A 
ATOM     28  C   UNL A   1     -26.667 -10.479   8.155  0.00  0.00    +0.006 A 
ATOM     29  C   UNL A   1     -27.061 -10.481   6.896  0.00  0.00    +0.076 A 
BRANCH  26  30
ATOM     30  C   UNL A   1     -29.604 -11.547  10.012  0.00  0.00    +0.000 A 
ATOM     31  C   UNL A   1     -30.911 -11.079  10.114  0.00  0.00    +0.000 A 
ATOM     32  C   UNL A   1     -31.645 -11.211  11.252  0.00  0.00    +0.000 A 
ATOM     33  C   UNL A   1     -31.158 -11.957  12.379  0.00  0.00    +0.000 A 
ATOM     34  C   UNL A   1     -29.152 -11.966  11.332  0.00  0.00    +0.000 A 
ATOM     35  C   UNL A   1     -29.921 -12.308  12.403  0.00  0.00    +0.000 A 
ENDBRANCH  26  30
ENDBRANCH  22  29
ENDBRANCH  21  22
ENDBRANCH  20  21
ENDBRANCH   1  20
TORSDOF 9
ENDMDL
ENDMDL
