MODEL 245
MODEL 1
REMARK VINA RESULT:    -7.820      0.000      0.000
REMARK INTER + INTRA:         -12.544
REMARK INTER:                 -11.020
REMARK INTRA:                  -1.525
REMARK UNBOUND:                -1.525
REMARK  Name = No_245-gen_results/8p0m/2024-11-26-14-13-15/
REMARK  7 active torsions:
REMARK  status: ('A' for Active; 'I' for Inactive)
REMARK    1  A    between atoms: C_3  and  C_7
REMARK    2  A    between atoms: C_6  and  C_13
REMARK    3  A    between atoms: C_13  and  O_15
REMARK    4  A    between atoms: O_15  and  C_17
REMARK    5  A    between atoms: C_17  and  C_18
REMARK    6  A    between atoms: C_18  and  C_19
REMARK    7  A    between atoms: C_19  and  C_20
REMARK                            x       y       z     vdW  Elec       q    Type
REMARK                         _______ _______ _______ _____ _____    ______ ____
ROOT
ATOM      1  C   UNL A   1     -25.161   2.287  27.414  0.00  0.00    +0.006 A 
ATOM      2  C   UNL A   1     -26.189   2.261  26.777  0.00  0.00    +0.000 A 
ATOM      3  C   UNL A   1     -26.487   1.279  25.834  0.00  0.00    +0.000 A 
ATOM      4  C   UNL A   1     -25.501   0.256  25.543  0.00  0.00    +0.000 A 
ATOM      5  C   UNL A   1     -24.323   0.336  26.286  0.00  0.00    +0.006 A 
ATOM      6  C   UNL A   1     -24.119   1.308  27.153  0.00  0.00    +0.076 A 
ENDROOT
BRANCH   3   7
ATOM      7  C   UNL A   1     -27.733   1.172  25.010  0.00  0.00    +0.002 A 
ATOM      8  C   UNL A   1     -28.384   2.198  24.498  0.00  0.00    +0.000 A 
ATOM      9  C   UNL A   1     -29.536   2.020  23.679  0.00  0.00    +0.002 A 
ATOM     10  C   UNL A   1     -29.754   0.731  23.114  0.00  0.00    +0.030 A 
ATOM     11  C   UNL A   1     -28.092  -0.106  24.405  0.00  0.00    +0.030 A 
ATOM     12  C   UNL A   1     -29.080  -0.282  23.552  0.00  0.00    +0.140 A 
ATOM     13  F   UNL A   1     -29.380  -1.523  23.116  0.00  0.00    -0.204 F 
ENDBRANCH   3   7
BRANCH   6  14
ATOM     14  C   UNL A   1     -22.809   1.379  27.857  0.00  0.00    +0.341 C 
ATOM     15  O   UNL A   1     -22.119   2.224  27.782  0.00  0.00    -0.245 OA
BRANCH  14  16
ATOM     16  O   UNL A   1     -22.510   0.276  28.571  0.00  0.00    -0.443 OA
BRANCH  16  17
ATOM     17  C   UNL A   1     -22.843   0.260  29.949  0.00  0.00    +0.242 C 
BRANCH  17  18
ATOM     18  C   UNL A   1     -23.388  -0.940  30.329  0.00  0.00    +0.200 C 
ATOM     19  O   UNL A   1     -23.187  -1.110  31.615  0.00  0.00    -0.219 OA
BRANCH  18  20
ATOM     20  C   UNL A   1     -24.724  -1.104  29.833  0.00  0.00    +0.063 C 
BRANCH  20  21
ATOM     21  C   UNL A   1     -25.103  -2.388  29.637  0.00  0.00    -0.019 A 
ATOM     22  C   UNL A   1     -25.878  -3.046  29.939  0.00  0.00    -0.004 A 
ATOM     23  C   UNL A   1     -26.145  -4.520  29.650  0.00  0.00    -0.000 A 
ATOM     24  C   UNL A   1     -25.107  -5.195  29.007  0.00  0.00    -0.000 A 
ATOM     25  C   UNL A   1     -23.969  -4.443  28.609  0.00  0.00    -0.000 A 
ATOM     26  C   UNL A   1     -23.910  -3.079  28.897  0.00  0.00    -0.004 A 
ENDBRANCH  20  21
ENDBRANCH  18  20
ENDBRANCH  17  18
ENDBRANCH  16  17
ENDBRANCH  14  16
ENDBRANCH   6  14
TORSDOF 7
ENDMDL
ENDMDL
