MODEL 2460
MODEL 1
REMARK VINA RESULT:    -8.532      0.000      0.000
REMARK INTER + INTRA:          -9.970
REMARK INTER:                  -9.529
REMARK INTRA:                  -0.441
REMARK UNBOUND:                -0.441
REMARK  Name = No_2460-gen_results/8p0m/2024-11-26-14-13-15/
REMARK  2 active torsions:
REMARK  status: ('A' for Active; 'I' for Inactive)
REMARK    1  A    between atoms: C_3  and  C_7
REMARK    2  A    between atoms: C_6  and  C_13
REMARK                            x       y       z     vdW  Elec       q    Type
REMARK                         _______ _______ _______ _____ _____    ______ ____
ROOT
ATOM      1  C   UNL A   1     -24.177   1.541  26.059  0.00  0.00    +0.268 C 
ATOM      2  N   UNL A   1     -23.821   1.052  27.160  0.00  0.00    -0.173 N 
ATOM      3  O   UNL A   1     -23.455   2.419  25.483  0.00  0.00    -0.268 OA
ATOM      4  C   UNL A   1     -22.527   1.359  27.794  0.00  0.00    +0.147 C 
ATOM      5  C   UNL A   1     -22.383   1.119  28.952  0.00  0.00    +0.015 C 
ATOM      6  C   UNL A   1     -22.952   0.058  29.419  0.00  0.00    +0.087 C 
ATOM      7  C   UNL A   1     -22.861  -0.355  30.846  0.00  0.00    +0.018 C 
ATOM      8  C   UNL A   1     -23.584  -1.446  31.366  0.00  0.00    +0.002 C 
ATOM      9  C   UNL A   1     -24.389  -2.171  30.449  0.00  0.00    +0.013 C 
ATOM     10  C   UNL A   1     -24.483  -1.813  29.124  0.00  0.00    +0.078 C 
ATOM     11  C   UNL A   1     -23.794  -0.728  28.666  0.00  0.00    +0.129 C 
ATOM     12  N   UNL A   1     -24.186  -0.170  27.435  0.00  0.00    -0.173 NA
ATOM     13  N   UNL A   1     -22.436  -0.846  29.478  0.00  0.00    -0.128 NA
ATOM     14 CL   UNL A   1     -24.434  -1.491  28.458  0.00  0.00    -0.081 Cl
ENDROOT
BRANCH   1  20
ATOM     15  C   UNL A   1     -25.692  -0.092  24.778  0.00  0.00    +0.005 A 
ATOM     16  C   UNL A   1     -26.783  -0.390  24.350  0.00  0.00    +0.000 A 
ATOM     17  C   UNL A   1     -27.889   0.457  24.399  0.00  0.00    +0.000 A 
ATOM     18  C   UNL A   1     -27.760   1.749  25.045  0.00  0.00    +0.000 A 
ATOM     19  C   UNL A   1     -26.461   2.025  25.529  0.00  0.00    +0.005 A 
ATOM     20  C   UNL A   1     -25.483   1.159  25.443  0.00  0.00    +0.055 A 
BRANCH  17  21
ATOM     21  C   UNL A   1     -29.252   0.164  23.884  0.00  0.00    +0.000 A 
ATOM     22  C   UNL A   1     -30.037   1.126  23.326  0.00  0.00    +0.000 A 
ATOM     23  C   UNL A   1     -31.331   0.826  22.896  0.00  0.00    +0.000 A 
ATOM     24  C   UNL A   1     -31.855  -0.503  22.995  0.00  0.00    +0.000 A 
ATOM     25  C   UNL A   1     -29.861  -1.102  23.965  0.00  0.00    +0.000 A 
ATOM     26  C   UNL A   1     -31.105  -1.399  23.540  0.00  0.00    +0.000 A 
ENDBRANCH  17  21
ENDBRANCH   1  20
TORSDOF 2
ENDMDL
ENDMDL
