REMARK  Name = No_2460-gen_results/8p0m/2024-11-26-14-13-15/
REMARK  2 active torsions:
REMARK  status: ('A' for Active; 'I' for Inactive)
REMARK    1  A    between atoms: C_3  and  C_7
REMARK    2  A    between atoms: C_6  and  C_13
REMARK                            x       y       z     vdW  Elec       q    Type
REMARK                         _______ _______ _______ _____ _____    ______ ____
ROOT
ATOM      1  C   UNL A   1     -29.029  -2.793  30.165  0.00  0.00    +0.268 C 
ATOM      2  N   UNL A   1     -30.194  -2.322  30.181  0.00  0.00    -0.173 N 
ATOM      3  O   UNL A   1     -28.812  -3.980  30.576  0.00  0.00    -0.268 OA
ATOM      4  C   UNL A   1     -31.377  -3.118  30.553  0.00  0.00    +0.147 C 
ATOM      5  C   UNL A   1     -32.383  -2.550  30.845  0.00  0.00    +0.015 C 
ATOM      6  C   UNL A   1     -32.667  -1.466  30.202  0.00  0.00    +0.087 C 
ATOM      7  C   UNL A   1     -33.885  -0.655  30.470  0.00  0.00    +0.018 C 
ATOM      8  C   UNL A   1     -34.121   0.586  29.847  0.00  0.00    +0.002 C 
ATOM      9  C   UNL A   1     -33.148   1.021  28.909  0.00  0.00    +0.013 C 
ATOM     10  C   UNL A   1     -32.018   0.286  28.639  0.00  0.00    +0.078 C 
ATOM     11  C   UNL A   1     -31.809  -0.896  29.290  0.00  0.00    +0.129 C 
ATOM     12  N   UNL A   1     -30.507  -1.431  29.281  0.00  0.00    -0.173 NA
ATOM     13  N   UNL A   1     -33.279  -1.487  29.359  0.00  0.00    -0.128 NA
ATOM     14 CL   UNL A   1     -31.470  -0.214  28.615  0.00  0.00    -0.081 Cl
ENDROOT
BRANCH   1  20
ATOM     15  C   UNL A   1     -28.016  -0.814  28.878  0.00  0.00    +0.005 A 
ATOM     16  C   UNL A   1     -27.064  -0.119  28.608  0.00  0.00    +0.000 A 
ATOM     17  C   UNL A   1     -25.765  -0.390  29.036  0.00  0.00    +0.000 A 
ATOM     18  C   UNL A   1     -25.530  -1.530  29.901  0.00  0.00    +0.000 A 
ATOM     19  C   UNL A   1     -26.689  -2.289  30.181  0.00  0.00    +0.005 A 
ATOM     20  C   UNL A   1     -27.873  -1.951  29.737  0.00  0.00    +0.055 A 
BRANCH  17  21
ATOM     21  C   UNL A   1     -24.549   0.410  28.734  0.00  0.00    +0.000 A 
ATOM     22  C   UNL A   1     -24.093   1.378  29.576  0.00  0.00    +0.000 A 
ATOM     23  C   UNL A   1     -22.975   2.144  29.239  0.00  0.00    +0.000 A 
ATOM     24  C   UNL A   1     -22.257   1.910  28.022  0.00  0.00    +0.000 A 
ATOM     25  C   UNL A   1     -23.798   0.273  27.552  0.00  0.00    +0.000 A 
ATOM     26  C   UNL A   1     -22.711   1.001  27.229  0.00  0.00    +0.000 A 
ENDBRANCH  17  21
ENDBRANCH   1  20
TORSDOF 2
