MODEL 2461
MODEL 1
REMARK VINA RESULT:    -5.649      0.000      0.000
REMARK INTER + INTRA:          -6.606
REMARK INTER:                  -6.309
REMARK INTRA:                  -0.297
REMARK UNBOUND:                -0.297
REMARK  Name = No_2461-gen_results/8p0m/2024-11-26-14-13-15/
REMARK  2 active torsions:
REMARK  status: ('A' for Active; 'I' for Inactive)
REMARK    1  A    between atoms: C_2  and  C_8
REMARK    2  A    between atoms: C_9  and  C_10
REMARK                            x       y       z     vdW  Elec       q    Type
REMARK                         _______ _______ _______ _____ _____    ______ ____
ROOT
ATOM      1  C   UNL A   1     -22.970  -1.001  28.751  0.00  0.00    -0.044 C 
ATOM      2  C   UNL A   1     -23.376  -1.646  29.479  0.00  0.00    -0.009 C 
ATOM      3  C   UNL A   1     -23.806   0.089  28.335  0.00  0.00    +0.022 C 
ATOM      4  C   UNL A   1     -23.274   1.172  27.482  0.00  0.00    +0.004 C 
ATOM      5  C   UNL A   1     -21.908   1.501  27.568  0.00  0.00    +0.001 C 
ATOM      6  C   UNL A   1     -21.052   0.671  28.320  0.00  0.00    +0.004 C 
ATOM      7  C   UNL A   1     -21.531  -0.409  28.964  0.00  0.00    +0.022 C 
ENDROOT
BRANCH   2   8
ATOM      8  C   UNL A   1     -24.595  -2.040  29.670  0.00  0.00    -0.001 C 
ATOM      9  C   UNL A   1     -25.193  -3.264  29.394  0.00  0.00    -0.000 C 
BRANCH   9  10
ATOM     10  C   UNL A   1     -24.432  -4.258  28.760  0.00  0.00    -0.000 C 
ATOM     11  C   UNL A   1     -24.760  -5.566  28.894  0.00  0.00    -0.000 C 
ENDBRANCH   9  10
ENDBRANCH   2   8
TORSDOF 2
ENDMDL
ENDMDL
