REMARK  Name = No_2461-gen_results/8p0m/2024-11-26-14-13-15/
REMARK  2 active torsions:
REMARK  status: ('A' for Active; 'I' for Inactive)
REMARK    1  A    between atoms: C_2  and  C_8
REMARK    2  A    between atoms: C_9  and  C_10
REMARK                            x       y       z     vdW  Elec       q    Type
REMARK                         _______ _______ _______ _____ _____    ______ ____
ROOT
ATOM      1  C   UNL A   1     -28.016  -0.814  28.878  0.00  0.00    -0.044 C 
ATOM      2  C   UNL A   1     -28.469  -0.785  29.829  0.00  0.00    -0.009 C 
ATOM      3  C   UNL A   1     -28.196   0.348  28.055  0.00  0.00    +0.022 C 
ATOM      4  C   UNL A   1     -27.442   0.510  26.795  0.00  0.00    +0.004 C 
ATOM      5  C   UNL A   1     -26.169  -0.079  26.679  0.00  0.00    +0.001 C 
ATOM      6  C   UNL A   1     -25.731  -0.961  27.688  0.00  0.00    +0.004 C 
ATOM      7  C   UNL A   1     -26.504  -1.222  28.758  0.00  0.00    +0.022 C 
ENDROOT
BRANCH   2   8
ATOM      8  C   UNL A   1     -29.580  -0.243  30.217  0.00  0.00    -0.001 C 
ATOM      9  C   UNL A   1     -30.311  -0.438  31.383  0.00  0.00    -0.000 C 
BRANCH   9  10
ATOM     10  C   UNL A   1     -29.865  -1.397  32.305  0.00  0.00    -0.000 C 
ATOM     11  C   UNL A   1     -28.774  -2.154  32.037  0.00  0.00    -0.000 C 
ENDBRANCH   9  10
ENDBRANCH   2   8
TORSDOF 2
