MODEL 2462
MODEL 1
REMARK VINA RESULT:    -4.429      0.000      0.000
REMARK INTER + INTRA:          -4.429
REMARK INTER:                  -4.429
REMARK INTRA:                   0.000
REMARK UNBOUND:                 0.000
REMARK  Name = No_2462-gen_results/8p0m/2024-11-26-14-13-15/
REMARK  0 active torsions:
REMARK  status: ('A' for Active; 'I' for Inactive)
REMARK                            x       y       z     vdW  Elec       q    Type
REMARK                         _______ _______ _______ _____ _____    ______ ____
ROOT
ATOM      1  C   UNL A   1      -9.172  -9.261  20.049  0.00  0.00    +0.011 A 
ATOM      2  C   UNL A   1      -8.356  -9.885  19.815  0.00  0.00    +0.058 A 
ATOM      3  C   UNL A   1     -10.281  -9.227  19.021  0.00  0.00    +0.001 A 
ATOM      4  C   UNL A   1     -10.231 -10.109  17.922  0.00  0.00    +0.000 A 
ATOM      5  C   UNL A   1      -8.076 -10.907  18.781  0.00  0.00    +0.011 A 
ATOM      6  C   UNL A   1      -9.078 -10.910  17.821  0.00  0.00    +0.001 A 
ATOM      7 CL   UNL A   1      -7.019  -9.936  21.058  0.00  0.00    -0.082 Cl
ENDROOT
TORSDOF 0
ENDMDL
ENDMDL
