REMARK  Name = No_2463-gen_results/8p0m/2024-11-26-14-13-15/
REMARK  5 active torsions:
REMARK  status: ('A' for Active; 'I' for Inactive)
REMARK    1  A    between atoms: C_3  and  C_7
REMARK    2  A    between atoms: C_6  and  C_13
REMARK    3  A    between atoms: N_14  and  C_16
REMARK    4  A    between atoms: C_16  and  C_18
REMARK    5  A    between atoms: C_19  and  C_20
REMARK                            x       y       z     vdW  Elec       q    Type
REMARK                         _______ _______ _______ _____ _____    ______ ____
ROOT
ATOM      1  C   UNL A   1     -28.016  -0.814  28.878  0.00  0.00    +0.005 A 
ATOM      2  C   UNL A   1     -27.064  -0.119  28.608  0.00  0.00    +0.000 A 
ATOM      3  C   UNL A   1     -25.765  -0.390  29.036  0.00  0.00    +0.000 A 
ATOM      4  C   UNL A   1     -25.530  -1.530  29.901  0.00  0.00    +0.000 A 
ATOM      5  C   UNL A   1     -26.658  -2.292  30.203  0.00  0.00    +0.005 A 
ATOM      6  C   UNL A   1     -27.855  -1.956  29.763  0.00  0.00    +0.055 A 
ENDROOT
BRANCH   3   7
ATOM      7  C   UNL A   1     -24.535   0.413  28.743  0.00  0.00    +0.000 A 
ATOM      8  C   UNL A   1     -23.306   0.037  29.039  0.00  0.00    +0.000 A 
ATOM      9  C   UNL A   1     -22.176   0.828  28.684  0.00  0.00    +0.000 A 
ATOM     10  C   UNL A   1     -22.355   1.829  27.688  0.00  0.00    +0.000 A 
ATOM     11  C   UNL A   1     -24.594   1.495  27.768  0.00  0.00    +0.000 A 
ATOM     12  C   UNL A   1     -23.550   2.170  27.330  0.00  0.00    +0.000 A 
ENDBRANCH   3   7
BRANCH   6  13
ATOM     13  C   UNL A   1     -29.023  -2.773  30.185  0.00  0.00    +0.265 C 
ATOM     14  N   UNL A   1     -30.151  -2.359  30.214  0.00  0.00    -0.199 NA
ATOM     15  O   UNL A   1     -28.773  -3.987  30.603  0.00  0.00    -0.268 OA
BRANCH  14  16
ATOM     16  C   UNL A   1     -31.342  -3.160  30.596  0.00  0.00    +0.118 C 
ATOM     17  C   UNL A   1     -31.422  -3.990  31.267  0.00  0.00    +0.028 C 
BRANCH  16  18
ATOM     18  C   UNL A   1     -32.489  -2.577  29.853  0.00  0.00    -0.005 C 
ATOM     19  C   UNL A   1     -32.553  -1.331  29.381  0.00  0.00    -0.003 C 
BRANCH  19  20
ATOM     20  C   UNL A   1     -33.263  -0.986  28.349  0.00  0.00    -0.005 C 
ATOM     21  C   UNL A   1     -34.204  -1.881  27.820  0.00  0.00    -0.026 C 
ATOM     22  C   UNL A   1     -34.201  -3.198  28.257  0.00  0.00    +0.031 C 
ENDBRANCH  19  20
ENDBRANCH  16  18
ENDBRANCH  14  16
ENDBRANCH   6  13
TORSDOF 5
