MODEL 2463
MODEL 1
REMARK VINA RESULT:    -6.907      0.000      0.000
REMARK INTER + INTRA:          -9.690
REMARK INTER:                  -8.926
REMARK INTRA:                  -0.764
REMARK UNBOUND:                -0.764
REMARK  Name = No_2463-gen_results/8p0m/2024-11-26-14-13-15/
REMARK  5 active torsions:
REMARK  status: ('A' for Active; 'I' for Inactive)
REMARK    1  A    between atoms: C_3  and  C_7
REMARK    2  A    between atoms: C_6  and  C_13
REMARK    3  A    between atoms: N_14  and  C_16
REMARK    4  A    between atoms: C_16  and  C_18
REMARK    5  A    between atoms: C_19  and  C_20
REMARK                            x       y       z     vdW  Elec       q    Type
REMARK                         _______ _______ _______ _____ _____    ______ ____
ROOT
ATOM      1  C   UNL A   1      -6.636  -1.854  34.506  0.00  0.00    +0.005 A 
ATOM      2  C   UNL A   1      -5.531  -2.255  34.222  0.00  0.00    +0.000 A 
ATOM      3  C   UNL A   1      -4.358  -1.570  34.535  0.00  0.00    +0.000 A 
ATOM      4  C   UNL A   1      -4.448  -0.276  35.183  0.00  0.00    +0.000 A 
ATOM      5  C   UNL A   1      -5.741   0.157  35.474  0.00  0.00    +0.005 A 
ATOM      6  C   UNL A   1      -6.799  -0.552  35.131  0.00  0.00    +0.055 A 
ENDROOT
BRANCH   3   7
ATOM      7  C   UNL A   1      -2.956  -1.998  34.226  0.00  0.00    +0.000 A 
ATOM      8  C   UNL A   1      -2.506  -2.274  33.017  0.00  0.00    +0.000 A 
ATOM      9  C   UNL A   1      -1.145  -2.625  32.789  0.00  0.00    +0.000 A 
ATOM     10  C   UNL A   1      -0.200  -2.312  33.807  0.00  0.00    +0.000 A 
ATOM     11  C   UNL A   1      -1.899  -1.768  35.203  0.00  0.00    +0.000 A 
ATOM     12  C   UNL A   1      -0.615  -1.973  34.983  0.00  0.00    +0.000 A 
ENDBRANCH   3   7
BRANCH   6  13
ATOM     13  C   UNL A   1      -8.149   0.006  35.407  0.00  0.00    +0.265 C 
ATOM     14  N   UNL A   1      -8.664  -0.001  36.493  0.00  0.00    -0.199 NA
ATOM     15  O   UNL A   1      -8.817   0.467  34.382  0.00  0.00    -0.268 OA
BRANCH  14  16
ATOM     16  C   UNL A   1      -9.995   0.579  36.807  0.00  0.00    +0.118 C 
ATOM     17  C   UNL A   1     -10.275   1.600  36.969  0.00  0.00    +0.028 C 
BRANCH  16  18
ATOM     18  C   UNL A   1     -10.944  -0.562  36.855  0.00  0.00    -0.005 C 
ATOM     19  C   UNL A   1     -10.806  -1.654  37.609  0.00  0.00    -0.003 C 
BRANCH  19  20
ATOM     20  C   UNL A   1     -11.804  -2.366  38.037  0.00  0.00    -0.005 C 
ATOM     21  C   UNL A   1     -12.056  -2.457  39.414  0.00  0.00    -0.026 C 
ATOM     22  C   UNL A   1     -11.107  -1.979  40.305  0.00  0.00    +0.031 C 
ENDBRANCH  19  20
ENDBRANCH  16  18
ENDBRANCH  14  16
ENDBRANCH   6  13
TORSDOF 5
ENDMDL
ENDMDL
