MODEL 2464
MODEL 1
REMARK VINA RESULT:    -6.836      0.000      0.000
REMARK INTER + INTRA:          -7.160
REMARK INTER:                  -7.235
REMARK INTRA:                   0.075
REMARK UNBOUND:                 0.075
REMARK  Name = No_2464-gen_results/8p0m/2024-11-26-14-13-15/
REMARK  1 active torsions:
REMARK  status: ('A' for Active; 'I' for Inactive)
REMARK    1  A    between atoms: C_2  and  C_7
REMARK                            x       y       z     vdW  Elec       q    Type
REMARK                         _______ _______ _______ _____ _____    ______ ____
ROOT
ATOM      1  C   UNL A   1     -24.216  -1.175  29.101  0.00  0.00    +0.251 C 
ATOM      2  O   UNL A   1     -24.557  -0.668  28.171  0.00  0.00    -0.270 OA
ATOM      3  N   UNL A   1     -23.631  -0.533  30.197  0.00  0.00    -0.248 N 
ATOM      4  C   UNL A   1     -23.598   0.441  30.486  0.00  0.00    +0.096 C 
ATOM      5  C   UNL A   1     -23.921   1.196  31.236  0.00  0.00    +0.024 C 
ATOM      6  C   UNL A   1     -24.696   0.599  32.366  0.00  0.00    +0.039 C 
ATOM      7  C   UNL A   1     -24.528  -0.749  32.561  0.00  0.00    +0.204 C 
ATOM      8  C   UNL A   1     -23.859  -1.375  31.511  0.00  0.00    +0.270 C 
ATOM      9  F   UNL A   1     -22.710  -1.530  32.164  0.00  0.00    -0.212 F 
ATOM     10  O   UNL A   1     -24.123  -1.097  33.851  0.00  0.00    -0.218 OA
ENDROOT
BRANCH   1  12
ATOM     11  C   UNL A   1     -23.802  -3.384  28.712  0.00  0.00    +0.004 A 
ATOM     12  C   UNL A   1     -24.526  -2.751  29.143  0.00  0.00    +0.054 A 
ATOM     13  C   UNL A   1     -24.125  -4.861  28.753  0.00  0.00    +0.000 A 
ATOM     14  C   UNL A   1     -25.390  -5.280  29.215  0.00  0.00    +0.000 A 
ATOM     15  C   UNL A   1     -25.907  -2.921  29.648  0.00  0.00    +0.004 A 
ATOM     16  C   UNL A   1     -26.241  -4.267  29.695  0.00  0.00    +0.000 A 
ENDBRANCH   1  12
TORSDOF 1
ENDMDL
ENDMDL
