REMARK  Name = No_2464-gen_results/8p0m/2024-11-26-14-13-15/
REMARK  1 active torsions:
REMARK  status: ('A' for Active; 'I' for Inactive)
REMARK    1  A    between atoms: C_2  and  C_7
REMARK                            x       y       z     vdW  Elec       q    Type
REMARK                         _______ _______ _______ _____ _____    ______ ____
ROOT
ATOM      1  C   UNL A   1     -30.074  -0.836  29.861  0.00  0.00    +0.251 C 
ATOM      2  O   UNL A   1     -30.561  -0.442  28.942  0.00  0.00    -0.270 OA
ATOM      3  N   UNL A   1     -30.749  -1.403  30.947  0.00  0.00    -0.248 N 
ATOM      4  C   UNL A   1     -31.690  -1.773  31.055  0.00  0.00    +0.096 C 
ATOM      5  C   UNL A   1     -32.317  -2.676  31.223  0.00  0.00    +0.024 C 
ATOM      6  C   UNL A   1     -31.508  -3.912  31.449  0.00  0.00    +0.039 C 
ATOM      7  C   UNL A   1     -30.210  -3.714  31.849  0.00  0.00    +0.204 C 
ATOM      8  C   UNL A   1     -29.797  -2.388  31.729  0.00  0.00    +0.270 C 
ATOM      9  F   UNL A   1     -29.831  -2.123  33.033  0.00  0.00    -0.212 F 
ATOM     10  O   UNL A   1     -29.868  -4.366  33.035  0.00  0.00    -0.218 OA
ENDROOT
BRANCH   1  12
ATOM     11  C   UNL A   1     -28.016  -0.814  28.878  0.00  0.00    +0.004 A 
ATOM     12  C   UNL A   1     -28.469  -0.785  29.829  0.00  0.00    +0.054 A 
ATOM     13  C   UNL A   1     -26.504  -0.778  28.877  0.00  0.00    +0.000 A 
ATOM     14  C   UNL A   1     -25.810  -0.853  30.103  0.00  0.00    +0.000 A 
ATOM     15  C   UNL A   1     -27.991  -0.892  31.226  0.00  0.00    +0.004 A 
ATOM     16  C   UNL A   1     -26.604  -0.868  31.265  0.00  0.00    +0.000 A 
ENDBRANCH   1  12
TORSDOF 1
