MODEL 2465
MODEL 1
REMARK VINA RESULT:    -8.190      0.000      0.000
REMARK INTER + INTRA:         -14.202
REMARK INTER:                 -12.020
REMARK INTRA:                  -2.182
REMARK UNBOUND:                -2.182
REMARK  Name = No_2465-gen_results/8p0m/2024-11-26-14-13-15/
REMARK  8 active torsions:
REMARK  status: ('A' for Active; 'I' for Inactive)
REMARK    1  A    between atoms: C_2  and  C_7
REMARK    2  A    between atoms: C_5  and  C_20
REMARK    3  A    between atoms: C_7  and  C_8
REMARK    4  A    between atoms: C_9  and  C_10
REMARK    5  A    between atoms: C_11  and  C_12
REMARK    6  A    between atoms: C_12  and  C_17
REMARK    7  A    between atoms: C_20  and  O_21
REMARK    8  A    between atoms: O_21  and  C_26
REMARK                            x       y       z     vdW  Elec       q    Type
REMARK                         _______ _______ _______ _____ _____    ______ ____
ROOT
ATOM      1  C   UNL A   1     -23.563   1.286  28.259  0.00  0.00    +0.003 A 
ATOM      2  C   UNL A   1     -22.889   1.662  27.328  0.00  0.00    -0.018 A 
ATOM      3  C   UNL A   1     -21.573   1.367  27.175  0.00  0.00    -0.004 A 
ATOM      4  C   UNL A   1     -20.948   0.575  28.157  0.00  0.00    -0.000 A 
ATOM      5  C   UNL A   1     -23.014   0.394  29.249  0.00  0.00    +0.076 A 
ATOM      6  C   UNL A   1     -21.688   0.091  29.157  0.00  0.00    +0.006 A 
ENDROOT
BRANCH   5   7
ATOM      7  C   UNL A   1     -23.846  -0.060  30.391  0.00  0.00    +0.346 C 
ATOM      8  O   UNL A   1     -24.257   0.730  31.290  0.00  0.00    -0.244 OA
BRANCH   7   9
ATOM      9  O   UNL A   1     -24.052  -1.205  30.525  0.00  0.00    -0.418 OA
BRANCH   9  10
ATOM     10  C   UNL A   1     -24.539  -2.070  30.031  0.00  0.00    +0.187 A 
ATOM     11  C   UNL A   1     -25.790  -2.465  30.310  0.00  0.00    +0.230 A 
ATOM     12  C   UNL A   1     -26.280  -3.585  30.036  0.00  0.00    +0.045 A 
ATOM     13  C   UNL A   1     -25.601  -4.502  29.139  0.00  0.00    +0.004 A 
ATOM     14  C   UNL A   1     -24.355  -4.107  28.769  0.00  0.00    +0.003 A 
ATOM     15  C   UNL A   1     -23.743  -2.924  29.210  0.00  0.00    +0.041 A 
ATOM     16  O   UNL A   1     -26.573  -1.604  31.102  0.00  0.00    -0.283 OA
ENDBRANCH   9  10
ENDBRANCH   7   9
ENDBRANCH   5   7
BRANCH   2  17
ATOM     17  C   UNL A   1     -23.455   2.513  26.203  0.00  0.00    +0.052 C 
BRANCH  17  18
ATOM     18  C   UNL A   1     -24.889   2.459  26.000  0.00  0.00    -0.017 A 
ATOM     19  C   UNL A   1     -25.665   1.645  25.707  0.00  0.00    +0.068 A 
ATOM     20  C   UNL A   1     -25.512   3.859  26.398  0.00  0.00    -0.015 A 
ATOM     21  C   UNL A   1     -27.153   1.766  25.772  0.00  0.00    +0.004 A 
ATOM     22  C   UNL A   1     -27.837   2.809  26.282  0.00  0.00    -0.000 A 
ATOM     23  C   UNL A   1     -27.086   3.767  26.383  0.00  0.00    -0.004 A 
BRANCH  19  24
ATOM     24  C   UNL A   1     -25.302   0.345  25.185  0.00  0.00    +0.418 C 
ATOM     25  F   UNL A   1     -24.254   0.289  24.407  0.00  0.00    -0.166 F 
ATOM     26  F   UNL A   1     -26.267  -0.335  24.512  0.00  0.00    -0.166 F 
ATOM     27  F   UNL A   1     -25.067  -0.506  26.249  0.00  0.00    -0.166 F 
ENDBRANCH  19  24
BRANCH  20  28
ATOM     28  C   UNL A   1     -25.188   4.659  27.277  0.00  0.00    +0.125 C 
ATOM     29  C   UNL A   1     -24.815   5.977  27.010  0.00  0.00    +0.017 C 
BRANCH  28  30
ATOM     30  C   UNL A   1     -25.742   4.475  28.612  0.00  0.00    +0.368 C 
ATOM     31  O   UNL A   1     -26.433   5.284  29.023  0.00  0.00    -0.245 OA
ATOM     32  O   UNL A   1     -25.475   3.369  29.339  0.00  0.00    -0.245 OA
ENDBRANCH  28  30
ENDBRANCH  20  28
ENDBRANCH  17  18
ENDBRANCH   2  17
TORSDOF 8
ENDMDL
ENDMDL
