REMARK  Name = No_2465-gen_results/8p0m/2024-11-26-14-13-15/
REMARK  8 active torsions:
REMARK  status: ('A' for Active; 'I' for Inactive)
REMARK    1  A    between atoms: C_2  and  C_7
REMARK    2  A    between atoms: C_5  and  C_20
REMARK    3  A    between atoms: C_7  and  C_8
REMARK    4  A    between atoms: C_9  and  C_10
REMARK    5  A    between atoms: C_11  and  C_12
REMARK    6  A    between atoms: C_12  and  C_17
REMARK    7  A    between atoms: C_20  and  O_21
REMARK    8  A    between atoms: O_21  and  C_26
REMARK                            x       y       z     vdW  Elec       q    Type
REMARK                         _______ _______ _______ _____ _____    ______ ____
ROOT
ATOM      1  C   UNL A   1     -28.016  -0.814  28.878  0.00  0.00    +0.003 A 
ATOM      2  C   UNL A   1     -27.064  -0.119  28.608  0.00  0.00    -0.018 A 
ATOM      3  C   UNL A   1     -26.929   1.171  29.008  0.00  0.00    -0.004 A 
ATOM      4  C   UNL A   1     -27.956   1.741  29.784  0.00  0.00    -0.000 A 
ATOM      5  C   UNL A   1     -29.057  -0.327  29.747  0.00  0.00    +0.076 A 
ATOM      6  C   UNL A   1     -28.983   0.972  30.152  0.00  0.00    +0.006 A 
ENDROOT
BRANCH   5   7
ATOM      7  C   UNL A   1     -30.225  -1.185  30.070  0.00  0.00    +0.346 C 
ATOM      8  O   UNL A   1     -31.415  -0.838  29.816  0.00  0.00    -0.244 OA
BRANCH   7   9
ATOM      9  O   UNL A   1     -30.054  -2.176  30.670  0.00  0.00    -0.418 OA
BRANCH   9  10
ATOM     10  C   UNL A   1     -30.593  -2.948  31.256  0.00  0.00    +0.187 A 
ATOM     11  C   UNL A   1     -30.470  -4.264  31.024  0.00  0.00    +0.230 A 
ATOM     12  C   UNL A   1     -31.261  -5.151  31.419  0.00  0.00    +0.045 A 
ATOM     13  C   UNL A   1     -32.282  -4.860  32.409  0.00  0.00    +0.004 A 
ATOM     14  C   UNL A   1     -32.394  -3.546  32.731  0.00  0.00    +0.003 A 
ATOM     15  C   UNL A   1     -31.612  -2.529  32.163  0.00  0.00    +0.041 A 
ATOM     16  O   UNL A   1     -29.447  -4.667  30.145  0.00  0.00    -0.283 OA
ENDBRANCH   9  10
ENDBRANCH   7   9
ENDBRANCH   5   7
BRANCH   2  17
ATOM     17  C   UNL A   1     -25.891  -0.626  27.786  0.00  0.00    +0.052 C 
BRANCH  17  18
ATOM     18  C   UNL A   1     -24.569  -0.199  28.200  0.00  0.00    -0.017 A 
ATOM     19  C   UNL A   1     -23.641  -0.699  28.689  0.00  0.00    +0.068 A 
ATOM     20  C   UNL A   1     -24.355   1.302  27.747  0.00  0.00    -0.015 A 
ATOM     21  C   UNL A   1     -22.277  -0.104  28.828  0.00  0.00    +0.004 A 
ATOM     22  C   UNL A   1     -21.875   1.074  28.313  0.00  0.00    -0.000 A 
ATOM     23  C   UNL A   1     -22.858   1.728  28.000  0.00  0.00    -0.004 A 
BRANCH  19  24
ATOM     24  C   UNL A   1     -23.665  -2.015  29.291  0.00  0.00    +0.418 C 
ATOM     25  F   UNL A   1     -23.832  -2.073  30.585  0.00  0.00    -0.166 F 
ATOM     26  F   UNL A   1     -22.597  -2.819  29.045  0.00  0.00    -0.166 F 
ATOM     27  F   UNL A   1     -24.688  -2.743  28.713  0.00  0.00    -0.166 F 
ENDBRANCH  19  24
BRANCH  20  28
ATOM     28  C   UNL A   1     -24.755   1.903  26.748  0.00  0.00    +0.125 C 
ATOM     29  C   UNL A   1     -25.477   1.287  25.725  0.00  0.00    +0.017 C 
BRANCH  28  30
ATOM     30  C   UNL A   1     -25.023   3.330  26.865  0.00  0.00    +0.368 C 
ATOM     31  O   UNL A   1     -24.134   4.045  26.874  0.00  0.00    -0.245 OA
ATOM     32  O   UNL A   1     -26.285   3.806  26.932  0.00  0.00    -0.245 OA
ENDBRANCH  28  30
ENDBRANCH  20  28
ENDBRANCH  17  18
ENDBRANCH   2  17
TORSDOF 8
