MODEL 2466
MODEL 1
REMARK VINA RESULT:    -6.522      0.000      0.000
REMARK INTER + INTRA:          -7.300
REMARK INTER:                  -6.903
REMARK INTRA:                  -0.397
REMARK UNBOUND:                -0.397
REMARK  Name = No_2466-gen_results/8p0m/2024-11-26-14-13-15/
REMARK  1 active torsions:
REMARK  status: ('A' for Active; 'I' for Inactive)
REMARK    1  A    between atoms: C_3  and  C_4
REMARK                            x       y       z     vdW  Elec       q    Type
REMARK                         _______ _______ _______ _____ _____    ______ ____
ROOT
ATOM      1  C   UNL A   1     -25.836  -2.615  29.823  0.00  0.00    +0.000 A 
ATOM      2  C   UNL A   1     -26.401  -3.499  29.917  0.00  0.00    +0.000 A 
ATOM      3  C   UNL A   1     -24.549  -2.713  29.251  0.00  0.00    +0.000 A 
ATOM      4  C   UNL A   1     -26.090  -4.895  29.562  0.00  0.00    +0.000 A 
ATOM      5  C   UNL A   1     -24.829  -5.069  28.992  0.00  0.00    +0.000 A 
ATOM      6  C   UNL A   1     -24.043  -3.983  28.777  0.00  0.00    +0.000 A 
ENDROOT
BRANCH   3   7
ATOM      7  C   UNL A   1     -23.670  -1.554  28.947  0.00  0.00    +0.000 A 
ATOM      8  C   UNL A   1     -22.642  -1.209  29.277  0.00  0.00    +0.000 A 
ATOM      9  C   UNL A   1     -21.866  -0.072  28.901  0.00  0.00    +0.000 A 
ATOM     10  C   UNL A   1     -22.578   0.802  27.977  0.00  0.00    +0.000 A 
ATOM     11  C   UNL A   1     -23.794   0.479  27.640  0.00  0.00    +0.000 A 
ATOM     12  C   UNL A   1     -24.391  -0.619  28.038  0.00  0.00    +0.000 A 
ENDBRANCH   3   7
TORSDOF 1
ENDMDL
ENDMDL
