REMARK  Name = No_2467-gen_results/8p0m/2024-11-26-14-13-15/
REMARK  0 active torsions:
REMARK  status: ('A' for Active; 'I' for Inactive)
REMARK                            x       y       z     vdW  Elec       q    Type
REMARK                         _______ _______ _______ _____ _____    ______ ____
ROOT
ATOM      1  O   UNL A   1     -28.123  -1.335  28.487  0.00  0.00    -0.275 OA
ATOM      2  C   UNL A   1     -27.481  -0.404  28.709  0.00  0.00    +0.230 C 
ATOM      3  C   UNL A   1     -26.380  -0.087  27.939  0.00  0.00    +0.111 C 
ATOM      4  N   UNL A   1     -27.423   0.175  30.055  0.00  0.00    -0.273 N 
ATOM      5  C   UNL A   1     -25.848   1.005  27.994  0.00  0.00    -0.015 A 
ATOM      6  C   UNL A   1     -24.753   1.524  27.144  0.00  0.00    -0.004 A 
ATOM      7  C   UNL A   1     -23.864   2.549  27.541  0.00  0.00    -0.000 A 
ATOM      8  C   UNL A   1     -26.697   1.309  30.282  0.00  0.00    +0.120 C 
ATOM      9  C   UNL A   1     -25.755   1.816  29.277  0.00  0.00    -0.006 A 
ATOM     10  C   UNL A   1     -24.116   3.227  28.657  0.00  0.00    -0.000 A 
ATOM     11  C   UNL A   1     -24.955   2.877  29.557  0.00  0.00    -0.003 A 
ATOM     12  C   UNL A   1     -28.442  -0.315  30.975  0.00  0.00    +0.115 C 
ENDROOT
TORSDOF 0
