MODEL 2467
MODEL 1
REMARK VINA RESULT:    -5.352      0.000      0.000
REMARK INTER + INTRA:          -5.352
REMARK INTER:                  -5.352
REMARK INTRA:                   0.000
REMARK UNBOUND:                 0.000
REMARK  Name = No_2467-gen_results/8p0m/2024-11-26-14-13-15/
REMARK  0 active torsions:
REMARK  status: ('A' for Active; 'I' for Inactive)
REMARK                            x       y       z     vdW  Elec       q    Type
REMARK                         _______ _______ _______ _____ _____    ______ ____
ROOT
ATOM      1  O   UNL A   1     -27.174 -11.941  34.523  0.00  0.00    -0.275 OA
ATOM      2  C   UNL A   1     -27.867 -11.501  33.714  0.00  0.00    +0.230 C 
ATOM      3  C   UNL A   1     -27.747 -11.862  32.387  0.00  0.00    +0.111 C 
ATOM      4  N   UNL A   1     -28.514 -10.197  33.895  0.00  0.00    -0.273 N 
ATOM      5  C   UNL A   1     -28.613 -11.613  31.570  0.00  0.00    -0.015 A 
ATOM      6  C   UNL A   1     -28.679 -12.047  30.157  0.00  0.00    -0.004 A 
ATOM      7  C   UNL A   1     -29.397 -11.359  29.153  0.00  0.00    -0.000 A 
ATOM      8  C   UNL A   1     -29.373  -9.721  32.946  0.00  0.00    +0.120 C 
ATOM      9  C   UNL A   1     -29.462 -10.352  31.624  0.00  0.00    -0.006 A 
ATOM     10  C   UNL A   1     -30.216 -10.372  29.504  0.00  0.00    -0.000 A 
ATOM     11  C   UNL A   1     -30.233  -9.803  30.650  0.00  0.00    -0.003 A 
ATOM     12  C   UNL A   1     -28.458  -9.671  35.253  0.00  0.00    +0.115 C 
ENDROOT
TORSDOF 0
ENDMDL
ENDMDL
