REMARK  Name = No_2468-gen_results/8p0m/2024-11-26-14-13-15/
REMARK  2 active torsions:
REMARK  status: ('A' for Active; 'I' for Inactive)
REMARK    1  A    between atoms: C_2  and  C_3
REMARK    2  A    between atoms: C_3  and  C_5
REMARK                            x       y       z     vdW  Elec       q    Type
REMARK                         _______ _______ _______ _____ _____    ______ ____
ROOT
ATOM      1  C   UNL A   1     -25.177  -0.439  28.395  0.00  0.00    -0.013 A 
ATOM      2  C   UNL A   1     -23.928  -0.247  27.668  0.00  0.00    -0.004 A 
ATOM      3  C   UNL A   1     -22.698  -0.405  28.436  0.00  0.00    -0.000 A 
ATOM      4  C   UNL A   1     -22.780  -1.146  29.671  0.00  0.00    -0.000 A 
ATOM      5  C   UNL A   1     -23.969  -1.463  30.250  0.00  0.00    -0.000 A 
ATOM      6  C   UNL A   1     -25.152  -1.125  29.655  0.00  0.00    -0.004 A 
ENDROOT
BRANCH   1   7
ATOM      7  C   UNL A   1     -26.380  -0.087  27.939  0.00  0.00    +0.113 C 
BRANCH   7   9
ATOM      8  O   UNL A   1     -28.123  -1.335  28.487  0.00  0.00    -0.273 OA
ATOM      9  C   UNL A   1     -27.481  -0.404  28.709  0.00  0.00    +0.246 C 
ATOM     10  N   UNL A   1     -27.666   0.447  29.899  0.00  0.00    -0.203 NA
ATOM     11  C   UNL A   1     -28.760   0.197  30.770  0.00  0.00    +0.139 C 
ENDBRANCH   7   9
ENDBRANCH   1   7
TORSDOF 2
