MODEL 2468
MODEL 1
REMARK VINA RESULT:    -5.086      0.000      0.000
REMARK INTER + INTRA:          -5.773
REMARK INTER:                  -5.681
REMARK INTRA:                  -0.093
REMARK UNBOUND:                -0.093
REMARK  Name = No_2468-gen_results/8p0m/2024-11-26-14-13-15/
REMARK  2 active torsions:
REMARK  status: ('A' for Active; 'I' for Inactive)
REMARK    1  A    between atoms: C_2  and  C_3
REMARK    2  A    between atoms: C_3  and  C_5
REMARK                            x       y       z     vdW  Elec       q    Type
REMARK                         _______ _______ _______ _____ _____    ______ ____
ROOT
ATOM      1  C   UNL A   1     -24.273  -2.734  29.284  0.00  0.00    -0.013 A 
ATOM      2  C   UNL A   1     -25.486  -2.537  30.068  0.00  0.00    -0.004 A 
ATOM      3  C   UNL A   1     -26.492  -3.590  29.986  0.00  0.00    -0.000 A 
ATOM      4  C   UNL A   1     -26.054  -4.888  29.532  0.00  0.00    -0.000 A 
ATOM      5  C   UNL A   1     -24.840  -5.083  28.951  0.00  0.00    -0.000 A 
ATOM      6  C   UNL A   1     -23.956  -4.051  28.810  0.00  0.00    -0.004 A 
ENDROOT
BRANCH   1   7
ATOM      7  C   UNL A   1     -23.374  -1.783  29.028  0.00  0.00    +0.113 C 
BRANCH   7   9
ATOM      8  O   UNL A   1     -22.477  -0.933  30.864  0.00  0.00    -0.273 OA
ATOM      9  C   UNL A   1     -23.195  -0.792  29.973  0.00  0.00    +0.246 C 
ATOM     10  N   UNL A   1     -23.868   0.483  29.664  0.00  0.00    -0.203 NA
ATOM     11  C   UNL A   1     -23.735   1.575  30.563  0.00  0.00    +0.139 C 
ENDBRANCH   7   9
ENDBRANCH   1   7
TORSDOF 2
ENDMDL
ENDMDL
