REMARK  Name = No_2469-gen_results/8p0m/2024-11-26-14-13-15/
REMARK  2 active torsions:
REMARK  status: ('A' for Active; 'I' for Inactive)
REMARK    1  A    between atoms: C_2  and  C_8
REMARK    2  A    between atoms: C_3  and  P_11
REMARK                            x       y       z     vdW  Elec       q    Type
REMARK                         _______ _______ _______ _____ _____    ______ ____
ROOT
ATOM      1  C   UNL A   1     -28.016  -0.814  28.878  0.00  0.00    +0.010 A 
ATOM      2  C   UNL A   1     -28.469  -0.785  29.829  0.00  0.00    +0.080 A 
ATOM      3  C   UNL A   1     -26.546  -0.876  28.850  0.00  0.00    +0.035 A 
ATOM      4  C   UNL A   1     -25.804  -1.032  30.057  0.00  0.00    +0.037 A 
ATOM      5  C   UNL A   1     -26.537  -1.039  31.217  0.00  0.00    +0.007 A 
ATOM      6  C   UNL A   1     -27.884  -0.953  31.186  0.00  0.00    +0.007 A 
ATOM      7 BR   UNL A   1     -23.963  -1.137  30.039  0.00  0.00    -0.049 Br
ENDROOT
BRANCH   3   8
ATOM      8  P   UNL A   1     -25.501  -0.774  27.334  0.00  0.00    +0.140 P 
ATOM      9  O   UNL A   1     -24.251  -0.358  27.823  0.00  0.00    -0.354 OA
ATOM     10  O   UNL A   1     -26.180   0.419  26.667  0.00  0.00    -0.456 OA
ATOM     11  O   UNL A   1     -25.575  -1.939  26.607  0.00  0.00    -0.354 OA
ENDBRANCH   3   8
BRANCH   2  12
ATOM     12  C   UNL A   1     -30.068  -0.635  29.741  0.00  0.00    +0.388 C 
ATOM     13  O   UNL A   1     -30.614   0.300  30.402  0.00  0.00    -0.241 OA
ATOM     14  O   UNL A   1     -30.667  -1.455  29.084  0.00  0.00    -0.241 OA
ENDBRANCH   2  12
TORSDOF 2
