MODEL 246
MODEL 1
REMARK VINA RESULT:    -6.312      0.000      0.000
REMARK INTER + INTRA:          -8.041
REMARK INTER:                  -7.419
REMARK INTRA:                  -0.622
REMARK UNBOUND:                -0.622
REMARK  Name = No_246-gen_results/8p0m/2024-11-26-14-13-15/
REMARK  3 active torsions:
REMARK  status: ('A' for Active; 'I' for Inactive)
REMARK    1  A    between atoms: C_1  and  C_8
REMARK    2  A    between atoms: C_3  and  C_16
REMARK    3  A    between atoms: C_6  and  C_13
REMARK                            x       y       z     vdW  Elec       q    Type
REMARK                         _______ _______ _______ _____ _____    ______ ____
ROOT
ATOM      1  C   UNL A   1     -24.007   2.148  26.317  0.00  0.00    +0.067 C 
ATOM      2  C   UNL A   1     -24.059   1.093  26.907  0.00  0.00    -0.032 C 
ATOM      3  C   UNL A   1     -25.047   0.137  26.746  0.00  0.00    +0.093 C 
ATOM      4  C   UNL A   1     -25.178  -1.091  27.494  0.00  0.00    +0.029 C 
ATOM      5  C   UNL A   1     -24.218  -1.381  28.491  0.00  0.00    +0.092 C 
ATOM      6  C   UNL A   1     -23.174  -0.442  28.705  0.00  0.00    +0.122 C 
ATOM      7  C   UNL A   1     -23.153   0.702  27.968  0.00  0.00    +0.035 C 
ATOM      8 CL   UNL A   1     -24.250  -2.848  29.336  0.00  0.00    -0.114 Cl
ENDROOT
BRANCH   1   9
ATOM      9  C   UNL A   1     -22.804   2.307  25.415  0.00  0.00    +0.418 C 
ATOM     10  F   UNL A   1     -21.790   2.251  25.677  0.00  0.00    -0.166 F 
ATOM     11  F   UNL A   1     -23.083   1.585  24.178  0.00  0.00    -0.166 F 
ATOM     12  F   UNL A   1     -23.058   3.667  24.846  0.00  0.00    -0.166 F 
ENDBRANCH   1   9
BRANCH   6  13
ATOM     13  C   UNL A   1     -22.148  -0.744  29.766  0.00  0.00    +0.366 C 
ATOM     14  O   UNL A   1     -22.363  -0.621  30.902  0.00  0.00    -0.246 OA
ATOM     15  O   UNL A   1     -20.977  -1.146  29.220  0.00  0.00    -0.246 OA
ENDBRANCH   6  13
BRANCH   3  16
ATOM     16  C   UNL A   1     -26.092   0.359  25.751  0.00  0.00    +0.234 C 
ATOM     17 CL   UNL A   1     -26.332   0.141  24.803  0.00  0.00    -0.043 Cl
ATOM     18  O   UNL A   1     -27.255   0.770  26.631  0.00  0.00    -0.279 OA
ENDBRANCH   3  16
TORSDOF 3
ENDMDL
ENDMDL
