REMARK  Name = No_2470-gen_results/8p0m/2024-11-26-14-13-15/
REMARK  4 active torsions:
REMARK  status: ('A' for Active; 'I' for Inactive)
REMARK    1  A    between atoms: C_1  and  C_2
REMARK    2  A    between atoms: C_1  and  N_8
REMARK    3  A    between atoms: C_5  and  C_10
REMARK    4  A    between atoms: N_8  and  C_9
REMARK                            x       y       z     vdW  Elec       q    Type
REMARK                         _______ _______ _______ _____ _____    ______ ____
ROOT
ATOM      1  C   UNL A   1     -27.064  -0.119  28.608  0.00  0.00    -0.001 A 
ATOM      2  C   UNL A   1     -26.929   1.171  29.008  0.00  0.00    -0.003 A 
ATOM      3  C   UNL A   1     -25.770   2.034  28.688  0.00  0.00    +0.004 A 
ATOM      4  C   UNL A   1     -24.714   1.443  27.919  0.00  0.00    +0.071 A 
ATOM      5  C   UNL A   1     -24.859   0.078  27.584  0.00  0.00    +0.004 A 
ATOM      6  C   UNL A   1     -25.965  -0.661  27.916  0.00  0.00    -0.003 A 
ENDROOT
BRANCH   4   7
ATOM      7  C   UNL A   1     -23.518   2.158  27.578  0.00  0.00    +0.419 C 
ATOM      8  F   UNL A   1     -22.601   1.605  27.355  0.00  0.00    -0.166 F 
ATOM      9  F   UNL A   1     -23.889   2.943  26.407  0.00  0.00    -0.166 F 
ATOM     10  F   UNL A   1     -23.262   3.147  28.530  0.00  0.00    -0.166 F 
ENDBRANCH   4   7
BRANCH   1  11
ATOM     11  C   UNL A   1     -28.016  -0.814  28.878  0.00  0.00    +0.139 C 
BRANCH  11  12
ATOM     12  N   UNL A   1     -29.170  -0.298  28.947  0.00  0.00    -0.232 NA
BRANCH  12  13
ATOM     13  C   UNL A   1     -30.184  -0.892  29.705  0.00  0.00    +0.076 C 
ATOM     14  C   UNL A   1     -30.208  -0.992  30.903  0.00  0.00    -0.008 C 
ATOM     15  C   UNL A   1     -31.157  -1.781  31.710  0.00  0.00    +0.032 C 
ENDBRANCH  12  13
ENDBRANCH  11  12
ENDBRANCH   1  11
TORSDOF 4
