MODEL 2470
MODEL 1
REMARK VINA RESULT:    -5.804      0.000      0.000
REMARK INTER + INTRA:          -7.541
REMARK INTER:                  -7.161
REMARK INTRA:                  -0.380
REMARK UNBOUND:                -0.380
REMARK  Name = No_2470-gen_results/8p0m/2024-11-26-14-13-15/
REMARK  4 active torsions:
REMARK  status: ('A' for Active; 'I' for Inactive)
REMARK    1  A    between atoms: C_1  and  C_2
REMARK    2  A    between atoms: C_1  and  N_8
REMARK    3  A    between atoms: C_5  and  C_10
REMARK    4  A    between atoms: N_8  and  C_9
REMARK                            x       y       z     vdW  Elec       q    Type
REMARK                         _______ _______ _______ _____ _____    ______ ____
ROOT
ATOM      1  C   UNL A   1     -23.633  -0.273  28.546  0.00  0.00    -0.001 A 
ATOM      2  C   UNL A   1     -24.750  -0.181  27.780  0.00  0.00    -0.003 A 
ATOM      3  C   UNL A   1     -25.035   0.923  26.837  0.00  0.00    +0.004 A 
ATOM      4  C   UNL A   1     -24.063   1.973  26.755  0.00  0.00    +0.071 A 
ATOM      5  C   UNL A   1     -22.950   1.878  27.620  0.00  0.00    +0.004 A 
ATOM      6  C   UNL A   1     -22.751   0.821  28.471  0.00  0.00    -0.003 A 
ENDROOT
BRANCH   4   7
ATOM      7  C   UNL A   1     -24.239   3.120  25.912  0.00  0.00    +0.419 C 
ATOM      8  F   UNL A   1     -25.155   3.224  25.323  0.00  0.00    -0.166 F 
ATOM      9  F   UNL A   1     -24.134   4.255  26.821  0.00  0.00    -0.166 F 
ATOM     10  F   UNL A   1     -23.121   3.291  25.093  0.00  0.00    -0.166 F 
ENDBRANCH   4   7
BRANCH   1  11
ATOM     11  C   UNL A   1     -23.412  -1.180  29.314  0.00  0.00    +0.139 C 
BRANCH  11  12
ATOM     12  N   UNL A   1     -23.198  -2.344  28.866  0.00  0.00    -0.232 NA
BRANCH  12  13
ATOM     13  C   UNL A   1     -23.970  -3.434  29.282  0.00  0.00    +0.076 C 
ATOM     14  C   UNL A   1     -24.133  -4.460  28.678  0.00  0.00    -0.008 C 
ATOM     15  C   UNL A   1     -25.091  -5.536  28.995  0.00  0.00    +0.032 C 
ENDBRANCH  12  13
ENDBRANCH  11  12
ENDBRANCH   1  11
TORSDOF 4
ENDMDL
ENDMDL
