REMARK  Name = No_2472-gen_results/8p0m/2024-11-26-14-13-15/
REMARK  4 active torsions:
REMARK  status: ('A' for Active; 'I' for Inactive)
REMARK    1  A    between atoms: C_1  and  C_2
REMARK    2  A    between atoms: C_1  and  C_8
REMARK    3  A    between atoms: C_5  and  C_11
REMARK    4  A    between atoms: C_8  and  C_9
REMARK                            x       y       z     vdW  Elec       q    Type
REMARK                         _______ _______ _______ _____ _____    ______ ____
ROOT
ATOM      1  C   UNL A   1     -27.064  -0.119  28.608  0.00  0.00    -0.022 A 
ATOM      2  C   UNL A   1     -26.972   0.714  27.506  0.00  0.00    -0.004 A 
ATOM      3  C   UNL A   1     -25.820   1.491  27.116  0.00  0.00    +0.006 A 
ATOM      4  C   UNL A   1     -24.858   1.342  27.601  0.00  0.00    +0.080 A 
ATOM      5  C   UNL A   1     -24.622   0.529  28.814  0.00  0.00    +0.006 A 
ATOM      6  C   UNL A   1     -25.734  -0.181  29.191  0.00  0.00    -0.004 A 
ENDROOT
BRANCH   4   7
ATOM      7  C   UNL A   1     -23.517   2.123  27.262  0.00  0.00    +0.388 C 
ATOM      8  O   UNL A   1     -23.410   2.545  26.059  0.00  0.00    -0.241 OA
ATOM      9  O   UNL A   1     -22.478   2.218  28.053  0.00  0.00    -0.241 OA
ENDBRANCH   4   7
BRANCH   1  10
ATOM     10  C   UNL A   1     -28.016  -0.814  28.878  0.00  0.00    +0.031 C 
BRANCH  10  11
ATOM     11  C   UNL A   1     -28.627  -0.474  30.249  0.00  0.00    +0.031 C 
BRANCH  11  12
ATOM     12  C   UNL A   1     -28.388   0.555  30.759  0.00  0.00    -0.022 A 
ATOM     13  C   UNL A   1     -29.038   0.914  32.095  0.00  0.00    -0.004 A 
ATOM     14  C   UNL A   1     -28.780   2.164  32.760  0.00  0.00    -0.000 A 
ATOM     15  C   UNL A   1     -27.838   3.057  32.136  0.00  0.00    -0.000 A 
ATOM     16  C   UNL A   1     -27.183   2.687  30.955  0.00  0.00    -0.000 A 
ATOM     17  C   UNL A   1     -27.437   1.516  30.362  0.00  0.00    -0.004 A 
ENDBRANCH  11  12
ENDBRANCH  10  11
ENDBRANCH   1  10
TORSDOF 4
