MODEL 2472
MODEL 1
REMARK VINA RESULT:    -6.761      0.000      0.000
REMARK INTER + INTRA:          -8.982
REMARK INTER:                  -8.342
REMARK INTRA:                  -0.640
REMARK UNBOUND:                -0.640
REMARK  Name = No_2472-gen_results/8p0m/2024-11-26-14-13-15/
REMARK  4 active torsions:
REMARK  status: ('A' for Active; 'I' for Inactive)
REMARK    1  A    between atoms: C_1  and  C_2
REMARK    2  A    between atoms: C_1  and  C_8
REMARK    3  A    between atoms: C_5  and  C_11
REMARK    4  A    between atoms: C_8  and  C_9
REMARK                            x       y       z     vdW  Elec       q    Type
REMARK                         _______ _______ _______ _____ _____    ______ ____
ROOT
ATOM      1  C   UNL A   1     -24.521  -2.786  29.353  0.00  0.00    -0.022 A 
ATOM      2  C   UNL A   1     -24.887  -4.109  29.177  0.00  0.00    -0.004 A 
ATOM      3  C   UNL A   1     -26.131  -4.715  29.590  0.00  0.00    +0.006 A 
ATOM      4  C   UNL A   1     -26.958  -4.102  29.942  0.00  0.00    +0.080 A 
ATOM      5  C   UNL A   1     -26.889  -2.657  30.250  0.00  0.00    +0.006 A 
ATOM      6  C   UNL A   1     -25.690  -2.101  29.881  0.00  0.00    -0.004 A 
ENDROOT
BRANCH   4   7
ATOM      7  C   UNL A   1     -28.375  -4.641  30.417  0.00  0.00    +0.388 C 
ATOM      8  O   UNL A   1     -29.385  -3.959  30.028  0.00  0.00    -0.241 OA
ATOM      9  O   UNL A   1     -28.565  -5.603  31.284  0.00  0.00    -0.241 OA
ENDBRANCH   4   7
BRANCH   1  10
ATOM     10  C   UNL A   1     -23.503  -2.284  28.939  0.00  0.00    +0.031 C 
BRANCH  10  11
ATOM     11  C   UNL A   1     -23.403  -0.785  29.273  0.00  0.00    +0.031 C 
BRANCH  11  12
ATOM     12  C   UNL A   1     -23.191  -0.006  28.422  0.00  0.00    -0.022 A 
ATOM     13  C   UNL A   1     -24.284   0.334  27.409  0.00  0.00    -0.004 A 
ATOM     14  C   UNL A   1     -24.074   1.279  26.345  0.00  0.00    -0.000 A 
ATOM     15  C   UNL A   1     -22.794   1.938  26.295  0.00  0.00    -0.000 A 
ATOM     16  C   UNL A   1     -21.826   1.684  27.275  0.00  0.00    -0.000 A 
ATOM     17  C   UNL A   1     -22.050   0.805  28.257  0.00  0.00    -0.004 A 
ENDBRANCH  11  12
ENDBRANCH  10  11
ENDBRANCH   1  10
TORSDOF 4
ENDMDL
ENDMDL
