REMARK  Name = No_2473-gen_results/8p0m/2024-11-26-14-13-15/
REMARK  1 active torsions:
REMARK  status: ('A' for Active; 'I' for Inactive)
REMARK    1  A    between atoms: C_2  and  C_3
REMARK                            x       y       z     vdW  Elec       q    Type
REMARK                         _______ _______ _______ _____ _____    ______ ____
ROOT
ATOM      1  C   UNL A   1     -28.016  -0.814  28.878  0.00  0.00    -0.000 A 
ATOM      2  C   UNL A   1     -27.064  -0.119  28.608  0.00  0.00    -0.000 A 
ATOM      3  C   UNL A   1     -27.972  -1.625  30.109  0.00  0.00    -0.000 A 
ATOM      4  C   UNL A   1     -26.749  -1.821  30.769  0.00  0.00    -0.000 A 
ATOM      5  C   UNL A   1     -25.619  -1.186  30.338  0.00  0.00    -0.000 A 
ATOM      6  C   UNL A   1     -25.736  -0.334  29.176  0.00  0.00    -0.000 A 
ENDROOT
BRANCH   2   7
ATOM      7  C   UNL A   1     -27.001   0.691  27.491  0.00  0.00    -0.005 C 
ATOM      8  C   UNL A   1     -25.777   1.021  26.913  0.00  0.00    -0.026 C 
ATOM      9  C   UNL A   1     -25.575   1.779  25.742  0.00  0.00    +0.031 C 
ENDBRANCH   2   7
TORSDOF 1
