MODEL 2473
MODEL 1
REMARK VINA RESULT:    -5.136      0.000      0.000
REMARK INTER + INTRA:          -5.608
REMARK INTER:                  -5.436
REMARK INTRA:                  -0.171
REMARK UNBOUND:                -0.171
REMARK  Name = No_2473-gen_results/8p0m/2024-11-26-14-13-15/
REMARK  1 active torsions:
REMARK  status: ('A' for Active; 'I' for Inactive)
REMARK    1  A    between atoms: C_2  and  C_3
REMARK                            x       y       z     vdW  Elec       q    Type
REMARK                         _______ _______ _______ _____ _____    ______ ____
ROOT
ATOM      1  C   UNL A   1     -25.453  -2.461  29.621  0.00  0.00    -0.000 A 
ATOM      2  C   UNL A   1     -24.338  -2.803  29.302  0.00  0.00    -0.000 A 
ATOM      3  C   UNL A   1     -26.448  -3.502  29.939  0.00  0.00    -0.000 A 
ATOM      4  C   UNL A   1     -26.199  -4.835  29.578  0.00  0.00    -0.000 A 
ATOM      5  C   UNL A   1     -25.001  -5.192  29.026  0.00  0.00    -0.000 A 
ATOM      6  C   UNL A   1     -24.027  -4.144  28.815  0.00  0.00    -0.000 A 
ENDROOT
BRANCH   2   7
ATOM      7  C   UNL A   1     -23.324  -1.917  28.998  0.00  0.00    -0.005 C 
ATOM      8  C   UNL A   1     -23.608  -0.613  28.597  0.00  0.00    -0.026 C 
ATOM      9  C   UNL A   1     -22.675   0.407  28.322  0.00  0.00    +0.031 C 
ENDBRANCH   2   7
TORSDOF 1
ENDMDL
ENDMDL
