MODEL 2474
MODEL 1
REMARK VINA RESULT:    -4.161      0.000      0.000
REMARK INTER + INTRA:          -4.651
REMARK INTER:                  -4.648
REMARK INTRA:                  -0.003
REMARK UNBOUND:                -0.003
REMARK  Name = No_2474-gen_results/8p0m/2024-11-26-14-13-15/
REMARK  2 active torsions:
REMARK  status: ('A' for Active; 'I' for Inactive)
REMARK    1  A    between atoms: C_1  and  C_2
REMARK    2  A    between atoms: C_3  and  C_4
REMARK                            x       y       z     vdW  Elec       q    Type
REMARK                         _______ _______ _______ _____ _____    ______ ____
ROOT
ATOM      1  C   UNL A   1      -8.923  -9.211  20.255  0.00  0.00    -0.026 C 
ATOM      2  C   UNL A   1      -9.930  -9.439  19.324  0.00  0.00    -0.005 C 
ENDROOT
BRANCH   1   3
ATOM      3  C   UNL A   1      -7.760  -9.187  19.924  0.00  0.00    +0.026 C 
ATOM      4  C   UNL A   1      -7.012  -7.976  19.713  0.00  0.00    +0.005 C 
ENDBRANCH   1   3
BRANCH   2   5
ATOM      5  C   UNL A   1      -9.624  -9.608  17.927  0.00  0.00    -0.000 C 
ATOM      6  C   UNL A   1      -9.334 -10.795  17.327  0.00  0.00    -0.000 C 
ENDBRANCH   2   5
TORSDOF 2
ENDMDL
ENDMDL
