MODEL 2475
MODEL 1
REMARK VINA RESULT:    -4.654      0.000      0.000
REMARK INTER + INTRA:          -4.958
REMARK INTER:                  -4.926
REMARK INTRA:                  -0.032
REMARK UNBOUND:                -0.032
REMARK  Name = No_2475-gen_results/8p0m/2024-11-26-14-13-15/
REMARK  1 active torsions:
REMARK  status: ('A' for Active; 'I' for Inactive)
REMARK    1  A    between atoms: C_2  and  O_7
REMARK                            x       y       z     vdW  Elec       q    Type
REMARK                         _______ _______ _______ _____ _____    ______ ____
ROOT
ATOM      1  C   UNL A   1     -24.017  -4.300  28.783  0.00  0.00    +0.037 A 
ATOM      2  C   UNL A   1     -24.121  -3.302  29.108  0.00  0.00    +0.139 A 
ATOM      3  C   UNL A   1     -25.134  -5.210  29.082  0.00  0.00    +0.003 A 
ATOM      4  C   UNL A   1     -26.342  -4.713  29.653  0.00  0.00    +0.000 A 
ATOM      5  C   UNL A   1     -25.269  -2.532  29.659  0.00  0.00    +0.037 A 
ATOM      6  C   UNL A   1     -26.322  -3.345  29.959  0.00  0.00    +0.003 A 
ENDROOT
BRANCH   2   7
ATOM      7  O   UNL A   1     -23.024  -2.384  28.818  0.00  0.00    -0.471 OA
ATOM      8  C   UNL A   1     -22.945  -1.183  29.078  0.00  0.00    +0.253 C 
ENDBRANCH   2   7
TORSDOF 1
ENDMDL
ENDMDL
