REMARK  Name = No_2476-gen_results/8p0m/2024-11-26-14-13-15/
REMARK  2 active torsions:
REMARK  status: ('A' for Active; 'I' for Inactive)
REMARK    1  A    between atoms: C_3  and  C_7
REMARK    2  A    between atoms: C_8  and  C_10
REMARK                            x       y       z     vdW  Elec       q    Type
REMARK                         _______ _______ _______ _____ _____    ______ ____
ROOT
ATOM      1  C   UNL A   1     -28.016  -0.814  28.878  0.00  0.00    -0.000 A 
ATOM      2  C   UNL A   1     -27.064  -0.119  28.608  0.00  0.00    -0.000 A 
ATOM      3  C   UNL A   1     -25.765  -0.390  29.036  0.00  0.00    -0.001 A 
ATOM      4  C   UNL A   1     -25.530  -1.530  29.901  0.00  0.00    -0.000 A 
ATOM      5  C   UNL A   1     -26.658  -2.292  30.203  0.00  0.00    -0.000 A 
ATOM      6  C   UNL A   1     -27.855  -1.956  29.763  0.00  0.00    -0.000 A 
ENDROOT
BRANCH   3   7
ATOM      7  C   UNL A   1     -24.544   0.413  28.738  0.00  0.00    -0.007 C 
ATOM      8  C   UNL A   1     -24.473   1.206  27.711  0.00  0.00    -0.025 C 
ATOM      9  C   UNL A   1     -25.523   1.515  26.827  0.00  0.00    +0.028 C 
BRANCH   8  10
ATOM     10  C   UNL A   1     -23.141   1.848  27.398  0.00  0.00    +0.131 C 
ATOM     11  N   UNL A   1     -22.189   1.721  28.289  0.00  0.00    -0.127 NA
ENDBRANCH   8  10
ENDBRANCH   3   7
TORSDOF 2
