MODEL 2476
MODEL 1
REMARK VINA RESULT:    -5.419      0.000      0.000
REMARK INTER + INTRA:          -6.296
REMARK INTER:                  -6.052
REMARK INTRA:                  -0.244
REMARK UNBOUND:                -0.244
REMARK  Name = No_2476-gen_results/8p0m/2024-11-26-14-13-15/
REMARK  2 active torsions:
REMARK  status: ('A' for Active; 'I' for Inactive)
REMARK    1  A    between atoms: C_3  and  C_7
REMARK    2  A    between atoms: C_8  and  C_10
REMARK                            x       y       z     vdW  Elec       q    Type
REMARK                         _______ _______ _______ _____ _____    ______ ____
ROOT
ATOM      1  C   UNL A   1     -26.388  -3.635  30.005  0.00  0.00    -0.000 A 
ATOM      2  C   UNL A   1     -25.697  -2.643  29.967  0.00  0.00    -0.000 A 
ATOM      3  C   UNL A   1     -24.447  -2.597  29.353  0.00  0.00    -0.001 A 
ATOM      4  C   UNL A   1     -23.900  -3.808  28.772  0.00  0.00    -0.000 A 
ATOM      5  C   UNL A   1     -24.721  -4.932  28.855  0.00  0.00    -0.000 A 
ATOM      6  C   UNL A   1     -25.889  -4.890  29.466  0.00  0.00    -0.000 A 
ENDROOT
BRANCH   3   7
ATOM      7  C   UNL A   1     -23.544  -1.414  29.259  0.00  0.00    -0.007 C 
ATOM      8  C   UNL A   1     -23.717  -0.482  28.370  0.00  0.00    -0.025 C 
ATOM      9  C   UNL A   1     -24.799  -0.378  27.476  0.00  0.00    +0.028 C 
BRANCH   8  10
ATOM     10  C   UNL A   1     -22.657   0.589  28.245  0.00  0.00    +0.131 C 
ATOM     11  N   UNL A   1     -22.990   1.807  28.594  0.00  0.00    -0.127 NA
ENDBRANCH   8  10
ENDBRANCH   3   7
TORSDOF 2
ENDMDL
ENDMDL
