REMARK  Name = No_2477-gen_results/8p0m/2024-11-26-14-13-15/
REMARK  6 active torsions:
REMARK  status: ('A' for Active; 'I' for Inactive)
REMARK    1  A    between atoms: C_3  and  C_7
REMARK    2  A    between atoms: C_7  and  C_8
REMARK    3  A    between atoms: C_7  and  C_9
REMARK    4  A    between atoms: C_8  and  C_19
REMARK    5  A    between atoms: C_11  and  C_12
REMARK    6  A    between atoms: C_19  and  C_20
REMARK                            x       y       z     vdW  Elec       q    Type
REMARK                         _______ _______ _______ _____ _____    ______ ____
ROOT
ATOM      1  C   UNL A   1     -26.399   0.295  27.228  0.00  0.00    +0.052 C 
ENDROOT
BRANCH   1   4
ATOM      2  C   UNL A   1     -28.016  -0.814  28.878  0.00  0.00    -0.004 A 
ATOM      3  C   UNL A   1     -28.469  -0.785  29.829  0.00  0.00    -0.000 A 
ATOM      4  C   UNL A   1     -27.136   0.236  28.535  0.00  0.00    -0.018 A 
ATOM      5  C   UNL A   1     -26.875   1.282  29.398  0.00  0.00    -0.004 A 
ATOM      6  C   UNL A   1     -28.361   0.199  30.924  0.00  0.00    -0.000 A 
ATOM      7  C   UNL A   1     -27.528   1.223  30.636  0.00  0.00    -0.000 A 
ENDBRANCH   1   4
BRANCH   1   8
ATOM      8  C   UNL A   1     -27.029   0.396  26.009  0.00  0.00    +0.001 A 
ATOM      9  C   UNL A   1     -28.371   0.536  25.878  0.00  0.00    -0.001 A 
ATOM     10  C   UNL A   1     -28.886   0.507  24.569  0.00  0.00    +0.019 A 
ATOM     11  C   UNL A   1     -26.228   0.300  24.856  0.00  0.00    +0.095 A 
ATOM     12  C   UNL A   1     -28.080   0.389  23.476  0.00  0.00    +0.099 A 
ATOM     13  N   UNL A   1     -26.705   0.296  23.672  0.00  0.00    -0.243 NA
BRANCH  10  14
ATOM     14  C   UNL A   1     -30.284   0.571  24.390  0.00  0.00    +0.002 A 
ATOM     15  C   UNL A   1     -30.832   0.467  23.269  0.00  0.00    +0.000 A 
ATOM     16  C   UNL A   1     -32.291   0.481  23.162  0.00  0.00    +0.000 A 
ATOM     17  C   UNL A   1     -33.079   0.712  24.285  0.00  0.00    +0.000 A 
ATOM     18  C   UNL A   1     -31.209   0.798  25.560  0.00  0.00    +0.000 A 
ATOM     19  C   UNL A   1     -32.496   0.863  25.449  0.00  0.00    +0.000 A 
ENDBRANCH  10  14
ENDBRANCH   1   8
BRANCH   1  20
ATOM     20  C   UNL A   1     -25.039   0.236  27.354  0.00  0.00    +0.080 C 
BRANCH  20  21
ATOM     21  C   UNL A   1     -24.318   1.079  28.256  0.00  0.00    +0.283 C 
ATOM     22  F   UNL A   1     -24.570   1.158  29.318  0.00  0.00    -0.200 F 
ATOM     23  F   UNL A   1     -24.777   2.466  27.854  0.00  0.00    -0.200 F 
BRANCH  21  24
ATOM     24  C   UNL A   1     -22.958   1.105  28.129  0.00  0.00    +0.038 A 
ATOM     25  C   UNL A   1     -22.329   2.212  27.363  0.00  0.00    +0.001 A 
ATOM     26  C   UNL A   1     -22.110   0.127  28.737  0.00  0.00    +0.001 A 
ATOM     27  C   UNL A   1     -20.688   0.156  28.589  0.00  0.00    -0.000 A 
ATOM     28  C   UNL A   1     -20.853   2.098  27.286  0.00  0.00    -0.000 A 
ATOM     29  C   UNL A   1     -20.150   1.167  27.976  0.00  0.00    -0.000 A 
ENDBRANCH  21  24
ENDBRANCH  20  21
ENDBRANCH   1  20
TORSDOF 6
