MODEL 2477
MODEL 1
REMARK VINA RESULT:    -7.862      0.000      0.000
REMARK INTER + INTRA:         -13.376
REMARK INTER:                 -10.620
REMARK INTRA:                  -2.756
REMARK UNBOUND:                -2.756
REMARK  Name = No_2477-gen_results/8p0m/2024-11-26-14-13-15/
REMARK  6 active torsions:
REMARK  status: ('A' for Active; 'I' for Inactive)
REMARK    1  A    between atoms: C_3  and  C_7
REMARK    2  A    between atoms: C_7  and  C_8
REMARK    3  A    between atoms: C_7  and  C_9
REMARK    4  A    between atoms: C_8  and  C_19
REMARK    5  A    between atoms: C_11  and  C_12
REMARK    6  A    between atoms: C_19  and  C_20
REMARK                            x       y       z     vdW  Elec       q    Type
REMARK                         _______ _______ _______ _____ _____    ______ ____
ROOT
ATOM      1  C   UNL A   1     -24.037  -1.257  29.341  0.00  0.00    +0.052 C 
ENDROOT
BRANCH   1   4
ATOM      2  C   UNL A   1     -25.919  -2.934  29.800  0.00  0.00    -0.004 A 
ATOM      3  C   UNL A   1     -26.259  -3.929  29.718  0.00  0.00    -0.000 A 
ATOM      4  C   UNL A   1     -24.625  -2.638  29.317  0.00  0.00    -0.018 A 
ATOM      5  C   UNL A   1     -23.812  -3.608  28.766  0.00  0.00    -0.004 A 
ATOM      6  C   UNL A   1     -25.603  -5.135  29.176  0.00  0.00    -0.000 A 
ATOM      7  C   UNL A   1     -24.360  -4.896  28.704  0.00  0.00    -0.000 A 
ENDBRANCH   1   4
BRANCH   1   8
ATOM      8  C   UNL A   1     -24.123  -0.381  28.283  0.00  0.00    +0.001 A 
ATOM      9  C   UNL A   1     -25.220  -0.280  27.492  0.00  0.00    -0.001 A 
ATOM     10  C   UNL A   1     -25.120   0.574  26.378  0.00  0.00    +0.019 A 
ATOM     11  C   UNL A   1     -22.991   0.405  27.999  0.00  0.00    +0.095 A 
ATOM     12  C   UNL A   1     -23.997   1.302  26.122  0.00  0.00    +0.099 A 
ATOM     13  N   UNL A   1     -22.920   1.192  26.997  0.00  0.00    -0.243 NA
BRANCH  10  14
ATOM     14  C   UNL A   1     -26.209   0.650  25.484  0.00  0.00    +0.002 A 
ATOM     15  C   UNL A   1     -26.633  -0.338  24.843  0.00  0.00    +0.000 A 
ATOM     16  C   UNL A   1     -27.806  -0.203  23.979  0.00  0.00    +0.000 A 
ATOM     17  C   UNL A   1     -28.398   1.040  23.781  0.00  0.00    +0.000 A 
ATOM     18  C   UNL A   1     -26.918   1.957  25.231  0.00  0.00    +0.000 A 
ATOM     19  C   UNL A   1     -27.921   2.079  24.424  0.00  0.00    +0.000 A 
ENDBRANCH  10  14
ENDBRANCH   1   8
BRANCH   1  20
ATOM     20  C   UNL A   1     -23.401  -0.944  30.510  0.00  0.00    +0.080 C 
BRANCH  20  21
ATOM     21  C   UNL A   1     -23.844   0.118  31.360  0.00  0.00    +0.283 C 
ATOM     22  F   UNL A   1     -23.432   1.130  31.302  0.00  0.00    -0.200 F 
ATOM     23  F   UNL A   1     -23.236  -0.252  32.698  0.00  0.00    -0.200 F 
BRANCH  21  24
ATOM     24  C   UNL A   1     -25.187   0.208  31.593  0.00  0.00    +0.038 A 
ATOM     25  C   UNL A   1     -25.976   1.232  30.861  0.00  0.00    +0.001 A 
ATOM     26  C   UNL A   1     -25.873  -0.672  32.488  0.00  0.00    +0.001 A 
ATOM     27  C   UNL A   1     -27.277  -0.563  32.735  0.00  0.00    -0.000 A 
ATOM     28  C   UNL A   1     -27.412   1.232  31.232  0.00  0.00    -0.000 A 
ATOM     29  C   UNL A   1     -27.963   0.291  32.036  0.00  0.00    -0.000 A 
ENDBRANCH  21  24
ENDBRANCH  20  21
ENDBRANCH   1  20
TORSDOF 6
ENDMDL
ENDMDL
