MODEL 2478
MODEL 1
REMARK VINA RESULT:    -6.926      0.000      0.000
REMARK INTER + INTRA:         -10.837
REMARK INTER:                  -9.355
REMARK INTRA:                  -1.482
REMARK UNBOUND:                -1.482
REMARK  Name = No_2478-gen_results/8p0m/2024-11-26-14-13-15/
REMARK  6 active torsions:
REMARK  status: ('A' for Active; 'I' for Inactive)
REMARK    1  A    between atoms: C_1  and  C_7
REMARK    2  A    between atoms: C_3  and  C_18
REMARK    3  A    between atoms: C_5  and  C_11
REMARK    4  A    between atoms: N_8  and  C_10
REMARK    5  A    between atoms: C_10  and  C_15
REMARK    6  A    between atoms: C_18  and  C_19
REMARK                            x       y       z     vdW  Elec       q    Type
REMARK                         _______ _______ _______ _____ _____    ______ ____
ROOT
ATOM      1  C   UNL A   1     -11.251   2.483  35.038  0.00  0.00    +0.055 A 
ATOM      2  C   UNL A   1     -10.877   1.818  35.976  0.00  0.00    +0.001 A 
ATOM      3  C   UNL A   1     -11.621   1.625  37.123  0.00  0.00    -0.019 A 
ATOM      4  C   UNL A   1     -12.917   2.212  37.183  0.00  0.00    +0.001 A 
ATOM      5  C   UNL A   1     -13.357   2.800  36.047  0.00  0.00    +0.055 A 
ATOM      6  C   UNL A   1     -12.588   2.903  34.979  0.00  0.00    +0.009 A 
ENDROOT
BRANCH   5   7
ATOM      7  C   UNL A   1     -14.725   3.355  36.064  0.00  0.00    +0.265 C 
ATOM      8  O   UNL A   1     -15.476   3.455  35.132  0.00  0.00    -0.268 OA
ATOM      9  N   UNL A   1     -15.274   3.607  37.306  0.00  0.00    -0.200 NA
ATOM     10  C   UNL A   1     -16.613   4.047  37.486  0.00  0.00    +0.139 C 
ENDBRANCH   5   7
BRANCH   1  11
ATOM     11  C   UNL A   1     -10.200   2.596  33.940  0.00  0.00    +0.265 C 
ATOM     12  N   UNL A   1      -9.550   3.594  33.821  0.00  0.00    -0.189 NA
ATOM     13  O   UNL A   1     -10.062   1.681  33.073  0.00  0.00    -0.268 OA
BRANCH  12  14
ATOM     14  C   UNL A   1      -8.313   3.707  32.956  0.00  0.00    +0.229 C 
BRANCH  14  15
ATOM     15  C   UNL A   1      -8.280   5.155  32.598  0.00  0.00    +0.387 C 
ATOM     16  O   UNL A   1      -9.390   5.594  32.417  0.00  0.00    -0.244 OA
ATOM     17  O   UNL A   1      -7.280   5.630  31.892  0.00  0.00    -0.244 OA
ENDBRANCH  14  15
ENDBRANCH  12  14
ENDBRANCH   1  11
BRANCH   3  18
ATOM     18  C   UNL A   1     -11.067   1.026  38.403  0.00  0.00    +0.038 C 
ATOM     19  C   UNL A   1      -9.603   1.302  38.644  0.00  0.00    +0.009 C 
ATOM     20  C   UNL A   1     -11.888   1.947  39.547  0.00  0.00    +0.009 C 
BRANCH  18  21
ATOM     21  C   UNL A   1     -11.420  -0.265  38.578  0.00  0.00    -0.019 A 
ATOM     22  C   UNL A   1     -11.191  -1.281  37.608  0.00  0.00    -0.004 A 
ATOM     23  C   UNL A   1     -11.703  -2.605  37.780  0.00  0.00    -0.000 A 
ATOM     24  C   UNL A   1     -12.361  -2.954  38.996  0.00  0.00    -0.000 A 
ATOM     25  C   UNL A   1     -12.364  -1.996  40.014  0.00  0.00    -0.000 A 
ATOM     26  C   UNL A   1     -11.920  -0.757  39.794  0.00  0.00    -0.004 A 
ENDBRANCH  18  21
ENDBRANCH   3  18
TORSDOF 6
ENDMDL
ENDMDL
