REMARK  Name = No_2478-gen_results/8p0m/2024-11-26-14-13-15/
REMARK  6 active torsions:
REMARK  status: ('A' for Active; 'I' for Inactive)
REMARK    1  A    between atoms: C_1  and  C_7
REMARK    2  A    between atoms: C_3  and  C_18
REMARK    3  A    between atoms: C_5  and  C_11
REMARK    4  A    between atoms: N_8  and  C_10
REMARK    5  A    between atoms: C_10  and  C_15
REMARK    6  A    between atoms: C_18  and  C_19
REMARK                            x       y       z     vdW  Elec       q    Type
REMARK                         _______ _______ _______ _____ _____    ______ ____
ROOT
ATOM      1  C   UNL A   1     -28.016  -0.814  28.878  0.00  0.00    +0.055 A 
ATOM      2  C   UNL A   1     -27.064  -0.119  28.608  0.00  0.00    +0.001 A 
ATOM      3  C   UNL A   1     -27.001   0.691  27.491  0.00  0.00    -0.019 A 
ATOM      4  C   UNL A   1     -28.137   0.736  26.635  0.00  0.00    +0.001 A 
ATOM      5  C   UNL A   1     -29.236   0.076  27.069  0.00  0.00    +0.055 A 
ATOM      6  C   UNL A   1     -29.218  -0.643  28.175  0.00  0.00    +0.009 A 
ENDROOT
BRANCH   5   7
ATOM      7  C   UNL A   1     -30.448   0.166  26.231  0.00  0.00    +0.265 C 
ATOM      8  O   UNL A   1     -30.496   0.197  25.031  0.00  0.00    -0.268 OA
ATOM      9  N   UNL A   1     -31.659   0.003  26.875  0.00  0.00    -0.200 NA
ATOM     10  C   UNL A   1     -32.902  -0.035  26.189  0.00  0.00    +0.139 C 
ENDBRANCH   5   7
BRANCH   1  11
ATOM     11  C   UNL A   1     -27.787  -1.667  30.120  0.00  0.00    +0.265 C 
ATOM     12  N   UNL A   1     -28.715  -2.077  30.756  0.00  0.00    -0.189 NA
ATOM     13  O   UNL A   1     -26.617  -1.874  30.562  0.00  0.00    -0.268 OA
BRANCH  12  14
ATOM     14  C   UNL A   1     -28.610  -3.141  31.828  0.00  0.00    +0.229 C 
BRANCH  14  15
ATOM     15  C   UNL A   1     -29.315  -4.306  31.220  0.00  0.00    +0.387 C 
ATOM     16  O   UNL A   1     -29.335  -5.254  31.968  0.00  0.00    -0.244 OA
ATOM     17  O   UNL A   1     -29.238  -4.513  29.925  0.00  0.00    -0.244 OA
ENDBRANCH  14  15
ENDBRANCH  12  14
ENDBRANCH   1  11
BRANCH   3  18
ATOM     18  C   UNL A   1     -25.729   1.356  26.997  0.00  0.00    +0.038 C 
ATOM     19  C   UNL A   1     -25.561   1.356  25.497  0.00  0.00    +0.009 C 
ATOM     20  C   UNL A   1     -26.046   2.956  27.409  0.00  0.00    +0.009 C 
BRANCH  18  21
ATOM     21  C   UNL A   1     -24.630   0.963  27.674  0.00  0.00    -0.019 A 
ATOM     22  C   UNL A   1     -23.930   1.798  28.590  0.00  0.00    -0.004 A 
ATOM     23  C   UNL A   1     -22.695   1.386  29.181  0.00  0.00    -0.000 A 
ATOM     24  C   UNL A   1     -22.203   0.070  28.941  0.00  0.00    -0.000 A 
ATOM     25  C   UNL A   1     -23.032  -0.797  28.222  0.00  0.00    -0.000 A 
ATOM     26  C   UNL A   1     -24.153  -0.357  27.647  0.00  0.00    -0.004 A 
ENDBRANCH  18  21
ENDBRANCH   3  18
TORSDOF 6
