MODEL 2479
MODEL 1
REMARK VINA RESULT:    -6.022      0.000      0.000
REMARK INTER + INTRA:          -6.415
REMARK INTER:                  -6.374
REMARK INTRA:                  -0.041
REMARK UNBOUND:                -0.041
REMARK  Name = No_2479-gen_results/8p0m/2024-11-26-14-13-15/
REMARK  1 active torsions:
REMARK  status: ('A' for Active; 'I' for Inactive)
REMARK    1  A    between atoms: C_2  and  C_5
REMARK                            x       y       z     vdW  Elec       q    Type
REMARK                         _______ _______ _______ _____ _____    ______ ____
ROOT
ATOM      1  C   UNL A   1     -27.906 -12.032  31.299  0.00  0.00    +0.003 A 
ATOM      2  C   UNL A   1     -28.035 -11.710  32.295  0.00  0.00    +0.042 A 
ATOM      3  C   UNL A   1     -28.884 -11.459  30.299  0.00  0.00    +0.000 A 
ATOM      4  C   UNL A   1     -29.015 -11.845  28.916  0.00  0.00    +0.000 A 
ATOM      5  C   UNL A   1     -30.049 -11.153  28.138  0.00  0.00    +0.000 A 
ATOM      6  C   UNL A   1     -30.795 -10.141  28.695  0.00  0.00    +0.000 A 
ATOM      7  C   UNL A   1     -30.665  -9.780  29.990  0.00  0.00    +0.000 A 
ATOM      8  C   UNL A   1     -29.739 -10.366  30.768  0.00  0.00    +0.000 A 
ATOM      9  C   UNL A   1     -28.883 -10.567  32.862  0.00  0.00    +0.003 A 
ATOM     10  C   UNL A   1     -29.670  -9.974  32.126  0.00  0.00    +0.000 A 
ENDROOT
BRANCH   2  11
ATOM     11  C   UNL A   1     -27.108 -12.223  33.397  0.00  0.00    +0.234 C 
ATOM     12  O   UNL A   1     -27.445 -12.399  34.492  0.00  0.00    -0.283 OA
ENDBRANCH   2  11
TORSDOF 1
ENDMDL
ENDMDL
