MODEL 247
MODEL 1
REMARK VINA RESULT:    -4.573      0.000      0.000
REMARK INTER + INTRA:          -4.573
REMARK INTER:                  -4.573
REMARK INTRA:                   0.000
REMARK UNBOUND:                 0.000
REMARK  Name = No_247-gen_results/8p0m/2024-11-26-14-13-15/
REMARK  0 active torsions:
REMARK  status: ('A' for Active; 'I' for Inactive)
REMARK                            x       y       z     vdW  Elec       q    Type
REMARK                         _______ _______ _______ _____ _____    ______ ____
ROOT
ATOM      1  C   UNL A   1     -10.181  -9.766  18.283  0.00  0.00    +0.030 A 
ATOM      2  C   UNL A   1      -9.189 -10.388  17.980  0.00  0.00    +0.140 A 
ATOM      3  C   UNL A   1      -8.080 -10.474  18.757  0.00  0.00    +0.030 A 
ATOM      4  C   UNL A   1      -8.077  -9.801  19.993  0.00  0.00    +0.002 A 
ATOM      5  C   UNL A   1     -10.283  -9.133  19.574  0.00  0.00    +0.002 A 
ATOM      6  C   UNL A   1      -9.185  -9.165  20.380  0.00  0.00    +0.000 A 
ATOM      7  F   UNL A   1      -9.119 -11.062  16.803  0.00  0.00    -0.204 F 
ENDROOT
TORSDOF 0
ENDMDL
ENDMDL
