REMARK  Name = No_248-gen_results/8p0m/2024-11-26-14-13-15/
REMARK  2 active torsions:
REMARK  status: ('A' for Active; 'I' for Inactive)
REMARK    1  A    between atoms: C_3  and  C_12
REMARK    2  A    between atoms: C_13  and  C_14
REMARK                            x       y       z     vdW  Elec       q    Type
REMARK                         _______ _______ _______ _____ _____    ______ ____
ROOT
ATOM      1  C   UNL A   1     -25.638   1.338  27.165  0.00  0.00    +0.034 C 
ATOM      2  C   UNL A   1     -25.265   2.552  27.462  0.00  0.00    +0.098 C 
ATOM      3  C   UNL A   1     -24.319   3.256  26.596  0.00  0.00    +0.098 C 
ATOM      4  N   UNL A   1     -23.607   2.495  25.695  0.00  0.00    -0.217 NA
ATOM      5  C   UNL A   1     -24.826   0.542  26.281  0.00  0.00    +0.024 C 
ATOM      6  C   UNL A   1     -23.884   1.212  25.525  0.00  0.00    +0.089 C 
ENDROOT
BRANCH   1   9
ATOM      7  C   UNL A   1     -28.016  -0.814  28.878  0.00  0.00    +0.059 A 
ATOM      8  C   UNL A   1     -27.064  -0.119  28.608  0.00  0.00    +0.007 A 
ATOM      9  C   UNL A   1     -26.972   0.714  27.506  0.00  0.00    -0.020 A 
ATOM     10  C   UNL A   1     -28.105   0.774  26.642  0.00  0.00    +0.014 A 
ATOM     11  C   UNL A   1     -29.201   0.104  27.053  0.00  0.00    +0.082 A 
ATOM     12  C   UNL A   1     -29.210  -0.603  28.185  0.00  0.00    +0.030 A 
ATOM     13  N   UNL A   1     -30.206   0.322  26.059  0.00  0.00    -0.244 NA
ATOM     14  C   UNL A   1     -30.052   0.652  24.886  0.00  0.00    +0.099 A 
ATOM     15  C   UNL A   1     -28.885   1.433  24.527  0.00  0.00    +0.021 A 
ATOM     16  C   UNL A   1     -27.861   1.475  25.425  0.00  0.00    +0.003 A 
ATOM     17 CL   UNL A   1     -28.070  -1.767  30.373  0.00  0.00    -0.082 Cl
ENDBRANCH   1   9
BRANCH   2  18
ATOM     18  C   UNL A   1     -25.751   3.312  28.517  0.00  0.00    +0.227 C 
ATOM     19  N   UNL A   1     -26.573   4.157  28.591  0.00  0.00    -0.280 N 
ATOM     20  C   UNL A   1     -27.173   4.603  29.706  0.00  0.00    +0.093 C 
ATOM     21  O   UNL A   1     -25.427   2.677  29.692  0.00  0.00    -0.275 OA
ATOM     22  C   UNL A   1     -26.903   4.917  27.317  0.00  0.00    +0.093 C 
ATOM     23  C   UNL A   1     -28.008   5.299  29.840  0.00  0.00    +0.022 C 
ATOM     24  C   UNL A   1     -28.072   5.816  27.438  0.00  0.00    +0.022 C 
ATOM     25  C   UNL A   1     -28.550   6.139  28.700  0.00  0.00    +0.004 C 
ENDBRANCH   2  18
TORSDOF 2
