MODEL 2480
MODEL 1
REMARK VINA RESULT:    -5.995      0.000      0.000
REMARK INTER + INTRA:          -6.421
REMARK INTER:                  -6.346
REMARK INTRA:                  -0.075
REMARK UNBOUND:                -0.075
REMARK  Name = No_2480-gen_results/8p0m/2024-11-26-14-13-15/
REMARK  1 active torsions:
REMARK  status: ('A' for Active; 'I' for Inactive)
REMARK    1  A    between atoms: C_5  and  C_11
REMARK                            x       y       z     vdW  Elec       q    Type
REMARK                         _______ _______ _______ _____ _____    ______ ____
ROOT
ATOM      1  C   UNL A   1     -30.769  -9.532  29.754  0.00  0.00    +0.019 A 
ATOM      2  C   UNL A   1     -30.059 -10.143  30.520  0.00  0.00    +0.009 A 
ATOM      3  C   UNL A   1     -29.899  -9.851  31.864  0.00  0.00    +0.184 C 
ATOM      4  C   UNL A   1     -29.000 -10.510  32.780  0.00  0.00    +0.051 C 
ATOM      5  C   UNL A   1     -28.192 -11.566  32.293  0.00  0.00    +0.111 C 
ATOM      6  C   UNL A   1     -28.310 -11.918  30.924  0.00  0.00    +0.039 C 
ATOM      7  C   UNL A   1     -29.166 -11.216  30.132  0.00  0.00    -0.004 A 
ATOM      8  C   UNL A   1     -30.979 -10.051  28.360  0.00  0.00    +0.099 A 
ATOM      9  N   UNL A   1     -30.073 -10.939  27.860  0.00  0.00    -0.243 NA
ATOM     10  C   UNL A   1     -29.264 -11.611  28.692  0.00  0.00    +0.094 A 
ATOM     11  F   UNL A   1     -30.519  -8.819  32.373  0.00  0.00    -0.232 F 
ENDROOT
BRANCH   5  12
ATOM     12  C   UNL A   1     -27.273 -12.304  33.195  0.00  0.00    +0.365 C 
ATOM     13  O   UNL A   1     -26.409 -13.025  32.628  0.00  0.00    -0.246 OA
ATOM     14  O   UNL A   1     -27.361 -12.170  34.440  0.00  0.00    -0.246 OA
ENDBRANCH   5  12
TORSDOF 1
ENDMDL
ENDMDL
