REMARK  Name = No_2480-gen_results/8p0m/2024-11-26-14-13-15/
REMARK  1 active torsions:
REMARK  status: ('A' for Active; 'I' for Inactive)
REMARK    1  A    between atoms: C_5  and  C_11
REMARK                            x       y       z     vdW  Elec       q    Type
REMARK                         _______ _______ _______ _____ _____    ______ ____
ROOT
ATOM      1  C   UNL A   1     -28.016  -0.814  28.878  0.00  0.00    +0.019 A 
ATOM      2  C   UNL A   1     -27.064  -0.119  28.608  0.00  0.00    +0.009 A 
ATOM      3  C   UNL A   1     -26.972   0.714  27.506  0.00  0.00    +0.184 C 
ATOM      4  C   UNL A   1     -25.820   1.491  27.116  0.00  0.00    +0.051 C 
ATOM      5  C   UNL A   1     -24.656   1.424  27.918  0.00  0.00    +0.111 C 
ATOM      6  C   UNL A   1     -24.685   0.590  29.066  0.00  0.00    +0.039 C 
ATOM      7  C   UNL A   1     -25.810  -0.127  29.334  0.00  0.00    -0.004 A 
ATOM      8  C   UNL A   1     -28.054  -1.547  30.189  0.00  0.00    +0.099 A 
ATOM      9  N   UNL A   1     -26.878  -1.747  30.849  0.00  0.00    -0.243 NA
ATOM     10  C   UNL A   1     -25.806  -0.999  30.550  0.00  0.00    +0.094 A 
ATOM     11  F   UNL A   1     -27.957   0.750  26.647  0.00  0.00    -0.232 F 
ENDROOT
BRANCH   5  12
ATOM     12  C   UNL A   1     -23.452   2.226  27.588  0.00  0.00    +0.365 C 
ATOM     13  O   UNL A   1     -22.584   2.314  28.497  0.00  0.00    -0.246 OA
ATOM     14  O   UNL A   1     -23.326   2.744  26.451  0.00  0.00    -0.246 OA
ENDBRANCH   5  12
TORSDOF 1
