MODEL 2481
MODEL 1
REMARK VINA RESULT:    -5.004      0.000      0.000
REMARK INTER + INTRA:          -5.689
REMARK INTER:                  -5.589
REMARK INTRA:                  -0.099
REMARK UNBOUND:                -0.099
REMARK  Name = No_2481-gen_results/8p0m/2024-11-26-14-13-15/
REMARK  2 active torsions:
REMARK  status: ('A' for Active; 'I' for Inactive)
REMARK    1  A    between atoms: C_1  and  C_2
REMARK    2  A    between atoms: C_1  and  N_8
REMARK                            x       y       z     vdW  Elec       q    Type
REMARK                         _______ _______ _______ _____ _____    ______ ____
ROOT
ATOM      1  C   UNL A   1     -24.632  -2.467  29.191  0.00  0.00    +0.003 A 
ATOM      2  C   UNL A   1     -25.842  -2.841  29.678  0.00  0.00    -0.002 A 
ATOM      3  C   UNL A   1     -26.323  -4.238  29.754  0.00  0.00    -0.000 A 
ATOM      4  C   UNL A   1     -25.445  -5.255  29.253  0.00  0.00    -0.000 A 
ATOM      5  C   UNL A   1     -24.225  -4.819  28.689  0.00  0.00    -0.000 A 
ATOM      6  C   UNL A   1     -23.845  -3.502  28.653  0.00  0.00    -0.002 A 
ENDROOT
BRANCH   1   7
ATOM      7  C   UNL A   1     -24.251  -1.321  29.133  0.00  0.00    +0.165 C 
BRANCH   7   8
ATOM      8  N   UNL A   1     -22.909  -1.030  28.918  0.00  0.00    -0.188 NA
ATOM      9  C   UNL A   1     -22.184  -0.211  29.010  0.00  0.00    +0.236 C 
ATOM     10  O   UNL A   1     -20.928  -0.196  28.679  0.00  0.00    -0.210 OA
ENDBRANCH   7   8
ENDBRANCH   1   7
TORSDOF 2
ENDMDL
ENDMDL
