REMARK  Name = No_2482-gen_results/8p0m/2024-11-26-14-13-15/
REMARK  4 active torsions:
REMARK  status: ('A' for Active; 'I' for Inactive)
REMARK    1  A    between atoms: C_1  and  C_2
REMARK    2  A    between atoms: C_1  and  C_8
REMARK    3  A    between atoms: C_5  and  C_10
REMARK    4  A    between atoms: C_8  and  N_9
REMARK                            x       y       z     vdW  Elec       q    Type
REMARK                         _______ _______ _______ _____ _____    ______ ____
ROOT
ATOM      1  C   UNL A   1     -27.064  -0.119  28.608  0.00  0.00    -0.020 A 
ATOM      2  C   UNL A   1     -27.001   0.691  27.491  0.00  0.00    -0.004 A 
ATOM      3  C   UNL A   1     -25.855   1.482  27.083  0.00  0.00    +0.004 A 
ATOM      4  C   UNL A   1     -24.690   1.453  27.881  0.00  0.00    +0.071 A 
ATOM      5  C   UNL A   1     -24.738   0.601  29.042  0.00  0.00    +0.004 A 
ATOM      6  C   UNL A   1     -25.823  -0.169  29.389  0.00  0.00    -0.004 A 
ENDROOT
BRANCH   4   7
ATOM      7  C   UNL A   1     -23.520   2.205  27.544  0.00  0.00    +0.419 C 
ATOM      8  F   UNL A   1     -23.597   2.942  26.626  0.00  0.00    -0.166 F 
ATOM      9  F   UNL A   1     -22.983   2.909  28.575  0.00  0.00    -0.166 F 
ATOM     10  F   UNL A   1     -22.427   1.340  27.302  0.00  0.00    -0.166 F 
ENDBRANCH   4   7
BRANCH   1  11
ATOM     11  C   UNL A   1     -28.016  -0.814  28.878  0.00  0.00    +0.053 C 
BRANCH  11  12
ATOM     12  C   UNL A   1     -29.225  -0.047  29.280  0.00  0.00    +0.143 C 
BRANCH  12  13
ATOM     13  N   UNL A   1     -30.287  -0.820  29.676  0.00  0.00    -0.193 NA
ATOM     14  C   UNL A   1     -30.132  -1.889  30.442  0.00  0.00    +0.235 C 
ATOM     15  O   UNL A   1     -29.021  -2.604  30.399  0.00  0.00    -0.210 OA
ENDBRANCH  12  13
ENDBRANCH  11  12
ENDBRANCH   1  11
TORSDOF 4
