MODEL 2483
MODEL 1
REMARK VINA RESULT:    -4.338      0.000      0.000
REMARK INTER + INTRA:          -4.338
REMARK INTER:                  -4.338
REMARK INTRA:                   0.000
REMARK UNBOUND:                 0.000
REMARK  Name = No_2483-gen_results/8p0m/2024-11-26-14-13-15/
REMARK  0 active torsions:
REMARK  status: ('A' for Active; 'I' for Inactive)
REMARK                            x       y       z     vdW  Elec       q    Type
REMARK                         _______ _______ _______ _____ _____    ______ ____
ROOT
ATOM      1  C   UNL A   1     -24.957  -5.347  29.024  0.00  0.00    +0.000 A 
ATOM      2  C   UNL A   1     -24.211  -4.693  28.669  0.00  0.00    +0.000 A 
ATOM      3  C   UNL A   1     -26.116  -4.655  29.601  0.00  0.00    +0.000 A 
ATOM      4  C   UNL A   1     -26.130  -3.339  29.817  0.00  0.00    +0.000 A 
ATOM      5  C   UNL A   1     -23.998  -3.272  28.804  0.00  0.00    +0.000 A 
ATOM      6  C   UNL A   1     -25.075  -2.650  29.364  0.00  0.00    +0.000 A 
ENDROOT
TORSDOF 0
ENDMDL
ENDMDL
