REMARK  Name = No_2484-gen_results/8p0m/2024-11-26-14-13-15/
REMARK  9 active torsions:
REMARK  status: ('A' for Active; 'I' for Inactive)
REMARK    1  A    between atoms: C_2  and  C_3
REMARK    2  A    between atoms: C_2  and  C_9
REMARK    3  A    between atoms: C_10  and  C_13
REMARK    4  A    between atoms: C_13  and  C_14
REMARK    5  A    between atoms: C_14  and  C_15
REMARK    6  A    between atoms: C_15  and  O_18
REMARK    7  A    between atoms: O_18  and  C_20
REMARK    8  A    between atoms: C_20  and  C_21
REMARK    9  A    between atoms: C_30  and  C_31
REMARK                            x       y       z     vdW  Elec       q    Type
REMARK                         _______ _______ _______ _____ _____    ______ ____
ROOT
ATOM      1  C   UNL A   1     -26.369   0.485  30.242  0.00  0.00    -0.004 A 
ATOM      2  C   UNL A   1     -25.936  -0.475  31.115  0.00  0.00    -0.027 A 
ATOM      3  C   UNL A   1     -25.022  -0.142  31.976  0.00  0.00    -0.026 A 
ATOM      4  C   UNL A   1     -24.426  -1.109  32.902  0.00  0.00    +0.031 C 
ATOM      5  C   UNL A   1     -24.531   1.264  32.022  0.00  0.00    -0.005 A 
ATOM      6  C   UNL A   1     -24.814   2.302  31.186  0.00  0.00    +0.003 A 
ATOM      7  C   UNL A   1     -25.856   1.895  30.226  0.00  0.00    +0.069 A 
ENDROOT
BRANCH   7   8
ATOM      8  C   UNL A   1     -26.348   2.929  29.338  0.00  0.00    +0.418 C 
ATOM      9  F   UNL A   1     -25.566   3.131  28.388  0.00  0.00    -0.166 F 
ATOM     10  F   UNL A   1     -27.560   2.553  28.873  0.00  0.00    -0.166 F 
ATOM     11  F   UNL A   1     -26.574   3.991  30.147  0.00  0.00    -0.166 F 
ENDBRANCH   7   8
BRANCH   1  13
ATOM     12 CL   UNL A   1     -28.149  -0.820  28.908  0.00  0.00    -0.105 Cl
ATOM     13  C   UNL A   1     -26.912  -0.080  28.945  0.00  0.00    +0.124 C 
BRANCH  13  14
ATOM     14  C   UNL A   1     -26.049  -0.072  27.859  0.00  0.00    -0.003 A 
ATOM     15  C   UNL A   1     -26.501   0.602  26.751  0.00  0.00    -0.003 A 
ATOM     16  C   UNL A   1     -25.710   0.564  25.496  0.00  0.00    -0.000 A 
ATOM     17  C   UNL A   1     -24.393   0.271  25.653  0.00  0.00    -0.000 A 
ATOM     18  C   UNL A   1     -23.882   0.028  26.887  0.00  0.00    -0.000 A 
ATOM     19  C   UNL A   1     -24.688  -0.212  27.989  0.00  0.00    -0.003 A 
ENDBRANCH  13  14
ENDBRANCH   1  13
BRANCH   2  20
ATOM     20  C   UNL A   1     -26.348  -1.817  31.098  0.00  0.00    +0.053 C 
BRANCH  20  21
ATOM     21  C   UNL A   1     -27.367  -2.161  30.206  0.00  0.00    +0.182 C 
ATOM     22 CL   UNL A   1     -27.250  -1.944  29.173  0.00  0.00    -0.103 Cl
BRANCH  21  23
ATOM     23  C   UNL A   1     -28.157  -3.410  30.135  0.00  0.00    +0.333 C 
ATOM     24  O   UNL A   1     -27.631  -4.386  30.552  0.00  0.00    -0.249 OA
BRANCH  23  25
ATOM     25  O   UNL A   1     -29.444  -3.412  30.110  0.00  0.00    -0.438 OA
BRANCH  25  26
ATOM     26  C   UNL A   1     -30.061  -4.627  30.311  0.00  0.00    +0.293 C 
BRANCH  26  27
ATOM     27  C   UNL A   1     -31.084  -4.939  29.358  0.00  0.00    +0.270 C 
ATOM     28  O   UNL A   1     -31.206  -4.284  28.500  0.00  0.00    -0.271 OA
ATOM     29  N   UNL A   1     -31.947  -5.958  29.598  0.00  0.00    -0.277 N 
ATOM     30  C   UNL A   1     -31.927  -6.834  30.782  0.00  0.00    +0.093 C 
ATOM     31  C   UNL A   1     -32.228  -7.968  30.788  0.00  0.00    +0.022 C 
ATOM     32  C   UNL A   1     -32.745  -8.588  29.593  0.00  0.00    +0.004 C 
ATOM     33  C   UNL A   1     -32.791  -7.823  28.404  0.00  0.00    +0.022 C 
ATOM     34  C   UNL A   1     -32.290  -6.608  28.442  0.00  0.00    +0.093 C 
ENDBRANCH  26  27
ENDBRANCH  25  26
ENDBRANCH  23  25
ENDBRANCH  21  23
ENDBRANCH  20  21
ENDBRANCH   2  20
TORSDOF 9
