REMARK  Name = No_2485-gen_results/8p0m/2024-11-26-14-13-15/
REMARK  3 active torsions:
REMARK  status: ('A' for Active; 'I' for Inactive)
REMARK    1  A    between atoms: C_6  and  C_8
REMARK    2  A    between atoms: C_11  and  O_14
REMARK    3  A    between atoms: O_14  and  C_15
REMARK                            x       y       z     vdW  Elec       q    Type
REMARK                         _______ _______ _______ _____ _____    ______ ____
ROOT
ATOM      1  C   UNL A   1     -30.073   1.505  31.007  0.00  0.00    +0.000 A 
ATOM      2  C   UNL A   1     -31.116   1.665  30.951  0.00  0.00    +0.003 A 
ATOM      3  C   UNL A   1     -32.060   2.162  31.594  0.00  0.00    +0.037 A 
ATOM      4  C   UNL A   1     -31.648   2.723  32.892  0.00  0.00    +0.145 A 
ATOM      5  C   UNL A   1     -30.347   2.625  33.215  0.00  0.00    +0.037 A 
ATOM      6  C   UNL A   1     -29.428   2.066  32.335  0.00  0.00    +0.003 A 
ENDROOT
BRANCH   1  12
ATOM      7  C   UNL A   1     -28.016  -0.814  28.878  0.00  0.00    +0.030 A 
ATOM      8  C   UNL A   1     -27.064  -0.119  28.608  0.00  0.00    +0.140 A 
ATOM      9  C   UNL A   1     -26.929   1.171  29.008  0.00  0.00    +0.030 A 
ATOM     10  C   UNL A   1     -27.956   1.741  29.784  0.00  0.00    +0.002 A 
ATOM     11  C   UNL A   1     -29.057  -0.327  29.747  0.00  0.00    +0.002 A 
ATOM     12  C   UNL A   1     -28.983   0.972  30.152  0.00  0.00    +0.000 A 
ATOM     13  F   UNL A   1     -26.035  -0.599  27.863  0.00  0.00    -0.204 F 
ENDBRANCH   1  12
BRANCH   4  14
ATOM     14  O   UNL A   1     -32.554   3.300  33.727  0.00  0.00    -0.454 OA
BRANCH  14  15
ATOM     15  C   UNL A   1     -32.123   4.181  34.580  0.00  0.00    +0.145 A 
ATOM     16  C   UNL A   1     -31.294   4.042  35.361  0.00  0.00    +0.037 A 
ATOM     17  C   UNL A   1     -31.157   5.010  36.529  0.00  0.00    +0.003 A 
ATOM     18  C   UNL A   1     -32.980   5.433  34.613  0.00  0.00    +0.037 A 
ATOM     19  C   UNL A   1     -32.854   6.321  35.620  0.00  0.00    +0.003 A 
ATOM     20  C   UNL A   1     -31.897   6.117  36.576  0.00  0.00    +0.000 A 
ENDBRANCH  14  15
ENDBRANCH   4  14
TORSDOF 3
