MODEL 2485
MODEL 1
REMARK VINA RESULT:    -6.836      0.000      0.000
REMARK INTER + INTRA:          -8.729
REMARK INTER:                  -8.035
REMARK INTRA:                  -0.694
REMARK UNBOUND:                -0.694
REMARK  Name = No_2485-gen_results/8p0m/2024-11-26-14-13-15/
REMARK  3 active torsions:
REMARK  status: ('A' for Active; 'I' for Inactive)
REMARK    1  A    between atoms: C_6  and  C_8
REMARK    2  A    between atoms: C_11  and  O_14
REMARK    3  A    between atoms: O_14  and  C_15
REMARK                            x       y       z     vdW  Elec       q    Type
REMARK                         _______ _______ _______ _____ _____    ______ ____
ROOT
ATOM      1  C   UNL A   1     -26.624   0.734  24.760  0.00  0.00    +0.000 A 
ATOM      2  C   UNL A   1     -25.618   0.413  24.807  0.00  0.00    +0.003 A 
ATOM      3  C   UNL A   1     -24.510   0.748  25.267  0.00  0.00    +0.037 A 
ATOM      4  C   UNL A   1     -24.545   2.030  25.991  0.00  0.00    +0.145 A 
ATOM      5  C   UNL A   1     -25.729   2.663  26.057  0.00  0.00    +0.037 A 
ATOM      6  C   UNL A   1     -26.876   2.101  25.511  0.00  0.00    +0.003 A 
ENDROOT
BRANCH   1  12
ATOM      7  C   UNL A   1     -30.169   0.640  23.510  0.00  0.00    +0.030 A 
ATOM      8  C   UNL A   1     -30.346  -0.547  23.363  0.00  0.00    +0.140 A 
ATOM      9  C   UNL A   1     -29.395  -1.489  23.590  0.00  0.00    +0.030 A 
ATOM     10  C   UNL A   1     -28.124  -1.065  24.023  0.00  0.00    +0.002 A 
ATOM     11  C   UNL A   1     -28.926   1.137  24.042  0.00  0.00    +0.002 A 
ATOM     12  C   UNL A   1     -27.928   0.234  24.259  0.00  0.00    +0.000 A 
ATOM     13  F   UNL A   1     -31.544  -1.031  22.946  0.00  0.00    -0.204 F 
ENDBRANCH   1  12
BRANCH   4  14
ATOM     14  O   UNL A   1     -23.420   2.550  26.552  0.00  0.00    -0.454 OA
BRANCH  14  15
ATOM     15  C   UNL A   1     -22.768   1.817  27.405  0.00  0.00    +0.145 A 
ATOM     16  C   UNL A   1     -21.644   1.587  27.405  0.00  0.00    +0.037 A 
ATOM     17  C   UNL A   1     -21.088   0.426  28.220  0.00  0.00    +0.003 A 
ATOM     18  C   UNL A   1     -23.685   1.070  28.356  0.00  0.00    +0.037 A 
ATOM     19  C   UNL A   1     -23.209   0.059  29.112  0.00  0.00    +0.003 A 
ATOM     20  C   UNL A   1     -21.875  -0.241  29.064  0.00  0.00    +0.000 A 
ENDBRANCH  14  15
ENDBRANCH   4  14
TORSDOF 3
ENDMDL
ENDMDL
