MODEL 2486
MODEL 1
REMARK VINA RESULT:    -6.496      0.000      0.000
REMARK INTER + INTRA:          -8.097
REMARK INTER:                  -8.015
REMARK INTRA:                  -0.082
REMARK UNBOUND:                -0.082
REMARK  Name = No_2486-gen_results/8p0m/2024-11-26-14-13-15/
REMARK  4 active torsions:
REMARK  status: ('A' for Active; 'I' for Inactive)
REMARK    1  A    between atoms: N_1  and  C_2
REMARK    2  A    between atoms: N_1  and  C_3
REMARK    3  A    between atoms: C_6  and  C_16
REMARK    4  A    between atoms: C_9  and  C_10
REMARK                            x       y       z     vdW  Elec       q    Type
REMARK                         _______ _______ _______ _____ _____    ______ ____
ROOT
ATOM      1  C   UNL A   1      -9.251  -0.032  37.522  0.00  0.00    +0.152 A 
ATOM      2  C   UNL A   1     -10.329  -0.852  37.058  0.00  0.00    +0.036 A 
ATOM      3  C   UNL A   1     -11.199  -1.572  38.015  0.00  0.00    +0.008 A 
ATOM      4  C   UNL A   1     -10.985  -1.403  39.208  0.00  0.00    +0.091 A 
ATOM      5  N   UNL A   1      -9.418  -0.103  38.969  0.00  0.00    -0.227 NA
ATOM      6  C   UNL A   1     -10.045  -0.626  39.781  0.00  0.00    +0.104 A 
ENDROOT
BRANCH   4   7
ATOM      7  C   UNL A   1     -12.016  -2.166  40.119  0.00  0.00    +0.420 C 
ATOM      8  F   UNL A   1     -12.582  -3.086  39.396  0.00  0.00    -0.166 F 
ATOM      9  F   UNL A   1     -11.397  -2.770  41.186  0.00  0.00    -0.166 F 
ATOM     10  F   UNL A   1     -12.964  -1.346  40.557  0.00  0.00    -0.166 F 
ENDBRANCH   4   7
BRANCH   1  11
ATOM     11  N   UNL A   1      -8.363   0.692  36.780  0.00  0.00    -0.193 NA
BRANCH  11  12
ATOM     12  C   UNL A   1      -8.658   0.861  35.736  0.00  0.00    +0.087 C 
ATOM     13  C   UNL A   1      -8.331   0.570  34.718  0.00  0.00    +0.018 C 
BRANCH  13  14
ATOM     14  C   UNL A   1      -7.023  -0.126  34.711  0.00  0.00    +0.001 A 
ATOM     15  C   UNL A   1      -5.909   0.528  34.997  0.00  0.00    +0.000 A 
ATOM     16  C   UNL A   1      -4.800  -0.221  35.044  0.00  0.00    +0.000 A 
ATOM     17  C   UNL A   1      -4.761  -1.634  34.806  0.00  0.00    +0.000 A 
ATOM     18  C   UNL A   1      -5.960  -2.245  34.574  0.00  0.00    +0.000 A 
ATOM     19  C   UNL A   1      -7.124  -1.471  34.519  0.00  0.00    +0.000 A 
ENDBRANCH  13  14
ENDBRANCH  11  12
ENDBRANCH   1  11
TORSDOF 4
ENDMDL
ENDMDL
