REMARK  Name = No_2486-gen_results/8p0m/2024-11-26-14-13-15/
REMARK  4 active torsions:
REMARK  status: ('A' for Active; 'I' for Inactive)
REMARK    1  A    between atoms: N_1  and  C_2
REMARK    2  A    between atoms: N_1  and  C_3
REMARK    3  A    between atoms: C_6  and  C_16
REMARK    4  A    between atoms: C_9  and  C_10
REMARK                            x       y       z     vdW  Elec       q    Type
REMARK                         _______ _______ _______ _____ _____    ______ ____
ROOT
ATOM      1  C   UNL A   1     -26.778  -0.581  28.603  0.00  0.00    +0.152 A 
ATOM      2  C   UNL A   1     -25.756  -1.022  27.702  0.00  0.00    +0.036 A 
ATOM      3  C   UNL A   1     -24.417  -0.392  27.710  0.00  0.00    +0.008 A 
ATOM      4  C   UNL A   1     -24.210   0.483  28.540  0.00  0.00    +0.091 A 
ATOM      5  N   UNL A   1     -26.070   0.413  29.401  0.00  0.00    -0.227 NA
ATOM      6  C   UNL A   1     -25.057   0.957  29.475  0.00  0.00    +0.104 A 
ENDROOT
BRANCH   4   7
ATOM      7  C   UNL A   1     -22.734   1.024  28.491  0.00  0.00    +0.420 C 
ATOM      8  F   UNL A   1     -22.606   1.918  29.426  0.00  0.00    -0.166 F 
ATOM      9  F   UNL A   1     -21.821   0.023  28.717  0.00  0.00    -0.166 F 
ATOM     10  F   UNL A   1     -22.478   1.608  27.326  0.00  0.00    -0.166 F 
ENDBRANCH   4   7
BRANCH   1  11
ATOM     11  N   UNL A   1     -28.054  -1.050  28.725  0.00  0.00    -0.193 NA
BRANCH  11  12
ATOM     12  C   UNL A   1     -28.654  -0.567  29.508  0.00  0.00    +0.087 C 
ATOM     13  C   UNL A   1     -29.720  -0.398  29.758  0.00  0.00    +0.018 C 
BRANCH  13  14
ATOM     14  C   UNL A   1     -30.638  -0.787  28.661  0.00  0.00    +0.001 A 
ATOM     15  C   UNL A   1     -31.778  -1.405  28.922  0.00  0.00    +0.000 A 
ATOM     16  C   UNL A   1     -32.565  -1.629  27.862  0.00  0.00    +0.000 A 
ATOM     17  C   UNL A   1     -32.246  -1.252  26.517  0.00  0.00    +0.000 A 
ATOM     18  C   UNL A   1     -31.078  -0.567  26.338  0.00  0.00    +0.000 A 
ATOM     19  C   UNL A   1     -30.246  -0.331  27.438  0.00  0.00    +0.000 A 
ENDBRANCH  13  14
ENDBRANCH  11  12
ENDBRANCH   1  11
TORSDOF 4
