REMARK  Name = No_2487-gen_results/8p0m/2024-11-26-14-13-15/
REMARK  2 active torsions:
REMARK  status: ('A' for Active; 'I' for Inactive)
REMARK    1  A    between atoms: C_2  and  C_7
REMARK    2  A    between atoms: C_7  and  N_8
REMARK                            x       y       z     vdW  Elec       q    Type
REMARK                         _______ _______ _______ _____ _____    ______ ____
ROOT
ATOM      1  C   UNL A   1     -28.016  -0.814  28.878  0.00  0.00    -0.002 A 
ATOM      2  C   UNL A   1     -28.469  -0.785  29.829  0.00  0.00    +0.002 A 
ATOM      3  C   UNL A   1     -26.546  -0.876  28.850  0.00  0.00    -0.000 A 
ATOM      4  C   UNL A   1     -25.804  -1.032  30.057  0.00  0.00    -0.000 A 
ATOM      5  C   UNL A   1     -27.944  -0.987  31.207  0.00  0.00    -0.002 A 
ATOM      6  C   UNL A   1     -26.582  -1.039  31.223  0.00  0.00    -0.000 A 
ENDROOT
BRANCH   2   7
ATOM      7  C   UNL A   1     -30.028  -0.659  29.697  0.00  0.00    +0.151 C 
BRANCH   7   8
ATOM      8  N   UNL A   1     -30.592   0.411  30.216  0.00  0.00    -0.269 NA
ATOM      9  C   UNL A   1     -31.744   0.720  30.155  0.00  0.00    +0.068 C 
ATOM     10  C   UNL A   1     -32.273   1.996  30.659  0.00  0.00    +0.053 C 
ENDBRANCH   7   8
ENDBRANCH   2   7
TORSDOF 2
