MODEL 2487
MODEL 1
REMARK VINA RESULT:    -5.152      0.000      0.000
REMARK INTER + INTRA:          -5.896
REMARK INTER:                  -5.754
REMARK INTRA:                  -0.142
REMARK UNBOUND:                -0.142
REMARK  Name = No_2487-gen_results/8p0m/2024-11-26-14-13-15/
REMARK  2 active torsions:
REMARK  status: ('A' for Active; 'I' for Inactive)
REMARK    1  A    between atoms: C_2  and  C_7
REMARK    2  A    between atoms: C_7  and  N_8
REMARK                            x       y       z     vdW  Elec       q    Type
REMARK                         _______ _______ _______ _____ _____    ______ ____
ROOT
ATOM      1  C   UNL A   1     -23.802  -3.378  28.904  0.00  0.00    -0.002 A 
ATOM      2  C   UNL A   1     -24.469  -2.764  29.442  0.00  0.00    +0.002 A 
ATOM      3  C   UNL A   1     -24.204  -4.782  28.719  0.00  0.00    -0.000 A 
ATOM      4  C   UNL A   1     -25.494  -5.227  29.130  0.00  0.00    -0.000 A 
ATOM      5  C   UNL A   1     -25.867  -2.958  29.915  0.00  0.00    -0.002 A 
ATOM      6  C   UNL A   1     -26.271  -4.251  29.769  0.00  0.00    -0.000 A 
ENDROOT
BRANCH   2   7
ATOM      7  C   UNL A   1     -23.879  -1.319  29.609  0.00  0.00    +0.151 C 
BRANCH   7   8
ATOM      8  N   UNL A   1     -22.646  -1.120  29.193  0.00  0.00    -0.269 NA
ATOM      9  C   UNL A   1     -22.111  -0.070  29.001  0.00  0.00    +0.068 C 
ATOM     10  C   UNL A   1     -20.767   0.066  28.420  0.00  0.00    +0.053 C 
ENDBRANCH   7   8
ENDBRANCH   2   7
TORSDOF 2
ENDMDL
ENDMDL
