MODEL 2488
MODEL 1
REMARK VINA RESULT:    -4.600      0.000      0.000
REMARK INTER + INTRA:          -4.600
REMARK INTER:                  -4.600
REMARK INTRA:                   0.000
REMARK UNBOUND:                 0.000
REMARK  Name = No_2488-gen_results/8p0m/2024-11-26-14-13-15/
REMARK  0 active torsions:
REMARK  status: ('A' for Active; 'I' for Inactive)
REMARK                            x       y       z     vdW  Elec       q    Type
REMARK                         _______ _______ _______ _____ _____    ______ ____
ROOT
ATOM      1  C   UNL A   1     -24.088  -4.535  28.743  0.00  0.00    +0.042 A 
ATOM      2  C   UNL A   1     -25.008  -5.272  29.010  0.00  0.00    +0.003 A 
ATOM      3  C   UNL A   1     -26.177  -4.783  29.583  0.00  0.00    +0.000 A 
ATOM      4  C   UNL A   1     -26.311  -3.388  29.918  0.00  0.00    +0.003 A 
ATOM      5  C   UNL A   1     -25.190  -2.612  29.597  0.00  0.00    +0.042 A 
ATOM      6  C   UNL A   1     -24.102  -3.126  29.071  0.00  0.00    +0.196 A 
ATOM      7  O   UNL A   1     -23.042  -2.308  28.825  0.00  0.00    -0.287 OA
ENDROOT
TORSDOF 0
ENDMDL
ENDMDL
