MODEL 2489
MODEL 1
REMARK VINA RESULT:    -6.053      0.000      0.000
REMARK INTER + INTRA:         -11.653
REMARK INTER:                  -8.176
REMARK INTRA:                  -3.477
REMARK UNBOUND:                -3.477
REMARK  Name = No_2489-gen_results/8p0m/2024-11-26-14-13-15/
REMARK  6 active torsions:
REMARK  status: ('A' for Active; 'I' for Inactive)
REMARK    1  A    between atoms: C_4  and  C_5
REMARK    2  A    between atoms: C_11  and  C_12
REMARK    3  A    between atoms: C_12  and  C_13
REMARK    4  A    between atoms: C_13  and  C_14
REMARK    5  A    between atoms: C_14  and  C_15
REMARK    6  A    between atoms: C_14  and  C_22
REMARK                            x       y       z     vdW  Elec       q    Type
REMARK                         _______ _______ _______ _____ _____    ______ ____
ROOT
ATOM      1  C   UNL A   1     -23.158  -1.164  31.350  0.00  0.00    -0.000 A 
ATOM      2  C   UNL A   1     -22.942  -0.238  30.602  0.00  0.00    -0.000 A 
ATOM      3  C   UNL A   1     -23.535   1.016  30.737  0.00  0.00    -0.004 A 
ATOM      4  C   UNL A   1     -24.510   1.227  31.789  0.00  0.00    -0.022 A 
ATOM      5  C   UNL A   1     -24.200  -1.091  32.374  0.00  0.00    -0.000 A 
ATOM      6  C   UNL A   1     -24.847   0.123  32.605  0.00  0.00    -0.004 A 
ATOM      7  C   UNL A   1     -21.938  -0.080  29.471  0.00  0.00    -0.000 A 
ATOM      8  C   UNL A   1     -21.782   0.317  28.527  0.00  0.00    -0.004 A 
ATOM      9  C   UNL A   1     -23.018   1.149  28.029  0.00  0.00    -0.022 A 
ATOM     10  C   UNL A   1     -23.694   1.804  29.321  0.00  0.00    -0.005 A 
ENDROOT
BRANCH   4  11
ATOM     11  C   UNL A   1     -25.153   2.422  31.998  0.00  0.00    +0.026 C 
ATOM     12  C   UNL A   1     -26.569   2.431  31.651  0.00  0.00    +0.005 C 
ENDBRANCH   4  11
BRANCH   9  13
ATOM     13  C   UNL A   1     -23.637   1.179  27.089  0.00  0.00    +0.027 C 
BRANCH  13  14
ATOM     14  C   UNL A   1     -24.456  -0.036  26.872  0.00  0.00    +0.017 C 
BRANCH  14  15
ATOM     15  C   UNL A   1     -25.620  -0.181  27.574  0.00  0.00    +0.087 C 
BRANCH  15  16
ATOM     16  C   UNL A   1     -25.692  -1.114  28.405  0.00  0.00    -0.015 A 
ATOM     17  C   UNL A   1     -26.603  -1.200  29.330  0.00  0.00    -0.004 A 
ATOM     18  C   UNL A   1     -26.818  -2.310  30.177  0.00  0.00    -0.000 A 
ATOM     19  C   UNL A   1     -25.954  -3.366  30.019  0.00  0.00    -0.000 A 
ATOM     20  C   UNL A   1     -24.949  -3.436  29.119  0.00  0.00    -0.000 A 
ATOM     21  C   UNL A   1     -24.813  -2.346  28.268  0.00  0.00    -0.004 A 
ENDBRANCH  15  16
BRANCH  15  22
ATOM     22  C   UNL A   1     -26.767   0.703  27.249  0.00  0.00    +0.211 C 
ATOM     23  O   UNL A   1     -27.193   0.789  26.077  0.00  0.00    -0.288 OA
ENDBRANCH  15  22
ENDBRANCH  14  15
ENDBRANCH  13  14
ENDBRANCH   9  13
TORSDOF 6
ENDMDL
ENDMDL
