REMARK  Name = No_2489-gen_results/8p0m/2024-11-26-14-13-15/
REMARK  6 active torsions:
REMARK  status: ('A' for Active; 'I' for Inactive)
REMARK    1  A    between atoms: C_4  and  C_5
REMARK    2  A    between atoms: C_11  and  C_12
REMARK    3  A    between atoms: C_12  and  C_13
REMARK    4  A    between atoms: C_13  and  C_14
REMARK    5  A    between atoms: C_14  and  C_15
REMARK    6  A    between atoms: C_14  and  C_22
REMARK                            x       y       z     vdW  Elec       q    Type
REMARK                         _______ _______ _______ _____ _____    ______ ____
ROOT
ATOM      1  C   UNL A   1     -28.016  -0.814  28.878  0.00  0.00    -0.000 A 
ATOM      2  C   UNL A   1     -27.064  -0.119  28.608  0.00  0.00    -0.000 A 
ATOM      3  C   UNL A   1     -25.765  -0.390  29.036  0.00  0.00    -0.004 A 
ATOM      4  C   UNL A   1     -25.530  -1.530  29.901  0.00  0.00    -0.022 A 
ATOM      5  C   UNL A   1     -27.908  -1.922  29.828  0.00  0.00    -0.000 A 
ATOM      6  C   UNL A   1     -26.651  -2.290  30.307  0.00  0.00    -0.004 A 
ATOM      7  C   UNL A   1     -26.930   1.076  27.677  0.00  0.00    -0.000 A 
ATOM      8  C   UNL A   1     -26.479   1.999  27.543  0.00  0.00    -0.004 A 
ATOM      9  C   UNL A   1     -25.475   2.334  28.704  0.00  0.00    -0.022 A 
ATOM     10  C   UNL A   1     -24.854   0.948  29.202  0.00  0.00    -0.005 A 
ENDROOT
BRANCH   4  11
ATOM     11  C   UNL A   1     -24.291  -1.875  30.380  0.00  0.00    +0.026 C 
ATOM     12  C   UNL A   1     -23.631  -0.851  31.181  0.00  0.00    +0.005 C 
ENDBRANCH   4  11
BRANCH   9  13
ATOM     13  C   UNL A   1     -25.300   3.217  29.381  0.00  0.00    +0.027 C 
BRANCH  13  14
ATOM     14  C   UNL A   1     -26.449   4.149  29.458  0.00  0.00    +0.017 C 
BRANCH  14  15
ATOM     15  C   UNL A   1     -26.529   5.011  30.516  0.00  0.00    +0.087 C 
BRANCH  15  16
ATOM     16  C   UNL A   1     -27.087   4.607  31.561  0.00  0.00    -0.015 A 
ATOM     17  C   UNL A   1     -27.909   3.600  31.607  0.00  0.00    -0.004 A 
ATOM     18  C   UNL A   1     -28.430   3.012  32.781  0.00  0.00    -0.000 A 
ATOM     19  C   UNL A   1     -28.052   3.594  33.967  0.00  0.00    -0.000 A 
ATOM     20  C   UNL A   1     -27.218   4.649  34.097  0.00  0.00    -0.000 A 
ATOM     21  C   UNL A   1     -26.684   5.156  32.919  0.00  0.00    -0.004 A 
ENDBRANCH  15  16
BRANCH  15  22
ATOM     22  C   UNL A   1     -26.047   6.404  30.343  0.00  0.00    +0.211 C 
ATOM     23  O   UNL A   1     -25.065   6.824  30.993  0.00  0.00    -0.288 OA
ENDBRANCH  15  22
ENDBRANCH  14  15
ENDBRANCH  13  14
ENDBRANCH   9  13
TORSDOF 6
