MODEL 248
MODEL 1
REMARK VINA RESULT:    -7.598      0.000      0.000
REMARK INTER + INTRA:          -9.258
REMARK INTER:                  -8.487
REMARK INTRA:                  -0.771
REMARK UNBOUND:                -0.771
REMARK  Name = No_248-gen_results/8p0m/2024-11-26-14-13-15/
REMARK  2 active torsions:
REMARK  status: ('A' for Active; 'I' for Inactive)
REMARK    1  A    between atoms: C_3  and  C_12
REMARK    2  A    between atoms: C_13  and  C_14
REMARK                            x       y       z     vdW  Elec       q    Type
REMARK                         _______ _______ _______ _____ _____    ______ ____
ROOT
ATOM      1  C   UNL A   1     -24.671  -0.408  29.326  0.00  0.00    +0.034 C 
ATOM      2  C   UNL A   1     -23.928   0.217  30.196  0.00  0.00    +0.098 C 
ATOM      3  C   UNL A   1     -23.479   1.583  29.924  0.00  0.00    +0.098 C 
ATOM      4  N   UNL A   1     -23.576   2.027  28.623  0.00  0.00    -0.217 NA
ATOM      5  C   UNL A   1     -24.686   0.036  27.956  0.00  0.00    +0.024 C 
ATOM      6  C   UNL A   1     -24.188   1.299  27.703  0.00  0.00    +0.089 C 
ENDROOT
BRANCH   1   9
ATOM      7  C   UNL A   1     -27.614  -1.905  30.848  0.00  0.00    +0.059 A 
ATOM      8  C   UNL A   1     -26.820  -1.123  30.380  0.00  0.00    +0.007 A 
ATOM      9  C   UNL A   1     -25.701  -1.469  29.642  0.00  0.00    -0.020 A 
ATOM     10  C   UNL A   1     -25.493  -2.857  29.392  0.00  0.00    +0.014 A 
ATOM     11  C   UNL A   1     -26.475  -3.687  29.798  0.00  0.00    +0.082 A 
ATOM     12  C   UNL A   1     -27.561  -3.236  30.429  0.00  0.00    +0.030 A 
ATOM     13  N   UNL A   1     -26.070  -5.008  29.427  0.00  0.00    -0.244 NA
ATOM     14  C   UNL A   1     -24.934  -5.414  29.196  0.00  0.00    +0.099 A 
ATOM     15  C   UNL A   1     -23.946  -4.481  28.693  0.00  0.00    +0.021 A 
ATOM     16  C   UNL A   1     -24.221  -3.152  28.819  0.00  0.00    +0.003 A 
ATOM     17 CL   UNL A   1     -29.071  -1.348  31.692  0.00  0.00    -0.082 Cl
ENDBRANCH   1   9
BRANCH   2  18
ATOM     18  C   UNL A   1     -23.566  -0.266  31.446  0.00  0.00    +0.227 C 
ATOM     19  N   UNL A   1     -24.122  -0.308  32.487  0.00  0.00    -0.280 N 
ATOM     20  C   UNL A   1     -23.798  -1.068  33.545  0.00  0.00    +0.093 C 
ATOM     21  O   UNL A   1     -22.517  -1.140  31.284  0.00  0.00    -0.275 OA
ATOM     22  C   UNL A   1     -25.244   0.692  32.715  0.00  0.00    +0.093 C 
ATOM     23  C   UNL A   1     -24.320  -1.237  34.493  0.00  0.00    +0.022 C 
ATOM     24  C   UNL A   1     -26.020   0.454  33.952  0.00  0.00    +0.022 C 
ATOM     25  C   UNL A   1     -25.505  -0.394  34.922  0.00  0.00    +0.004 C 
ENDBRANCH   2  18
TORSDOF 2
ENDMDL
ENDMDL
