REMARK  Name = No_249-gen_results/8p0m/2024-11-26-14-13-15/
REMARK  3 active torsions:
REMARK  status: ('A' for Active; 'I' for Inactive)
REMARK    1  A    between atoms: C_5  and  C_11
REMARK    2  A    between atoms: C_10  and  C_15
REMARK    3  A    between atoms: C_16  and  C_17
REMARK                            x       y       z     vdW  Elec       q    Type
REMARK                         _______ _______ _______ _____ _____    ______ ____
ROOT
ATOM      1  C   UNL A   1     -28.016  -0.814  28.878  0.00  0.00    -0.000 A 
ATOM      2  C   UNL A   1     -27.064  -0.119  28.608  0.00  0.00    -0.000 A 
ATOM      3  C   UNL A   1     -26.929   1.171  29.008  0.00  0.00    -0.000 A 
ATOM      4  C   UNL A   1     -25.770   2.034  28.688  0.00  0.00    +0.004 A 
ATOM      5  C   UNL A   1     -24.714   1.443  27.919  0.00  0.00    +0.071 A 
ATOM      6  C   UNL A   1     -24.859   0.078  27.584  0.00  0.00    +0.004 A 
ATOM      7  C   UNL A   1     -25.965  -0.661  27.916  0.00  0.00    -0.000 A 
ATOM      8  C   UNL A   1     -28.658  -0.602  30.255  0.00  0.00    -0.000 A 
ATOM      9  C   UNL A   1     -28.911   0.699  30.539  0.00  0.00    -0.000 A 
ATOM     10  C   UNL A   1     -27.773   1.598  30.149  0.00  0.00    -0.000 A 
ENDROOT
BRANCH   5  11
ATOM     11  C   UNL A   1     -23.561   2.184  27.457  0.00  0.00    +0.419 C 
ATOM     12  F   UNL A   1     -22.537   1.543  27.438  0.00  0.00    -0.166 F 
ATOM     13  F   UNL A   1     -23.364   3.246  28.362  0.00  0.00    -0.166 F 
ATOM     14  F   UNL A   1     -23.815   2.820  26.314  0.00  0.00    -0.166 F 
ENDBRANCH   5  11
BRANCH  10  15
ATOM     15  C   UNL A   1     -27.712   2.985  30.654  0.00  0.00    -0.000 C 
ATOM     16  C   UNL A   1     -28.563   3.402  31.523  0.00  0.00    -0.000 C 
BRANCH  16  17
ATOM     17  C   UNL A   1     -28.439   4.742  32.029  0.00  0.00    +0.000 C 
ATOM     18  C   UNL A   1     -29.221   5.323  32.926  0.00  0.00    +0.000 C 
ENDBRANCH  16  17
ENDBRANCH  10  15
TORSDOF 3
