MODEL 2490
MODEL 1
REMARK VINA RESULT:    -4.971      0.000      0.000
REMARK INTER + INTRA:          -4.971
REMARK INTER:                  -4.971
REMARK INTRA:                   0.000
REMARK UNBOUND:                 0.000
REMARK  Name = No_2490-gen_results/8p0m/2024-11-26-14-13-15/
REMARK  0 active torsions:
REMARK  status: ('A' for Active; 'I' for Inactive)
REMARK                            x       y       z     vdW  Elec       q    Type
REMARK                         _______ _______ _______ _____ _____    ______ ____
ROOT
ATOM      1  C   UNL A   1     -24.021  -4.328  28.706  0.00  0.00    +0.059 A 
ATOM      2  C   UNL A   1     -24.867  -4.929  28.889  0.00  0.00    +0.142 A 
ATOM      3  C   UNL A   1     -24.093  -2.963  29.061  0.00  0.00    +0.142 A 
ATOM      4  C   UNL A   1     -24.977  -2.506  29.638  0.00  0.00    +0.030 A 
ATOM      5  C   UNL A   1     -26.110  -4.582  29.577  0.00  0.00    +0.030 A 
ATOM      6  C   UNL A   1     -26.147  -3.282  29.959  0.00  0.00    +0.005 A 
ATOM      7  F   UNL A   1     -22.948  -2.203  28.801  0.00  0.00    -0.204 F 
ATOM      8  F   UNL A   1     -24.856  -6.342  28.568  0.00  0.00    -0.204 F 
ENDROOT
TORSDOF 0
ENDMDL
ENDMDL
