REMARK  Name = No_2491-gen_results/8p0m/2024-11-26-14-13-15/
REMARK  2 active torsions:
REMARK  status: ('A' for Active; 'I' for Inactive)
REMARK    1  A    between atoms: C_1  and  C_2
REMARK    2  A    between atoms: C_3  and  O_13
REMARK                            x       y       z     vdW  Elec       q    Type
REMARK                         _______ _______ _______ _____ _____    ______ ____
ROOT
ATOM      1  C   UNL A   1     -28.016  -0.814  28.878  0.00  0.00    +0.089 A 
ATOM      2  C   UNL A   1     -28.182   0.428  28.113  0.00  0.00    +0.152 A 
ATOM      3  C   UNL A   1     -27.450   0.643  26.850  0.00  0.00    +0.102 A 
ATOM      4  C   UNL A   1     -26.181   0.036  26.715  0.00  0.00    +0.072 A 
ATOM      5  C   UNL A   1     -25.780  -0.933  27.694  0.00  0.00    +0.024 A 
ATOM      6  C   UNL A   1     -26.557  -1.213  28.741  0.00  0.00    +0.063 A 
ATOM      7 CL   UNL A   1     -25.141   0.351  25.429  0.00  0.00    -0.081 Cl
ATOM      8 CL   UNL A   1     -25.829  -2.563  29.621  0.00  0.00    -0.082 Cl
ATOM      9 CL   UNL A   1     -27.877   1.832  25.701  0.00  0.00    -0.078 Cl
ENDROOT
BRANCH   1  10
ATOM     10  C   UNL A   1     -28.469  -0.785  29.829  0.00  0.00    +0.345 C 
ATOM     11  F   UNL A   1     -29.675  -0.426  29.958  0.00  0.00    -0.193 F 
ATOM     12  F   UNL A   1     -28.254  -1.821  30.782  0.00  0.00    -0.193 F 
ENDBRANCH   1  10
BRANCH   2  13
ATOM     13  O   UNL A   1     -29.221   1.073  28.249  0.00  0.00    -0.471 OA
ATOM     14  C   UNL A   1     -29.555   1.934  27.384  0.00  0.00    +0.253 C 
ENDBRANCH   2  13
TORSDOF 2
