MODEL 2491
MODEL 1
REMARK VINA RESULT:    -4.967      0.000      0.000
REMARK INTER + INTRA:          -5.630
REMARK INTER:                  -5.547
REMARK INTRA:                  -0.083
REMARK UNBOUND:                -0.083
REMARK  Name = No_2491-gen_results/8p0m/2024-11-26-14-13-15/
REMARK  2 active torsions:
REMARK  status: ('A' for Active; 'I' for Inactive)
REMARK    1  A    between atoms: C_1  and  C_2
REMARK    2  A    between atoms: C_3  and  O_13
REMARK                            x       y       z     vdW  Elec       q    Type
REMARK                         _______ _______ _______ _____ _____    ______ ____
ROOT
ATOM      1  C   UNL A   1     -23.239  -0.093  29.161  0.00  0.00    +0.089 A 
ATOM      2  C   UNL A   1     -23.121   0.861  28.051  0.00  0.00    +0.152 A 
ATOM      3  C   UNL A   1     -24.246   1.086  27.123  0.00  0.00    +0.102 A 
ATOM      4  C   UNL A   1     -25.119   0.003  26.875  0.00  0.00    +0.072 A 
ATOM      5  C   UNL A   1     -25.012  -1.164  27.702  0.00  0.00    +0.024 A 
ATOM      6  C   UNL A   1     -24.072  -1.253  28.645  0.00  0.00    +0.063 A 
ATOM      7 CL   UNL A   1     -26.319   0.038  25.694  0.00  0.00    -0.081 Cl
ATOM      8 CL   UNL A   1     -24.357  -2.735  29.567  0.00  0.00    -0.082 Cl
ATOM      9 CL   UNL A   1     -24.360   2.439  26.088  0.00  0.00    -0.078 Cl
ENDROOT
BRANCH   1  10
ATOM     10  C   UNL A   1     -22.327  -0.276  29.656  0.00  0.00    +0.345 C 
ATOM     11  F   UNL A   1     -22.304  -0.513  30.898  0.00  0.00    -0.193 F 
ATOM     12  F   UNL A   1     -21.321  -1.098  29.071  0.00  0.00    -0.193 F 
ENDBRANCH   1  10
BRANCH   2  13
ATOM     13  O   UNL A   1     -22.309   1.781  28.145  0.00  0.00    -0.471 OA
ATOM     14  C   UNL A   1     -21.312   1.833  27.367  0.00  0.00    +0.253 C 
ENDBRANCH   2  13
TORSDOF 2
ENDMDL
ENDMDL
