MODEL 2492
MODEL 1
REMARK VINA RESULT:    -7.434      0.000      0.000
REMARK INTER + INTRA:          -7.434
REMARK INTER:                  -7.434
REMARK INTRA:                   0.000
REMARK UNBOUND:                 0.000
REMARK  Name = No_2492-gen_results/8p0m/2024-11-26-14-13-15/
REMARK  0 active torsions:
REMARK  status: ('A' for Active; 'I' for Inactive)
REMARK                            x       y       z     vdW  Elec       q    Type
REMARK                         _______ _______ _______ _____ _____    ______ ____
ROOT
ATOM      1  C   UNL A   1      -9.786  -0.599  38.186  0.00  0.00    -0.004 A 
ATOM      2  C   UNL A   1     -10.631  -0.375  38.774  0.00  0.00    +0.001 A 
ATOM      3  C   UNL A   1      -9.780   0.077  36.889  0.00  0.00    -0.024 A 
ATOM      4  C   UNL A   1      -8.654   0.005  35.931  0.00  0.00    +0.034 C 
ATOM      5  C   UNL A   1     -11.812   0.460  38.605  0.00  0.00    +0.016 A 
ATOM      6  C   UNL A   1     -11.849   1.107  37.386  0.00  0.00    +0.067 A 
ATOM      7  C   UNL A   1     -10.820   0.974  36.530  0.00  0.00    +0.006 A 
ATOM      8  C   UNL A   1      -8.931   0.465  34.629  0.00  0.00    +0.070 C 
ATOM      9  C   UNL A   1      -9.975   1.330  34.321  0.00  0.00    +0.165 C 
ATOM     10  C   UNL A   1     -10.997   1.505  35.218  0.00  0.00    +0.179 C 
ATOM     11  C   UNL A   1     -12.111   2.381  34.796  0.00  0.00    +0.328 C 
ATOM     12  O   UNL A   1     -13.215   2.039  35.316  0.00  0.00    -0.448 OA
ATOM     13  O   UNL A   1     -11.932   3.438  34.195  0.00  0.00    -0.249 OA
ATOM     14  O   UNL A   1      -9.906   1.881  33.048  0.00  0.00    -0.295 OA
ATOM     15  C   UNL A   1     -14.280   2.901  34.988  0.00  0.00    +0.213 C 
ATOM     16  C   UNL A   1     -15.007   3.410  36.049  0.00  0.00    +0.075 C 
ATOM     17  C   UNL A   1     -14.629   3.082  37.204  0.00  0.00    -0.003 A 
ATOM     18  C   UNL A   1     -15.098   3.962  38.309  0.00  0.00    -0.003 A 
ATOM     19  C   UNL A   1     -14.569   3.761  39.655  0.00  0.00    -0.000 A 
ATOM     20  C   UNL A   1     -13.528   2.982  39.754  0.00  0.00    +0.001 A 
ATOM     21  C   UNL A   1     -12.936   2.290  38.754  0.00  0.00    +0.016 A 
ATOM     22  C   UNL A   1     -13.534   2.599  37.505  0.00  0.00    +0.067 A 
ATOM     23  N   UNL A   1     -12.768   2.060  37.160  0.00  0.00    -0.213 NA
ENDROOT
TORSDOF 0
ENDMDL
ENDMDL
