REMARK  Name = No_2492-gen_results/8p0m/2024-11-26-14-13-15/
REMARK  0 active torsions:
REMARK  status: ('A' for Active; 'I' for Inactive)
REMARK                            x       y       z     vdW  Elec       q    Type
REMARK                         _______ _______ _______ _____ _____    ______ ____
ROOT
ATOM      1  C   UNL A   1     -28.016  -0.814  28.878  0.00  0.00    -0.004 A 
ATOM      2  C   UNL A   1     -28.469  -0.785  29.829  0.00  0.00    +0.001 A 
ATOM      3  C   UNL A   1     -27.087   0.290  28.638  0.00  0.00    -0.024 A 
ATOM      4  C   UNL A   1     -26.252   0.411  27.422  0.00  0.00    +0.034 C 
ATOM      5  C   UNL A   1     -28.391   0.104  30.980  0.00  0.00    +0.016 A 
ATOM      6  C   UNL A   1     -27.533   1.167  30.787  0.00  0.00    +0.067 A 
ATOM      7  C   UNL A   1     -26.828   1.256  29.645  0.00  0.00    +0.006 A 
ATOM      8  C   UNL A   1     -25.645   1.665  27.222  0.00  0.00    +0.070 C 
ATOM      9  C   UNL A   1     -25.428   2.590  28.237  0.00  0.00    +0.165 C 
ATOM     10  C   UNL A   1     -26.108   2.467  29.421  0.00  0.00    +0.179 C 
ATOM     11  C   UNL A   1     -25.886   3.525  30.430  0.00  0.00    +0.328 C 
ATOM     12  O   UNL A   1     -26.904   3.714  31.161  0.00  0.00    -0.448 OA
ATOM     13  O   UNL A   1     -24.775   3.996  30.663  0.00  0.00    -0.249 OA
ATOM     14  O   UNL A   1     -24.572   3.628  27.894  0.00  0.00    -0.295 OA
ATOM     15  C   UNL A   1     -26.695   4.667  32.178  0.00  0.00    +0.213 C 
ATOM     16  C   UNL A   1     -27.003   4.267  33.466  0.00  0.00    +0.075 C 
ATOM     17  C   UNL A   1     -27.408   3.084  33.611  0.00  0.00    -0.003 A 
ATOM     18  C   UNL A   1     -27.299   2.531  34.988  0.00  0.00    -0.003 A 
ATOM     19  C   UNL A   1     -27.581   1.116  35.213  0.00  0.00    -0.000 A 
ATOM     20  C   UNL A   1     -27.668   0.370  34.147  0.00  0.00    +0.001 A 
ATOM     21  C   UNL A   1     -27.595   0.783  32.861  0.00  0.00    +0.016 A 
ATOM     22  C   UNL A   1     -27.294   2.167  32.793  0.00  0.00    +0.067 A 
ATOM     23  N   UNL A   1     -27.205   1.960  31.821  0.00  0.00    -0.213 NA
ENDROOT
TORSDOF 0
