REMARK  Name = No_2493-gen_results/8p0m/2024-11-26-14-13-15/
REMARK  9 active torsions:
REMARK  status: ('A' for Active; 'I' for Inactive)
REMARK    1  A    between atoms: C_1  and  O_16
REMARK    2  A    between atoms: C_5  and  O_21
REMARK    3  A    between atoms: O_16  and  C_17
REMARK    4  A    between atoms: C_17  and  C_18
REMARK    5  A    between atoms: O_21  and  C_22
REMARK    6  A    between atoms: C_22  and  C_23
REMARK    7  A    between atoms: C_23  and  O_25
REMARK    8  A    between atoms: O_25  and  C_26
REMARK    9  A    between atoms: C_27  and  C_28
REMARK                            x       y       z     vdW  Elec       q    Type
REMARK                         _______ _______ _______ _____ _____    ______ ____
ROOT
ATOM      1  C   UNL A   1     -28.016  -0.814  28.878  0.00  0.00    +0.219 C 
ATOM      2  C   UNL A   1     -27.064  -0.119  28.608  0.00  0.00    +0.259 C 
ATOM      3  N   UNL A   1     -25.818  -0.343  29.049  0.00  0.00    -0.259 N 
ATOM      4  C   UNL A   1     -25.555  -1.473  29.730  0.00  0.00    +0.083 C 
ATOM      5  C   UNL A   1     -27.855  -1.929  29.813  0.00  0.00    +0.153 C 
ATOM      6  C   UNL A   1     -24.152  -1.692  30.140  0.00  0.00    +0.025 C 
ATOM      7  C   UNL A   1     -26.517  -2.310  30.232  0.00  0.00    +0.053 C 
ATOM      8  C   UNL A   1     -24.530   0.332  28.620  0.00  0.00    +0.050 A 
ATOM      9  C   UNL A   1     -24.508   1.402  27.847  0.00  0.00    +0.015 A 
ATOM     10  C   UNL A   1     -23.260  -0.175  29.228  0.00  0.00    -0.008 A 
ATOM     11  C   UNL A   1     -23.064  -1.024  29.813  0.00  0.00    +0.029 C 
ATOM     12  C   UNL A   1     -23.305   2.003  27.449  0.00  0.00    +0.001 A 
ATOM     13  C   UNL A   1     -22.083   1.671  27.969  0.00  0.00    -0.000 A 
ATOM     14  C   UNL A   1     -21.965   0.688  28.743  0.00  0.00    -0.003 A 
ATOM     15  O   UNL A   1     -27.193   0.936  27.788  0.00  0.00    -0.272 OA
ENDROOT
BRANCH   1  16
ATOM     16  O   UNL A   1     -29.285  -0.494  28.742  0.00  0.00    -0.334 OA
BRANCH  16  17
ATOM     17  C   UNL A   1     -29.735   0.457  28.018  0.00  0.00    +0.257 C 
BRANCH  17  18
ATOM     18  C   UNL A   1     -31.051   0.373  27.593  0.00  0.00    +0.395 C 
ATOM     19  O   UNL A   1     -31.511   0.905  26.733  0.00  0.00    -0.243 OA
ATOM     20  O   UNL A   1     -31.873  -0.463  28.294  0.00  0.00    -0.243 OA
ENDBRANCH  17  18
ENDBRANCH  16  17
ENDBRANCH   1  16
BRANCH   5  21
ATOM     21  O   UNL A   1     -28.895  -2.670  30.197  0.00  0.00    -0.342 OA
BRANCH  21  22
ATOM     22  C   UNL A   1     -28.910  -3.318  31.419  0.00  0.00    +0.252 C 
BRANCH  22  23
ATOM     23  C   UNL A   1     -29.524  -4.604  31.211  0.00  0.00    +0.352 C 
ATOM     24  O   UNL A   1     -29.226  -5.396  32.113  0.00  0.00    -0.247 OA
BRANCH  23  25
ATOM     25  O   UNL A   1     -30.152  -4.946  30.177  0.00  0.00    -0.419 OA
BRANCH  25  26
ATOM     26  C   UNL A   1     -31.506  -5.206  30.238  0.00  0.00    +0.190 C 
ATOM     27  C   UNL A   1     -32.043  -5.353  29.083  0.00  0.00    +0.127 C 
BRANCH  27  28
ATOM     28  C   UNL A   1     -31.365  -5.245  27.885  0.00  0.00    +0.391 C 
ATOM     29  O   UNL A   1     -30.269  -5.431  27.817  0.00  0.00    -0.240 OA
ATOM     30  O   UNL A   1     -32.005  -4.841  26.793  0.00  0.00    -0.240 OA
ENDBRANCH  27  28
ENDBRANCH  25  26
ENDBRANCH  23  25
ENDBRANCH  22  23
ENDBRANCH  21  22
ENDBRANCH   5  21
TORSDOF 9
