MODEL 2493
MODEL 1
REMARK VINA RESULT:    -7.322      0.000      0.000
REMARK INTER + INTRA:         -11.810
REMARK INTER:                 -11.175
REMARK INTRA:                  -0.635
REMARK UNBOUND:                -0.635
REMARK  Name = No_2493-gen_results/8p0m/2024-11-26-14-13-15/
REMARK  9 active torsions:
REMARK  status: ('A' for Active; 'I' for Inactive)
REMARK    1  A    between atoms: C_1  and  O_16
REMARK    2  A    between atoms: C_5  and  O_21
REMARK    3  A    between atoms: O_16  and  C_17
REMARK    4  A    between atoms: C_17  and  C_18
REMARK    5  A    between atoms: O_21  and  C_22
REMARK    6  A    between atoms: C_22  and  C_23
REMARK    7  A    between atoms: C_23  and  O_25
REMARK    8  A    between atoms: O_25  and  C_26
REMARK    9  A    between atoms: C_27  and  C_28
REMARK                            x       y       z     vdW  Elec       q    Type
REMARK                         _______ _______ _______ _____ _____    ______ ____
ROOT
ATOM      1  C   UNL A   1     -21.729 -19.873   7.758  0.00  0.00    +0.219 C 
ATOM      2  C   UNL A   1     -20.923 -20.759   7.927  0.00  0.00    +0.259 C 
ATOM      3  N   UNL A   1     -19.749 -20.841   7.287  0.00  0.00    -0.259 N 
ATOM      4  C   UNL A   1     -19.358 -19.825   6.497  0.00  0.00    +0.083 C 
ATOM      5  C   UNL A   1     -21.482 -18.856   6.735  0.00  0.00    +0.153 C 
ATOM      6  C   UNL A   1     -18.028 -19.947   5.863  0.00  0.00    +0.025 C 
ATOM      7  C   UNL A   1     -20.180 -18.806   6.091  0.00  0.00    +0.053 C 
ATOM      8  C   UNL A   1     -18.589 -21.779   7.560  0.00  0.00    +0.050 A 
ATOM      9  C   UNL A   1     -18.678 -22.800   8.392  0.00  0.00    +0.015 A 
ATOM     10  C   UNL A   1     -17.356 -21.597   6.731  0.00  0.00    -0.008 A 
ATOM     11  C   UNL A   1     -17.076 -20.835   6.066  0.00  0.00    +0.029 C 
ATOM     12  C   UNL A   1     -17.589 -23.647   8.643  0.00  0.00    +0.001 A 
ATOM     13  C   UNL A   1     -16.426 -23.622   7.920  0.00  0.00    -0.000 A 
ATOM     14  C   UNL A   1     -16.222 -22.718   7.071  0.00  0.00    -0.003 A 
ATOM     15  O   UNL A   1     -21.146 -21.729   8.828  0.00  0.00    -0.272 OA
ENDROOT
BRANCH   1  16
ATOM     16  O   UNL A   1     -22.998 -19.889   8.108  0.00  0.00    -0.334 OA
BRANCH  16  17
ATOM     17  C   UNL A   1     -23.909 -20.591   7.555  0.00  0.00    +0.257 C 
BRANCH  17  18
ATOM     18  C   UNL A   1     -25.227 -20.288   7.859  0.00  0.00    +0.395 C 
ATOM     19  O   UNL A   1     -26.137 -20.771   7.443  0.00  0.00    -0.243 OA
ATOM     20  O   UNL A   1     -25.435 -19.300   8.779  0.00  0.00    -0.243 OA
ENDBRANCH  17  18
ENDBRANCH  16  17
ENDBRANCH   1  16
BRANCH   5  21
ATOM     21  O   UNL A   1     -22.381 -17.909   6.464  0.00  0.00    -0.342 OA
BRANCH  21  22
ATOM     22  C   UNL A   1     -22.300 -17.142   5.316  0.00  0.00    +0.252 C 
BRANCH  22  23
ATOM     23  C   UNL A   1     -22.466 -15.767   5.711  0.00  0.00    +0.352 C 
ATOM     24  O   UNL A   1     -23.162 -15.672   6.729  0.00  0.00    -0.247 OA
BRANCH  23  25
ATOM     25  O   UNL A   1     -22.095 -14.772   5.038  0.00  0.00    -0.419 OA
BRANCH  25  26
ATOM     26  C   UNL A   1     -22.669 -13.535   5.249  0.00  0.00    +0.190 C 
ATOM     27  C   UNL A   1     -22.010 -12.575   4.712  0.00  0.00    +0.127 C 
BRANCH  27  28
ATOM     28  C   UNL A   1     -20.831 -12.732   4.010  0.00  0.00    +0.391 C 
ATOM     29  O   UNL A   1     -19.844 -12.499   4.469  0.00  0.00    -0.240 OA
ATOM     30  O   UNL A   1     -20.861 -13.100   2.733  0.00  0.00    -0.240 OA
ENDBRANCH  27  28
ENDBRANCH  25  26
ENDBRANCH  23  25
ENDBRANCH  22  23
ENDBRANCH  21  22
ENDBRANCH   5  21
TORSDOF 9
ENDMDL
ENDMDL
