MODEL 2494
MODEL 1
REMARK VINA RESULT:    -7.062      0.000      0.000
REMARK INTER + INTRA:         -10.683
REMARK INTER:                  -9.126
REMARK INTRA:                  -1.557
REMARK UNBOUND:                -1.557
REMARK  Name = No_2494-gen_results/8p0m/2024-11-26-14-13-15/
REMARK  5 active torsions:
REMARK  status: ('A' for Active; 'I' for Inactive)
REMARK    1  A    between atoms: C_3  and  C_7
REMARK    2  A    between atoms: C_7  and  C_8
REMARK    3  A    between atoms: C_7  and  C_17
REMARK    4  A    between atoms: C_8  and  C_9
REMARK    5  A    between atoms: C_9  and  C_10
REMARK                            x       y       z     vdW  Elec       q    Type
REMARK                         _______ _______ _______ _____ _____    ______ ____
ROOT
ATOM      1  C   UNL A   1     -25.603  -1.258  29.584  0.00  0.00    +0.089 C 
ENDROOT
BRANCH   1   4
ATOM      2  C   UNL A   1     -24.144  -3.172  28.766  0.00  0.00    -0.004 A 
ATOM      3  C   UNL A   1     -23.999  -4.216  28.755  0.00  0.00    -0.000 A 
ATOM      4  C   UNL A   1     -25.384  -2.761  29.437  0.00  0.00    -0.017 A 
ATOM      5  C   UNL A   1     -26.313  -3.636  29.823  0.00  0.00    -0.004 A 
ATOM      6  C   UNL A   1     -24.849  -5.335  29.084  0.00  0.00    -0.000 A 
ATOM      7  C   UNL A   1     -26.006  -4.932  29.683  0.00  0.00    -0.000 A 
ENDBRANCH   1   4
BRANCH   1   8
ATOM      8  C   UNL A   1     -26.431  -0.591  28.694  0.00  0.00    +0.322 C 
ATOM      9  F   UNL A   1     -25.991  -0.553  27.574  0.00  0.00    -0.198 F 
ATOM     10  F   UNL A   1     -26.631   0.695  29.238  0.00  0.00    -0.198 F 
ENDBRANCH   1   8
BRANCH   1  11
ATOM     11  C   UNL A   1     -24.940  -0.574  30.660  0.00  0.00    +0.014 C 
BRANCH  11  12
ATOM     12  C   UNL A   1     -23.551  -0.610  30.789  0.00  0.00    +0.023 C 
ATOM     13  C   UNL A   1     -22.970  -1.050  32.056  0.00  0.00    +0.005 C 
BRANCH  12  14
ATOM     14  C   UNL A   1     -22.739   0.056  29.849  0.00  0.00    -0.022 A 
ATOM     15  C   UNL A   1     -21.619  -0.603  29.299  0.00  0.00    -0.004 A 
ATOM     16  C   UNL A   1     -20.902   0.177  28.309  0.00  0.00    -0.000 A 
ATOM     17  C   UNL A   1     -21.472   1.317  27.734  0.00  0.00    -0.000 A 
ATOM     18  C   UNL A   1     -22.713   1.785  28.175  0.00  0.00    -0.000 A 
ATOM     19  C   UNL A   1     -23.370   1.124  29.161  0.00  0.00    -0.004 A 
ENDBRANCH  12  14
ENDBRANCH  11  12
ENDBRANCH   1  11
TORSDOF 5
ENDMDL
ENDMDL
