REMARK  Name = No_2495-gen_results/8p0m/2024-11-26-14-13-15/
REMARK  1 active torsions:
REMARK  status: ('A' for Active; 'I' for Inactive)
REMARK    1  A    between atoms: C_5  and  C_7
REMARK                            x       y       z     vdW  Elec       q    Type
REMARK                         _______ _______ _______ _____ _____    ______ ____
ROOT
ATOM      1  C   UNL A   1     -28.016  -0.814  28.878  0.00  0.00    +0.206 A 
ATOM      2  C   UNL A   1     -27.064  -0.119  28.608  0.00  0.00    +0.097 A 
ATOM      3  C   UNL A   1     -27.001   0.691  27.491  0.00  0.00    +0.015 A 
ATOM      4  C   UNL A   1     -28.137   0.736  26.635  0.00  0.00    +0.008 A 
ATOM      5  C   UNL A   1     -29.236   0.076  27.069  0.00  0.00    +0.083 A 
ATOM      6  C   UNL A   1     -29.218  -0.643  28.175  0.00  0.00    +0.050 A 
ATOM      7 CL   UNL A   1     -25.520  -0.221  29.558  0.00  0.00    -0.079 Cl
ATOM      8  O   UNL A   1     -28.037  -1.613  30.054  0.00  0.00    -0.286 OA
ENDROOT
BRANCH   5   9
ATOM      9  C   UNL A   1     -30.415   0.159  26.182  0.00  0.00    +0.388 C 
ATOM     10  O   UNL A   1     -30.389   0.053  24.990  0.00  0.00    -0.241 OA
ATOM     11  O   UNL A   1     -31.573   0.549  26.710  0.00  0.00    -0.241 OA
ENDBRANCH   5   9
TORSDOF 1
