MODEL 2495
MODEL 1
REMARK VINA RESULT:    -5.140      0.000      0.000
REMARK INTER + INTRA:          -5.488
REMARK INTER:                  -5.440
REMARK INTRA:                  -0.048
REMARK UNBOUND:                -0.048
REMARK  Name = No_2495-gen_results/8p0m/2024-11-26-14-13-15/
REMARK  1 active torsions:
REMARK  status: ('A' for Active; 'I' for Inactive)
REMARK    1  A    between atoms: C_5  and  C_7
REMARK                            x       y       z     vdW  Elec       q    Type
REMARK                         _______ _______ _______ _____ _____    ______ ____
ROOT
ATOM      1  C   UNL A   1     -29.784 -10.006  31.437  0.00  0.00    +0.206 A 
ATOM      2  C   UNL A   1     -29.645 -10.707  30.462  0.00  0.00    +0.097 A 
ATOM      3  C   UNL A   1     -28.709 -11.720  30.376  0.00  0.00    +0.015 A 
ATOM      4  C   UNL A   1     -27.894 -11.973  31.515  0.00  0.00    +0.008 A 
ATOM      5  C   UNL A   1     -28.203 -11.279  32.634  0.00  0.00    +0.083 A 
ATOM      6  C   UNL A   1     -29.145 -10.355  32.636  0.00  0.00    +0.050 A 
ATOM      7 CL   UNL A   1     -30.535 -10.365  28.917  0.00  0.00    -0.079 Cl
ATOM      8  O   UNL A   1     -30.779  -8.991  31.481  0.00  0.00    -0.286 OA
ENDROOT
BRANCH   5   9
ATOM      9  C   UNL A   1     -27.366 -11.577  33.815  0.00  0.00    +0.388 C 
ATOM     10  O   UNL A   1     -27.073 -10.790  34.668  0.00  0.00    -0.241 OA
ATOM     11  O   UNL A   1     -26.742 -12.752  33.863  0.00  0.00    -0.241 OA
ENDBRANCH   5   9
TORSDOF 1
ENDMDL
ENDMDL
