MODEL 2496
MODEL 1
REMARK VINA RESULT:    -5.187      0.000      0.000
REMARK INTER + INTRA:          -5.841
REMARK INTER:                  -5.793
REMARK INTRA:                  -0.048
REMARK UNBOUND:                -0.048
REMARK  Name = No_2496-gen_results/8p0m/2024-11-26-14-13-15/
REMARK  2 active torsions:
REMARK  status: ('A' for Active; 'I' for Inactive)
REMARK    1  A    between atoms: C_1  and  C_2
REMARK    2  A    between atoms: C_1  and  N_8
REMARK                            x       y       z     vdW  Elec       q    Type
REMARK                         _______ _______ _______ _____ _____    ______ ____
ROOT
ATOM      1  C   UNL A   1     -24.662  -2.488  29.219  0.00  0.00    -0.001 A 
ATOM      2  C   UNL A   1     -25.894  -2.902  29.685  0.00  0.00    -0.003 A 
ATOM      3  C   UNL A   1     -26.217  -4.256  29.753  0.00  0.00    -0.000 A 
ATOM      4  C   UNL A   1     -25.390  -5.281  29.132  0.00  0.00    -0.000 A 
ATOM      5  C   UNL A   1     -24.167  -4.835  28.606  0.00  0.00    -0.000 A 
ATOM      6  C   UNL A   1     -23.831  -3.522  28.728  0.00  0.00    -0.003 A 
ENDROOT
BRANCH   1   7
ATOM      7  C   UNL A   1     -24.134  -1.452  29.551  0.00  0.00    +0.140 C 
BRANCH   7   8
ATOM      8  N   UNL A   1     -22.838  -1.277  29.124  0.00  0.00    -0.212 NA
ATOM      9  C   UNL A   1     -22.020  -0.564  29.224  0.00  0.00    +0.205 C 
ATOM     10  N   UNL A   1     -20.760  -0.700  28.669  0.00  0.00    -0.127 NA
ENDBRANCH   7   8
ENDBRANCH   1   7
TORSDOF 2
ENDMDL
ENDMDL
