MODEL 2497
MODEL 1
REMARK VINA RESULT:    -6.542      0.000      0.000
REMARK INTER + INTRA:          -7.277
REMARK INTER:                  -6.924
REMARK INTRA:                  -0.352
REMARK UNBOUND:                -0.352
REMARK  Name = No_2497-gen_results/8p0m/2024-11-26-14-13-15/
REMARK  1 active torsions:
REMARK  status: ('A' for Active; 'I' for Inactive)
REMARK    1  A    between atoms: C_2  and  C_7
REMARK                            x       y       z     vdW  Elec       q    Type
REMARK                         _______ _______ _______ _____ _____    ______ ____
ROOT
ATOM      1  C   UNL A   1     -24.018  -3.876  28.854  0.00  0.00    +0.000 A 
ATOM      2  C   UNL A   1     -24.414  -2.757  29.087  0.00  0.00    +0.000 A 
ATOM      3  C   UNL A   1     -25.675  -2.540  29.631  0.00  0.00    +0.000 A 
ATOM      4  C   UNL A   1     -26.568  -3.639  29.892  0.00  0.00    +0.000 A 
ATOM      5  C   UNL A   1     -26.040  -4.896  29.571  0.00  0.00    +0.000 A 
ATOM      6  C   UNL A   1     -24.847  -5.047  29.042  0.00  0.00    +0.000 A 
ENDROOT
BRANCH   2   7
ATOM      7  C   UNL A   1     -23.639  -1.508  28.856  0.00  0.00    +0.000 A 
ATOM      8  C   UNL A   1     -22.510  -1.207  29.212  0.00  0.00    +0.000 A 
ATOM      9  C   UNL A   1     -21.789   0.011  28.824  0.00  0.00    +0.000 A 
ATOM     10  C   UNL A   1     -22.481   0.919  27.995  0.00  0.00    +0.000 A 
ATOM     11  C   UNL A   1     -24.285  -0.524  27.955  0.00  0.00    +0.000 A 
ATOM     12  C   UNL A   1     -23.709   0.602  27.586  0.00  0.00    +0.000 A 
ENDBRANCH   2   7
TORSDOF 1
ENDMDL
ENDMDL
