MODEL 2498
MODEL 1
REMARK VINA RESULT:    -5.006      0.000      0.000
REMARK INTER + INTRA:          -5.006
REMARK INTER:                  -5.006
REMARK INTRA:                   0.000
REMARK UNBOUND:                 0.000
REMARK  Name = No_2498-gen_results/8p0m/2024-11-26-14-13-15/
REMARK  0 active torsions:
REMARK  status: ('A' for Active; 'I' for Inactive)
REMARK                            x       y       z     vdW  Elec       q    Type
REMARK                         _______ _______ _______ _____ _____    ______ ____
ROOT
ATOM      1  C   UNL A   1      -8.999 -10.508  17.985  0.00  0.00    +0.042 A 
ATOM      2  C   UNL A   1      -9.954 -10.087  18.128  0.00  0.00    +0.196 A 
ATOM      3  C   UNL A   1      -8.017 -10.295  19.060  0.00  0.00    +0.003 A 
ATOM      4  C   UNL A   1      -8.294  -9.603  20.034  0.00  0.00    +0.000 A 
ATOM      5  C   UNL A   1     -10.547  -9.333  19.249  0.00  0.00    +0.042 A 
ATOM      6  C   UNL A   1      -9.627  -9.078  20.218  0.00  0.00    +0.003 A 
ATOM      7  O   UNL A   1     -10.985 -10.321  17.109  0.00  0.00    -0.287 OA
ENDROOT
TORSDOF 0
ENDMDL
ENDMDL
