MODEL 2499
MODEL 1
REMARK VINA RESULT:    -7.784      0.000      0.000
REMARK INTER + INTRA:          -8.714
REMARK INTER:                  -8.239
REMARK INTRA:                  -0.475
REMARK UNBOUND:                -0.475
REMARK  Name = No_2499-gen_results/8p0m/2024-11-26-14-13-15/
REMARK  1 active torsions:
REMARK  status: ('A' for Active; 'I' for Inactive)
REMARK    1  A    between atoms: C_4  and  C_11
REMARK                            x       y       z     vdW  Elec       q    Type
REMARK                         _______ _______ _______ _____ _____    ______ ____
ROOT
ATOM      1  C   UNL A   1     -25.788   0.223  26.058  0.00  0.00    +0.000 A 
ATOM      2  C   UNL A   1     -25.434  -0.566  26.903  0.00  0.00    +0.000 A 
ATOM      3  C   UNL A   1     -24.270  -0.419  27.657  0.00  0.00    +0.000 A 
ATOM      4  C   UNL A   1     -23.758  -1.334  28.695  0.00  0.00    +0.000 A 
ATOM      5  C   UNL A   1     -22.529  -1.171  29.428  0.00  0.00    +0.000 A 
ATOM      6  C   UNL A   1     -21.902   0.067  29.251  0.00  0.00    +0.000 A 
ATOM      7  C   UNL A   1     -24.835   1.329  25.704  0.00  0.00    +0.000 A 
ATOM      8  C   UNL A   1     -23.712   1.602  26.452  0.00  0.00    +0.000 A 
ATOM      9  C   UNL A   1     -23.337   0.719  27.448  0.00  0.00    +0.000 A 
ATOM     10  C   UNL A   1     -22.214   0.952  28.241  0.00  0.00    +0.000 A 
ENDROOT
BRANCH   4  11
ATOM     11  C   UNL A   1     -24.516  -2.582  29.034  0.00  0.00    +0.000 A 
ATOM     12  C   UNL A   1     -25.711  -2.428  29.726  0.00  0.00    +0.000 A 
ATOM     13  C   UNL A   1     -24.010  -3.790  28.742  0.00  0.00    +0.000 A 
ATOM     14  C   UNL A   1     -24.779  -4.940  28.844  0.00  0.00    +0.000 A 
ATOM     15  C   UNL A   1     -26.537  -3.576  29.929  0.00  0.00    +0.000 A 
ATOM     16  C   UNL A   1     -26.021  -4.835  29.631  0.00  0.00    +0.000 A 
ENDBRANCH   4  11
TORSDOF 1
ENDMDL
ENDMDL
