MODEL 249
MODEL 1
REMARK VINA RESULT:    -7.247      0.000      0.000
REMARK INTER + INTRA:          -9.094
REMARK INTER:                  -8.518
REMARK INTRA:                  -0.576
REMARK UNBOUND:                -0.576
REMARK  Name = No_249-gen_results/8p0m/2024-11-26-14-13-15/
REMARK  3 active torsions:
REMARK  status: ('A' for Active; 'I' for Inactive)
REMARK    1  A    between atoms: C_5  and  C_11
REMARK    2  A    between atoms: C_10  and  C_15
REMARK    3  A    between atoms: C_16  and  C_17
REMARK                            x       y       z     vdW  Elec       q    Type
REMARK                         _______ _______ _______ _____ _____    ______ ____
ROOT
ATOM      1  C   UNL A   1     -21.899   1.789  27.367  0.00  0.00    -0.000 A 
ATOM      2  C   UNL A   1     -22.502   0.845  27.822  0.00  0.00    -0.000 A 
ATOM      3  C   UNL A   1     -23.782   0.533  27.495  0.00  0.00    -0.000 A 
ATOM      4  C   UNL A   1     -24.533  -0.619  28.041  0.00  0.00    +0.004 A 
ATOM      5  C   UNL A   1     -23.838  -1.469  28.963  0.00  0.00    +0.071 A 
ATOM      6  C   UNL A   1     -22.485  -1.153  29.222  0.00  0.00    +0.004 A 
ATOM      7  C   UNL A   1     -21.853  -0.065  28.678  0.00  0.00    -0.000 A 
ATOM      8  C   UNL A   1     -22.191   2.157  25.907  0.00  0.00    -0.000 A 
ATOM      9  C   UNL A   1     -23.514   2.245  25.626  0.00  0.00    -0.000 A 
ATOM     10  C   UNL A   1     -24.302   1.123  26.239  0.00  0.00    -0.000 A 
ENDROOT
BRANCH   5  11
ATOM     11  C   UNL A   1     -24.465  -2.580  29.643  0.00  0.00    +0.419 C 
ATOM     12  F   UNL A   1     -23.834  -3.609  29.596  0.00  0.00    -0.166 F 
ATOM     13  F   UNL A   1     -25.693  -2.821  28.994  0.00  0.00    -0.166 F 
ATOM     14  F   UNL A   1     -24.849  -2.245  30.875  0.00  0.00    -0.166 F 
ENDBRANCH   5  11
BRANCH  10  15
ATOM     15  C   UNL A   1     -25.687   0.858  25.798  0.00  0.00    -0.000 C 
ATOM     16  C   UNL A   1     -25.914   0.185  24.726  0.00  0.00    -0.000 C 
BRANCH  16  17
ATOM     17  C   UNL A   1     -27.275  -0.097  24.358  0.00  0.00    +0.000 C 
ATOM     18  C   UNL A   1     -28.105   0.714  23.720  0.00  0.00    +0.000 C 
ENDBRANCH  16  17
ENDBRANCH  10  15
TORSDOF 3
ENDMDL
ENDMDL
