MODEL 24
MODEL 1
REMARK VINA RESULT:    -6.971      0.000      0.000
REMARK INTER + INTRA:         -10.556
REMARK INTER:                  -9.417
REMARK INTRA:                  -1.139
REMARK UNBOUND:                -1.139
REMARK  Name = No_24-gen_results/8p0m/2024-11-26-14-13-15/
REMARK  6 active torsions:
REMARK  status: ('A' for Active; 'I' for Inactive)
REMARK    1  A    between atoms: C_1  and  C_2
REMARK    2  A    between atoms: C_1  and  C_8
REMARK    3  A    between atoms: C_5  and  C_10
REMARK    4  A    between atoms: C_8  and  N_9
REMARK    5  A    between atoms: C_8  and  C_18
REMARK    6  A    between atoms: C_19  and  C_20
REMARK                            x       y       z     vdW  Elec       q    Type
REMARK                         _______ _______ _______ _____ _____    ______ ____
ROOT
ATOM      1  C   UNL A   1     -24.232  -1.453  29.848  0.00  0.00    +0.127 C 
ENDROOT
BRANCH   1   2
ATOM      2  N   UNL A   1     -24.710  -2.710  29.448  0.00  0.00    -0.263 NA
ATOM      3  C   UNL A   1     -25.845  -3.147  29.740  0.00  0.00    +0.073 C 
ATOM      4  C   UNL A   1     -23.863  -3.545  28.682  0.00  0.00    +0.073 C 
ATOM      5  C   UNL A   1     -24.077  -4.848  28.640  0.00  0.00    +0.017 C 
ATOM      6  C   UNL A   1     -26.208  -4.560  29.735  0.00  0.00    +0.017 C 
ATOM      7  C   UNL A   1     -25.334  -5.360  29.005  0.00  0.00    +0.003 C 
ENDBRANCH   1   2
BRANCH   1   8
ATOM      8  C   UNL A   1     -23.546  -1.468  31.208  0.00  0.00    -0.071 C 
ATOM      9  C   UNL A   1     -24.382  -1.088  32.337  0.00  0.00    -0.063 C 
BRANCH   9  10
ATOM     10  C   UNL A   1     -23.844  -1.153  33.578  0.00  0.00    +0.045 C 
ATOM     11  C   UNL A   1     -24.594  -0.867  34.741  0.00  0.00    -0.017 C 
ATOM     12  C   UNL A   1     -25.834  -0.332  34.585  0.00  0.00    +0.031 C 
ENDBRANCH   9  10
ENDBRANCH   1   8
BRANCH   1  13
ATOM     13  C   UNL A   1     -23.140  -0.816  29.047  0.00  0.00    +0.056 C 
BRANCH  13  14
ATOM     14  C   UNL A   1     -23.525   0.084  28.337  0.00  0.00    -0.020 A 
ATOM     15  C   UNL A   1     -24.871   0.395  28.148  0.00  0.00    -0.004 A 
ATOM     16  C   UNL A   1     -25.429   1.463  27.295  0.00  0.00    -0.001 A 
ATOM     17  C   UNL A   1     -24.484   2.396  26.771  0.00  0.00    -0.004 A 
ATOM     18  C   UNL A   1     -23.115   2.132  27.027  0.00  0.00    -0.001 A 
ATOM     19  C   UNL A   1     -22.675   1.095  27.742  0.00  0.00    -0.004 A 
BRANCH  17  20
ATOM     20  C   UNL A   1     -25.010   3.495  26.012  0.00  0.00    -0.022 C 
ATOM     21  C   UNL A   1     -26.225   3.490  25.556  0.00  0.00    -0.005 C 
ATOM     22  C   UNL A   1     -24.811   4.735  26.955  0.00  0.00    +0.031 C 
ENDBRANCH  17  20
ENDBRANCH  13  14
ENDBRANCH   1  13
TORSDOF 6
ENDMDL
ENDMDL
