REMARK  Name = No_25-gen_results/8p0m/2024-11-26-14-13-15/
REMARK  5 active torsions:
REMARK  status: ('A' for Active; 'I' for Inactive)
REMARK    1  A    between atoms: C_2  and  C_5
REMARK    2  A    between atoms: C_3  and  C_10
REMARK    3  A    between atoms: C_6  and  C_24
REMARK    4  A    between atoms: C_11  and  C_12
REMARK    5  A    between atoms: C_16  and  C_18
REMARK                            x       y       z     vdW  Elec       q    Type
REMARK                         _______ _______ _______ _____ _____    ______ ____
ROOT
ATOM      1  C   UNL A   1     -27.454   0.362  26.686  0.00  0.00    +0.000 C 
ATOM      2  C   UNL A   1     -26.458   0.915  26.518  0.00  0.00    +0.000 C 
ENDROOT
BRANCH   1   5
ATOM      3  C   UNL A   1     -28.016  -0.814  28.878  0.00  0.00    +0.007 A 
ATOM      4  C   UNL A   1     -28.469  -0.785  29.829  0.00  0.00    +0.080 A 
ATOM      5  C   UNL A   1     -28.196   0.348  28.055  0.00  0.00    +0.000 A 
ATOM      6  C   UNL A   1     -29.019   1.350  28.378  0.00  0.00    +0.002 A 
ATOM      7  C   UNL A   1     -29.595   1.286  29.605  0.00  0.00    +0.021 A 
ATOM      8  C   UNL A   1     -29.346   0.209  30.375  0.00  0.00    +0.008 A 
BRANCH   4   9
ATOM      9  C   UNL A   1     -28.317  -1.981  30.856  0.00  0.00    +0.388 C 
ATOM     10  O   UNL A   1     -27.706  -1.801  31.754  0.00  0.00    -0.241 OA
ATOM     11  O   UNL A   1     -28.782  -3.150  30.404  0.00  0.00    -0.241 OA
ENDBRANCH   4   9
BRANCH   7  12
ATOM     12  C   UNL A   1     -30.568   2.240  30.182  0.00  0.00    +0.122 C 
ATOM     13  N   UNL A   1     -31.014   2.369  31.126  0.00  0.00    -0.146 NA
ENDBRANCH   7  12
ENDBRANCH   1   5
BRANCH   2  14
ATOM     14  C   UNL A   1     -25.678   1.630  27.543  0.00  0.00    +0.000 A 
ATOM     15  C   UNL A   1     -24.386   2.198  27.189  0.00  0.00    +0.000 A 
ATOM     16  C   UNL A   1     -23.546   2.853  28.129  0.00  0.00    +0.000 A 
ATOM     17  C   UNL A   1     -23.947   2.644  29.478  0.00  0.00    +0.000 A 
ATOM     18  C   UNL A   1     -25.113   2.061  29.858  0.00  0.00    +0.000 A 
ATOM     19  C   UNL A   1     -25.951   1.519  28.902  0.00  0.00    +0.000 A 
BRANCH  18  20
ATOM     20  C   UNL A   1     -25.462   1.983  31.323  0.00  0.00    +0.000 A 
ATOM     21  C   UNL A   1     -25.966   2.955  31.966  0.00  0.00    +0.000 A 
ATOM     22  C   UNL A   1     -26.396   2.817  33.320  0.00  0.00    +0.000 A 
ATOM     23  C   UNL A   1     -25.268   0.698  31.946  0.00  0.00    +0.000 A 
ATOM     24  C   UNL A   1     -25.583   0.572  33.330  0.00  0.00    +0.000 A 
ATOM     25  C   UNL A   1     -26.189   1.648  33.983  0.00  0.00    +0.000 A 
ENDBRANCH  18  20
ENDBRANCH   2  14
TORSDOF 5
