REMARK  Name = No_250-gen_results/8p0m/2024-11-26-14-13-15/
REMARK  2 active torsions:
REMARK  status: ('A' for Active; 'I' for Inactive)
REMARK    1  A    between atoms: C_5  and  C_8
REMARK    2  A    between atoms: C_7  and  C_10
REMARK                            x       y       z     vdW  Elec       q    Type
REMARK                         _______ _______ _______ _____ _____    ______ ____
ROOT
ATOM      1 CL   UNL A   1     -28.149  -0.820  28.908  0.00  0.00    -0.082 Cl
ATOM      2  C   UNL A   1     -26.912  -0.080  28.945  0.00  0.00    +0.058 A 
ATOM      3  C   UNL A   1     -25.966  -0.212  29.623  0.00  0.00    +0.011 A 
ATOM      4  C   UNL A   1     -24.704   0.553  29.622  0.00  0.00    -0.003 A 
ATOM      5  C   UNL A   1     -24.601   1.544  28.621  0.00  0.00    -0.022 A 
ATOM      6  C   UNL A   1     -25.667   1.716  27.803  0.00  0.00    -0.003 A 
ATOM      7  C   UNL A   1     -26.761   0.962  27.884  0.00  0.00    +0.010 A 
ENDROOT
BRANCH   7   8
ATOM      8  C   UNL A   1     -27.883   1.208  26.924  0.00  0.00    +0.001 A 
ATOM      9  C   UNL A   1     -29.010   1.485  27.241  0.00  0.00    +0.000 A 
ATOM     10  C   UNL A   1     -30.032   1.624  26.265  0.00  0.00    +0.000 A 
ATOM     11  C   UNL A   1     -29.645   1.605  24.897  0.00  0.00    +0.000 A 
ATOM     12  C   UNL A   1     -27.507   1.148  25.518  0.00  0.00    +0.000 A 
ATOM     13  C   UNL A   1     -28.363   1.353  24.569  0.00  0.00    +0.000 A 
ENDBRANCH   7   8
BRANCH   5  14
ATOM     14  C   UNL A   1     -23.367   2.313  28.568  0.00  0.00    +0.026 C 
ATOM     15  C   UNL A   1     -22.392   1.627  27.620  0.00  0.00    +0.005 C 
ENDBRANCH   5  14
TORSDOF 2
