MODEL 2500
MODEL 1
REMARK VINA RESULT:    -5.341      0.000      0.000
REMARK INTER + INTRA:          -6.090
REMARK INTER:                  -5.966
REMARK INTRA:                  -0.125
REMARK UNBOUND:                -0.125
REMARK  Name = No_2500-gen_results/8p0m/2024-11-26-14-13-15/
REMARK  2 active torsions:
REMARK  status: ('A' for Active; 'I' for Inactive)
REMARK    1  A    between atoms: C_1  and  C_8
REMARK    2  A    between atoms: C_5  and  C_11
REMARK                            x       y       z     vdW  Elec       q    Type
REMARK                         _______ _______ _______ _____ _____    ______ ____
ROOT
ATOM      1  C   UNL A   1     -16.275 -23.015   8.123  0.00  0.00    +0.053 C 
ATOM      2  C   UNL A   1     -17.105 -22.212   7.763  0.00  0.00    -0.040 C 
ATOM      3  C   UNL A   1     -16.874 -21.254   6.776  0.00  0.00    +0.023 C 
ATOM      4  C   UNL A   1     -17.820 -20.233   6.286  0.00  0.00    +0.010 C 
ATOM      5  C   UNL A   1     -19.170 -20.373   6.729  0.00  0.00    +0.044 C 
ATOM      6  C   UNL A   1     -19.456 -21.352   7.687  0.00  0.00    +0.010 C 
ATOM      7  C   UNL A   1     -18.530 -22.213   8.165  0.00  0.00    +0.023 C 
ENDROOT
BRANCH   1   8
ATOM      8  C   UNL A   1     -15.346 -22.443   9.174  0.00  0.00    +0.284 C 
ATOM      9  O   UNL A   1     -14.380 -22.056   9.090  0.00  0.00    -0.267 OA
ATOM     10  N   UNL A   1     -15.953 -22.656  10.539  0.00  0.00    -0.084 NA
ENDBRANCH   1   8
BRANCH   5  11
ATOM     11  C   UNL A   1     -20.123 -19.380   6.245  0.00  0.00    +0.095 C 
ATOM     12  N   UNL A   1     -19.705 -18.253   5.683  0.00  0.00    -0.151 NA
ENDBRANCH   5  11
TORSDOF 2
ENDMDL
ENDMDL
