MODEL 2501
MODEL 1
REMARK VINA RESULT:    -6.416      0.000      0.000
REMARK INTER + INTRA:          -8.017
REMARK INTER:                  -7.541
REMARK INTRA:                  -0.476
REMARK UNBOUND:                -0.476
REMARK  Name = No_2501-gen_results/8p0m/2024-11-26-14-13-15/
REMARK  3 active torsions:
REMARK  status: ('A' for Active; 'I' for Inactive)
REMARK    1  A    between atoms: C_3  and  C_8
REMARK    2  A    between atoms: C_7  and  C_16
REMARK    3  A    between atoms: C_8  and  C_9
REMARK                            x       y       z     vdW  Elec       q    Type
REMARK                         _______ _______ _______ _____ _____    ______ ____
ROOT
ATOM      1  O   UNL A   1     -21.730  -0.283  29.398  0.00  0.00    -0.273 OA
ATOM      2  C   UNL A   1     -22.736  -0.093  28.867  0.00  0.00    +0.242 C 
ATOM      3  C   UNL A   1     -23.787  -0.349  28.933  0.00  0.00    +0.083 C 
ATOM      4  N   UNL A   1     -22.553   0.809  27.628  0.00  0.00    -0.190 NA
ATOM      5  C   UNL A   1     -25.040  -0.070  28.237  0.00  0.00    +0.024 C 
ATOM      6  C   UNL A   1     -23.577   1.183  26.819  0.00  0.00    +0.184 C 
ATOM      7  C   UNL A   1     -24.863   0.762  27.101  0.00  0.00    +0.139 C 
ATOM      8 CL   UNL A   1     -23.309   2.285  25.571  0.00  0.00    -0.090 Cl
ENDROOT
BRANCH   7   9
ATOM      9  C   UNL A   1     -26.019   1.133  26.259  0.00  0.00    +0.367 C 
ATOM     10  O   UNL A   1     -26.641   2.079  26.580  0.00  0.00    -0.246 OA
ATOM     11  O   UNL A   1     -26.423   0.330  25.298  0.00  0.00    -0.246 OA
ENDBRANCH   7   9
BRANCH   3  12
ATOM     12  C   UNL A   1     -24.191  -1.240  30.236  0.00  0.00    +0.035 C 
BRANCH  12  13
ATOM     13  C   UNL A   1     -24.801  -2.516  29.804  0.00  0.00    -0.022 A 
ATOM     14  C   UNL A   1     -25.780  -2.862  30.095  0.00  0.00    -0.004 A 
ATOM     15  C   UNL A   1     -26.320  -4.254  29.751  0.00  0.00    -0.000 A 
ATOM     16  C   UNL A   1     -25.431  -5.002  28.984  0.00  0.00    -0.000 A 
ATOM     17  C   UNL A   1     -23.698  -3.321  29.095  0.00  0.00    -0.004 A 
ATOM     18  C   UNL A   1     -24.163  -4.578  28.694  0.00  0.00    -0.000 A 
ENDBRANCH  12  13
ENDBRANCH   3  12
TORSDOF 3
ENDMDL
ENDMDL
