REMARK  Name = No_2501-gen_results/8p0m/2024-11-26-14-13-15/
REMARK  3 active torsions:
REMARK  status: ('A' for Active; 'I' for Inactive)
REMARK    1  A    between atoms: C_3  and  C_8
REMARK    2  A    between atoms: C_7  and  C_16
REMARK    3  A    between atoms: C_8  and  C_9
REMARK                            x       y       z     vdW  Elec       q    Type
REMARK                         _______ _______ _______ _____ _____    ______ ____
ROOT
ATOM      1  O   UNL A   1     -28.123  -1.335  28.487  0.00  0.00    -0.273 OA
ATOM      2  C   UNL A   1     -27.481  -0.404  28.709  0.00  0.00    +0.242 C 
ATOM      3  C   UNL A   1     -27.190   0.246  29.527  0.00  0.00    +0.083 C 
ATOM      4  N   UNL A   1     -26.816   0.137  27.426  0.00  0.00    -0.190 NA
ATOM      5  C   UNL A   1     -26.355   1.420  29.764  0.00  0.00    +0.024 C 
ATOM      6  C   UNL A   1     -26.012   1.231  27.405  0.00  0.00    +0.184 C 
ATOM      7  C   UNL A   1     -25.746   1.909  28.580  0.00  0.00    +0.139 C 
ATOM      8 CL   UNL A   1     -25.214   1.667  25.985  0.00  0.00    -0.090 Cl
ENDROOT
BRANCH   7   9
ATOM      9  C   UNL A   1     -24.881   3.106  28.623  0.00  0.00    +0.367 C 
ATOM     10  O   UNL A   1     -24.988   3.818  29.553  0.00  0.00    -0.246 OA
ATOM     11  O   UNL A   1     -24.156   3.436  27.575  0.00  0.00    -0.246 OA
ENDBRANCH   7   9
BRANCH   3  12
ATOM     12  C   UNL A   1     -27.737  -0.215  30.991  0.00  0.00    +0.035 C 
BRANCH  12  13
ATOM     13  C   UNL A   1     -28.955   0.548  31.337  0.00  0.00    -0.022 A 
ATOM     14  C   UNL A   1     -29.039   1.623  31.311  0.00  0.00    -0.004 A 
ATOM     15  C   UNL A   1     -30.266   2.386  31.819  0.00  0.00    -0.000 A 
ATOM     16  C   UNL A   1     -31.276   1.542  32.272  0.00  0.00    -0.000 A 
ATOM     17  C   UNL A   1     -29.947  -0.452  31.957  0.00  0.00    -0.004 A 
ATOM     18  C   UNL A   1     -31.120   0.187  32.373  0.00  0.00    -0.000 A 
ENDBRANCH  12  13
ENDBRANCH   3  12
TORSDOF 3
