REMARK  Name = No_2502-gen_results/8p0m/2024-11-26-14-13-15/
REMARK  0 active torsions:
REMARK  status: ('A' for Active; 'I' for Inactive)
REMARK                            x       y       z     vdW  Elec       q    Type
REMARK                         _______ _______ _______ _____ _____    ______ ____
ROOT
ATOM      1  C   UNL A   1     -28.016  -0.814  28.878  0.00  0.00    +0.067 A 
ATOM      2  C   UNL A   1     -28.469  -0.785  29.829  0.00  0.00    +0.143 A 
ATOM      3  C   UNL A   1     -26.546  -0.876  28.850  0.00  0.00    +0.144 A 
ATOM      4  C   UNL A   1     -25.804  -1.032  30.057  0.00  0.00    +0.017 A 
ATOM      5  C   UNL A   1     -27.944  -0.987  31.207  0.00  0.00    +0.029 A 
ATOM      6  C   UNL A   1     -26.582  -1.039  31.223  0.00  0.00    +0.001 A 
ATOM      7  F   UNL A   1     -29.909  -0.740  29.864  0.00  0.00    -0.204 F 
ATOM      8  C   UNL A   1     -24.377  -1.098  30.069  0.00  0.00    +0.056 C 
ATOM      9  C   UNL A   1     -23.596  -0.540  29.104  0.00  0.00    -0.015 A 
ATOM     10  C   UNL A   1     -22.133  -0.573  29.266  0.00  0.00    -0.004 A 
ATOM     11  C   UNL A   1     -24.122   0.227  28.070  0.00  0.00    +0.031 A 
ATOM     12  C   UNL A   1     -23.240   1.115  27.344  0.00  0.00    +0.003 A 
ATOM     13  C   UNL A   1     -21.317   0.234  28.471  0.00  0.00    -0.000 A 
ATOM     14  C   UNL A   1     -21.844   1.073  27.550  0.00  0.00    +0.000 A 
ATOM     15  C   UNL A   1     -23.801   2.023  26.328  0.00  0.00    +0.000 A 
ATOM     16  C   UNL A   1     -24.938   1.606  25.714  0.00  0.00    +0.003 A 
ATOM     17  C   UNL A   1     -25.553   0.432  26.155  0.00  0.00    +0.037 A 
ATOM     18  C   UNL A   1     -25.209  -0.141  27.363  0.00  0.00    +0.145 A 
ATOM     19  O   UNL A   1     -26.130  -0.893  27.629  0.00  0.00    -0.454 OA
ENDROOT
TORSDOF 0
