REMARK  Name = No_2503-gen_results/8p0m/2024-11-26-14-13-15/
REMARK  4 active torsions:
REMARK  status: ('A' for Active; 'I' for Inactive)
REMARK    1  A    between atoms: C_2  and  C_14
REMARK    2  A    between atoms: C_3  and  C_4
REMARK    3  A    between atoms: C_4  and  C_8
REMARK    4  A    between atoms: C_9  and  C_17
REMARK                            x       y       z     vdW  Elec       q    Type
REMARK                         _______ _______ _______ _____ _____    ______ ____
ROOT
ATOM      1  C   UNL A   1     -25.654  -0.660  27.719  0.00  0.00    +0.053 C 
ENDROOT
BRANCH   1   4
ATOM      2  C   UNL A   1     -28.016  -0.814  28.878  0.00  0.00    +0.003 A 
ATOM      3  C   UNL A   1     -28.469  -0.785  29.829  0.00  0.00    +0.080 A 
ATOM      4  C   UNL A   1     -26.504  -0.778  28.877  0.00  0.00    -0.018 A 
ATOM      5  C   UNL A   1     -27.918  -0.937  31.182  0.00  0.00    +0.007 A 
ATOM      6  C   UNL A   1     -26.542  -0.940  31.261  0.00  0.00    -0.000 A 
ATOM      7  C   UNL A   1     -25.783  -0.893  30.120  0.00  0.00    -0.004 A 
BRANCH   3   8
ATOM      8  C   UNL A   1     -30.057  -0.797  29.851  0.00  0.00    +0.388 C 
ATOM      9  O   UNL A   1     -30.667   0.080  30.535  0.00  0.00    -0.241 OA
ATOM     10  O   UNL A   1     -30.659  -1.826  29.449  0.00  0.00    -0.241 OA
ENDBRANCH   3   8
ENDBRANCH   1   4
BRANCH   1  11
ATOM     11  C   UNL A   1     -25.220   0.687  27.394  0.00  0.00    -0.018 A 
ATOM     12  C   UNL A   1     -23.901   0.898  27.760  0.00  0.00    -0.004 A 
ATOM     13  C   UNL A   1     -23.262   2.117  27.251  0.00  0.00    -0.000 A 
ATOM     14  C   UNL A   1     -23.951   2.975  26.462  0.00  0.00    -0.000 A 
ATOM     15  C   UNL A   1     -25.872   1.489  26.473  0.00  0.00    -0.004 A 
ATOM     16  C   UNL A   1     -25.245   2.624  26.024  0.00  0.00    -0.000 A 
BRANCH  12  17
ATOM     17  C   UNL A   1     -23.056   0.110  28.671  0.00  0.00    -0.005 C 
ATOM     18  C   UNL A   1     -21.758   0.340  28.950  0.00  0.00    -0.026 C 
ATOM     19  C   UNL A   1     -21.131   1.304  28.184  0.00  0.00    +0.031 C 
ENDBRANCH  12  17
ENDBRANCH   1  11
TORSDOF 4
