MODEL 2503
MODEL 1
REMARK VINA RESULT:    -6.929      0.000      0.000
REMARK INTER + INTRA:          -9.449
REMARK INTER:                  -8.549
REMARK INTRA:                  -0.900
REMARK UNBOUND:                -0.900
REMARK  Name = No_2503-gen_results/8p0m/2024-11-26-14-13-15/
REMARK  4 active torsions:
REMARK  status: ('A' for Active; 'I' for Inactive)
REMARK    1  A    between atoms: C_2  and  C_14
REMARK    2  A    between atoms: C_3  and  C_4
REMARK    3  A    between atoms: C_4  and  C_8
REMARK    4  A    between atoms: C_9  and  C_17
REMARK                            x       y       z     vdW  Elec       q    Type
REMARK                         _______ _______ _______ _____ _____    ______ ____
ROOT
ATOM      1  C   UNL A   1     -22.812  -0.860  29.439  0.00  0.00    +0.053 C 
ENDROOT
BRANCH   1   4
ATOM      2  C   UNL A   1     -24.268  -0.028  27.406  0.00  0.00    +0.003 A 
ATOM      3  C   UNL A   1     -24.231   0.628  26.582  0.00  0.00    +0.080 A 
ATOM      4  C   UNL A   1     -23.074   0.026  28.333  0.00  0.00    -0.018 A 
ATOM      5  C   UNL A   1     -23.343   1.753  26.264  0.00  0.00    +0.007 A 
ATOM      6  C   UNL A   1     -22.242   1.885  27.083  0.00  0.00    -0.000 A 
ATOM      7  C   UNL A   1     -22.079   1.055  28.161  0.00  0.00    -0.004 A 
BRANCH   3   8
ATOM      8  C   UNL A   1     -25.464   0.569  25.582  0.00  0.00    +0.388 C 
ATOM      9  O   UNL A   1     -25.463  -0.299  24.658  0.00  0.00    -0.241 OA
ATOM     10  O   UNL A   1     -26.253   1.548  25.538  0.00  0.00    -0.241 OA
ENDBRANCH   3   8
ENDBRANCH   1   4
BRANCH   1  11
ATOM     11  C   UNL A   1     -23.787  -1.917  29.641  0.00  0.00    -0.018 A 
ATOM     12  C   UNL A   1     -24.886  -1.465  30.352  0.00  0.00    -0.004 A 
ATOM     13  C   UNL A   1     -26.055  -2.351  30.394  0.00  0.00    -0.000 A 
ATOM     14  C   UNL A   1     -26.033  -3.546  29.757  0.00  0.00    -0.000 A 
ATOM     15  C   UNL A   1     -23.821  -3.069  28.874  0.00  0.00    -0.004 A 
ATOM     16  C   UNL A   1     -24.929  -3.876  28.944  0.00  0.00    -0.000 A 
BRANCH  12  17
ATOM     17  C   UNL A   1     -25.027  -0.243  31.159  0.00  0.00    -0.005 C 
ATOM     18  C   UNL A   1     -24.512  -0.037  32.386  0.00  0.00    -0.026 C 
ATOM     19  C   UNL A   1     -23.940  -1.134  33.000  0.00  0.00    +0.031 C 
ENDBRANCH  12  17
ENDBRANCH   1  11
TORSDOF 4
ENDMDL
ENDMDL
