MODEL 2504
MODEL 1
REMARK VINA RESULT:    -6.932      0.000      0.000
REMARK INTER + INTRA:          -9.034
REMARK INTER:                  -8.552
REMARK INTRA:                  -0.482
REMARK UNBOUND:                -0.482
REMARK  Name = No_2504-gen_results/8p0m/2024-11-26-14-13-15/
REMARK  4 active torsions:
REMARK  status: ('A' for Active; 'I' for Inactive)
REMARK    1  A    between atoms: C_8  and  C_18
REMARK    2  A    between atoms: N_21  and  C_22
REMARK    3  A    between atoms: C_23  and  C_24
REMARK    4  A    between atoms: C_25  and  C_26
REMARK                            x       y       z     vdW  Elec       q    Type
REMARK                         _______ _______ _______ _____ _____    ______ ____
ROOT
ATOM      1 BR   UNL A   1     -10.831   1.211  40.955  0.00  0.00    -0.049 Br
ATOM      2  C   UNL A   1     -10.792   0.447  39.558  0.00  0.00    +0.039 A 
ATOM      3  C   UNL A   1     -11.084  -0.854  39.435  0.00  0.00    +0.007 A 
ATOM      4  C   UNL A   1     -11.249  -1.442  38.226  0.00  0.00    +0.001 A 
ATOM      5  C   UNL A   1     -11.008  -0.705  37.002  0.00  0.00    +0.000 A 
ATOM      6  C   UNL A   1     -10.780   0.634  37.127  0.00  0.00    +0.009 A 
ATOM      7  C   UNL A   1     -10.711   1.154  38.350  0.00  0.00    +0.062 A 
ATOM      8  C   UNL A   1     -10.602   1.418  35.895  0.00  0.00    +0.056 C 
ATOM      9  C   UNL A   1     -11.232   2.487  35.590  0.00  0.00    +0.006 C 
ATOM     10  C   UNL A   1     -12.357   2.963  36.279  0.00  0.00    +0.015 A 
ATOM     11  C   UNL A   1     -13.660   2.961  35.676  0.00  0.00    +0.001 A 
ATOM     12  C   UNL A   1     -14.859   3.059  36.397  0.00  0.00    +0.000 A 
ATOM     13  C   UNL A   1     -14.766   3.057  37.833  0.00  0.00    +0.001 A 
ATOM     14  C   UNL A   1     -13.503   2.913  38.414  0.00  0.00    +0.017 A 
ATOM     15  C   UNL A   1     -12.348   2.766  37.641  0.00  0.00    +0.074 A 
ATOM     16  C   UNL A   1     -10.468   2.712  38.570  0.00  0.00    +0.270 C 
ATOM     17  N   UNL A   1     -11.251   2.989  38.274  0.00  0.00    -0.175 NA
ATOM     18  O   UNL A   1      -9.300   2.980  38.832  0.00  0.00    -0.268 OA
ENDROOT
BRANCH   8  19
ATOM     19  C   UNL A   1      -9.597   0.797  34.924  0.00  0.00    +0.269 C 
ATOM     20  O   UNL A   1      -9.749   0.892  33.788  0.00  0.00    -0.268 OA
ATOM     21  N   UNL A   1      -8.320   0.412  35.386  0.00  0.00    -0.174 NA
BRANCH  21  22
ATOM     22  C   UNL A   1      -7.325  -0.080  34.544  0.00  0.00    +0.089 C 
ATOM     23  C   UNL A   1      -6.897  -1.376  34.986  0.00  0.00    +0.018 C 
BRANCH  23  24
ATOM     24  C   UNL A   1      -6.173  -2.167  34.155  0.00  0.00    +0.001 C 
ATOM     25  C   UNL A   1      -4.742  -2.215  34.182  0.00  0.00    +0.000 C 
BRANCH  25  26
ATOM     26  C   UNL A   1      -4.109  -1.515  35.195  0.00  0.00    +0.000 C 
ATOM     27  C   UNL A   1      -2.751  -1.603  35.381  0.00  0.00    +0.000 C 
ENDBRANCH  25  26
ENDBRANCH  23  24
ENDBRANCH  21  22
ENDBRANCH   8  19
TORSDOF 4
ENDMDL
ENDMDL
