REMARK  Name = No_2504-gen_results/8p0m/2024-11-26-14-13-15/
REMARK  4 active torsions:
REMARK  status: ('A' for Active; 'I' for Inactive)
REMARK    1  A    between atoms: C_8  and  C_18
REMARK    2  A    between atoms: N_21  and  C_22
REMARK    3  A    between atoms: C_23  and  C_24
REMARK    4  A    between atoms: C_25  and  C_26
REMARK                            x       y       z     vdW  Elec       q    Type
REMARK                         _______ _______ _______ _____ _____    ______ ____
ROOT
ATOM      1 BR   UNL A   1     -28.115  -0.626  29.081  0.00  0.00    -0.049 Br
ATOM      2  C   UNL A   1     -27.492   0.814  29.355  0.00  0.00    +0.039 A 
ATOM      3  C   UNL A   1     -27.545   1.411  30.553  0.00  0.00    +0.007 A 
ATOM      4  C   UNL A   1     -26.838   2.533  30.828  0.00  0.00    +0.001 A 
ATOM      5  C   UNL A   1     -26.072   3.200  29.795  0.00  0.00    +0.000 A 
ATOM      6  C   UNL A   1     -25.963   2.555  28.598  0.00  0.00    +0.009 A 
ATOM      7  C   UNL A   1     -26.625   1.413  28.431  0.00  0.00    +0.062 A 
ATOM      8  C   UNL A   1     -25.132   3.178  27.556  0.00  0.00    +0.056 C 
ATOM      9  C   UNL A   1     -24.192   2.606  26.906  0.00  0.00    +0.006 C 
ATOM     10  C   UNL A   1     -23.650   1.357  27.239  0.00  0.00    +0.015 A 
ATOM     11  C   UNL A   1     -22.311   1.232  27.743  0.00  0.00    +0.001 A 
ATOM     12  C   UNL A   1     -21.834   0.110  28.436  0.00  0.00    +0.000 A 
ATOM     13  C   UNL A   1     -22.783  -0.927  28.743  0.00  0.00    +0.001 A 
ATOM     14  C   UNL A   1     -24.117  -0.733  28.375  0.00  0.00    +0.017 A 
ATOM     15  C   UNL A   1     -24.543   0.433  27.733  0.00  0.00    +0.074 A 
ATOM     16  C   UNL A   1     -26.526   0.596  27.068  0.00  0.00    +0.270 C 
ATOM     17  N   UNL A   1     -25.688   0.336  27.155  0.00  0.00    -0.175 NA
ATOM     18  O   UNL A   1     -27.485   0.787  26.327  0.00  0.00    -0.268 OA
ENDROOT
BRANCH   8  19
ATOM     19  C   UNL A   1     -25.451   4.657  27.334  0.00  0.00    +0.269 C 
ATOM     20  O   UNL A   1     -24.717   5.332  26.760  0.00  0.00    -0.268 OA
ATOM     21  N   UNL A   1     -26.770   5.126  27.516  0.00  0.00    -0.174 NA
BRANCH  21  22
ATOM     22  C   UNL A   1     -27.152   6.439  27.249  0.00  0.00    +0.089 C 
ATOM     23  C   UNL A   1     -28.558   6.500  26.972  0.00  0.00    +0.018 C 
BRANCH  23  24
ATOM     24  C   UNL A   1     -29.199   7.695  26.993  0.00  0.00    +0.001 C 
ATOM     25  C   UNL A   1     -30.611   7.821  26.787  0.00  0.00    +0.000 C 
BRANCH  25  26
ATOM     26  C   UNL A   1     -31.340   6.647  26.697  0.00  0.00    +0.000 C 
ATOM     27  C   UNL A   1     -30.719   5.422  26.689  0.00  0.00    +0.000 C 
ENDBRANCH  25  26
ENDBRANCH  23  24
ENDBRANCH  21  22
ENDBRANCH   8  19
TORSDOF 4
