REMARK  Name = No_2505-gen_results/8p0m/2024-11-26-14-13-15/
REMARK  4 active torsions:
REMARK  status: ('A' for Active; 'I' for Inactive)
REMARK    1  A    between atoms: C_1  and  C_7
REMARK    2  A    between atoms: C_3  and  C_14
REMARK    3  A    between atoms: C_5  and  C_10
REMARK    4  A    between atoms: C_14  and  C_15
REMARK                            x       y       z     vdW  Elec       q    Type
REMARK                         _______ _______ _______ _____ _____    ______ ____
ROOT
ATOM      1  C   UNL A   1     -28.016  -0.814  28.878  0.00  0.00    +0.079 A 
ATOM      2  C   UNL A   1     -27.064  -0.119  28.608  0.00  0.00    +0.003 A 
ATOM      3  C   UNL A   1     -27.001   0.691  27.491  0.00  0.00    -0.018 A 
ATOM      4  C   UNL A   1     -28.137   0.736  26.635  0.00  0.00    -0.000 A 
ATOM      5  C   UNL A   1     -29.236   0.076  27.069  0.00  0.00    +0.071 A 
ATOM      6  C   UNL A   1     -29.218  -0.643  28.175  0.00  0.00    +0.010 A 
ENDROOT
BRANCH   5   7
ATOM      7  C   UNL A   1     -30.429   0.168  26.197  0.00  0.00    +0.419 C 
ATOM      8  F   UNL A   1     -30.322   0.160  25.013  0.00  0.00    -0.166 F 
ATOM      9  F   UNL A   1     -31.194   1.202  26.616  0.00  0.00    -0.166 F 
ATOM     10  F   UNL A   1     -31.269  -0.944  26.456  0.00  0.00    -0.166 F 
ENDBRANCH   5   7
BRANCH   1  11
ATOM     11  C   UNL A   1     -28.003  -1.660  30.127  0.00  0.00    +0.388 C 
ATOM     12  O   UNL A   1     -28.691  -1.792  30.889  0.00  0.00    -0.241 OA
ATOM     13  O   UNL A   1     -26.865  -2.516  30.081  0.00  0.00    -0.241 OA
ENDBRANCH   1  11
BRANCH   3  14
ATOM     14  C   UNL A   1     -25.750   1.427  27.068  0.00  0.00    +0.045 C 
ATOM     15  C   UNL A   1     -25.754   1.594  25.517  0.00  0.00    +0.009 C 
BRANCH  14  16
ATOM     16  C   UNL A   1     -24.608   1.007  27.545  0.00  0.00    -0.018 A 
ATOM     17  C   UNL A   1     -23.345   1.687  27.268  0.00  0.00    -0.004 A 
ATOM     18  C   UNL A   1     -22.131   1.441  27.908  0.00  0.00    -0.000 A 
ATOM     19  C   UNL A   1     -22.089   0.336  28.775  0.00  0.00    -0.000 A 
ATOM     20  C   UNL A   1     -23.220  -0.494  28.966  0.00  0.00    -0.000 A 
ATOM     21  C   UNL A   1     -24.394  -0.120  28.427  0.00  0.00    -0.004 A 
ENDBRANCH  14  16
ENDBRANCH   3  14
TORSDOF 4
