MODEL 2505
MODEL 1
REMARK VINA RESULT:    -7.543      0.000      0.000
REMARK INTER + INTRA:         -10.450
REMARK INTER:                  -9.307
REMARK INTRA:                  -1.143
REMARK UNBOUND:                -1.143
REMARK  Name = No_2505-gen_results/8p0m/2024-11-26-14-13-15/
REMARK  4 active torsions:
REMARK  status: ('A' for Active; 'I' for Inactive)
REMARK    1  A    between atoms: C_1  and  C_7
REMARK    2  A    between atoms: C_3  and  C_14
REMARK    3  A    between atoms: C_5  and  C_10
REMARK    4  A    between atoms: C_14  and  C_15
REMARK                            x       y       z     vdW  Elec       q    Type
REMARK                         _______ _______ _______ _____ _____    ______ ____
ROOT
ATOM      1  C   UNL A   1     -12.691   1.806  34.369  0.00  0.00    +0.079 A 
ATOM      2  C   UNL A   1     -11.928   1.187  35.074  0.00  0.00    +0.003 A 
ATOM      3  C   UNL A   1     -11.856   1.342  36.444  0.00  0.00    -0.018 A 
ATOM      4  C   UNL A   1     -12.760   2.252  37.061  0.00  0.00    -0.000 A 
ATOM      5  C   UNL A   1     -13.704   2.791  36.255  0.00  0.00    +0.071 A 
ATOM      6  C   UNL A   1     -13.722   2.554  34.957  0.00  0.00    +0.010 A 
ENDROOT
BRANCH   5   7
ATOM      7  C   UNL A   1     -14.671   3.699  36.913  0.00  0.00    +0.419 C 
ATOM      8  F   UNL A   1     -14.354   4.799  37.233  0.00  0.00    -0.166 F 
ATOM      9  F   UNL A   1     -15.261   3.039  37.935  0.00  0.00    -0.166 F 
ATOM     10  F   UNL A   1     -15.762   3.917  36.034  0.00  0.00    -0.166 F 
ENDBRANCH   5   7
BRANCH   1  11
ATOM     11  C   UNL A   1     -12.708   1.564  32.880  0.00  0.00    +0.388 C 
ATOM     12  O   UNL A   1     -12.170   0.925  32.269  0.00  0.00    -0.241 OA
ATOM     13  O   UNL A   1     -13.808   2.277  32.320  0.00  0.00    -0.241 OA
ENDBRANCH   1  11
BRANCH   3  14
ATOM     14  C   UNL A   1     -10.791   0.693  37.299  0.00  0.00    +0.045 C 
ATOM     15  C   UNL A   1      -9.523   0.435  36.429  0.00  0.00    +0.009 C 
BRANCH  14  16
ATOM     16  C   UNL A   1     -11.141  -0.333  38.030  0.00  0.00    -0.018 A 
ATOM     17  C   UNL A   1     -11.373  -0.228  39.469  0.00  0.00    -0.004 A 
ATOM     18  C   UNL A   1     -11.955  -1.207  40.272  0.00  0.00    -0.000 A 
ATOM     19  C   UNL A   1     -12.188  -2.456  39.674  0.00  0.00    -0.000 A 
ATOM     20  C   UNL A   1     -11.825  -2.708  38.328  0.00  0.00    -0.000 A 
ATOM     21  C   UNL A   1     -11.396  -1.681  37.573  0.00  0.00    -0.004 A 
ENDBRANCH  14  16
ENDBRANCH   3  14
TORSDOF 4
ENDMDL
ENDMDL
