MODEL 2506
MODEL 1
REMARK VINA RESULT:    -6.323      0.000      0.000
REMARK INTER + INTRA:          -8.557
REMARK INTER:                  -7.802
REMARK INTRA:                  -0.755
REMARK UNBOUND:                -0.755
REMARK  Name = No_2506-gen_results/8p0m/2024-11-26-14-13-15/
REMARK  4 active torsions:
REMARK  status: ('A' for Active; 'I' for Inactive)
REMARK    1  A    between atoms: C_1  and  N_8
REMARK    2  A    between atoms: C_5  and  C_9
REMARK    3  A    between atoms: N_8  and  C_12
REMARK    4  A    between atoms: C_12  and  C_13
REMARK                            x       y       z     vdW  Elec       q    Type
REMARK                         _______ _______ _______ _____ _____    ______ ____
ROOT
ATOM      1  C   UNL A   1     -10.455   1.604  35.886  0.00  0.00    +0.072 C 
ATOM      2  C   UNL A   1     -11.595   2.006  35.893  0.00  0.00    -0.028 C 
ATOM      3  C   UNL A   1     -12.388   2.180  34.875  0.00  0.00    +0.024 C 
ATOM      4  C   UNL A   1     -13.787   2.673  34.926  0.00  0.00    +0.014 C 
ATOM      5  C   UNL A   1     -14.319   2.933  36.220  0.00  0.00    +0.081 C 
ATOM      6  C   UNL A   1     -13.507   2.694  37.300  0.00  0.00    +0.014 C 
ATOM      7  C   UNL A   1     -12.239   2.230  37.212  0.00  0.00    +0.024 C 
ENDROOT
BRANCH   5   8
ATOM      8  C   UNL A   1     -15.661   3.434  36.390  0.00  0.00    +0.260 C 
ATOM      9  N   UNL A   1     -16.637   3.929  35.739  0.00  0.00    -0.088 NA
ATOM     10  O   UNL A   1     -16.028   3.350  37.765  0.00  0.00    -0.272 OA
ENDBRANCH   5   8
BRANCH   1  11
ATOM     11  N   UNL A   1     -10.218   0.180  36.034  0.00  0.00    -0.232 NA
BRANCH  11  12
ATOM     12  C   UNL A   1      -9.855  -0.458  37.208  0.00  0.00    +0.139 C 
BRANCH  12  13
ATOM     13  C   UNL A   1     -10.498  -1.015  37.953  0.00  0.00    -0.001 A 
ATOM     14  C   UNL A   1     -11.516  -2.075  37.649  0.00  0.00    -0.003 A 
ATOM     15  C   UNL A   1     -12.237  -2.748  38.610  0.00  0.00    -0.000 A 
ATOM     16  C   UNL A   1     -12.015  -2.368  39.976  0.00  0.00    -0.000 A 
ATOM     17  C   UNL A   1     -11.281  -1.252  40.237  0.00  0.00    -0.000 A 
ATOM     18  C   UNL A   1     -10.637  -0.542  39.258  0.00  0.00    -0.003 A 
ENDBRANCH  12  13
ENDBRANCH  11  12
ENDBRANCH   1  11
TORSDOF 4
ENDMDL
ENDMDL
