REMARK  Name = No_2506-gen_results/8p0m/2024-11-26-14-13-15/
REMARK  4 active torsions:
REMARK  status: ('A' for Active; 'I' for Inactive)
REMARK    1  A    between atoms: C_1  and  N_8
REMARK    2  A    between atoms: C_5  and  C_9
REMARK    3  A    between atoms: N_8  and  C_12
REMARK    4  A    between atoms: C_12  and  C_13
REMARK                            x       y       z     vdW  Elec       q    Type
REMARK                         _______ _______ _______ _____ _____    ______ ____
ROOT
ATOM      1  C   UNL A   1     -28.016  -0.814  28.878  0.00  0.00    +0.072 C 
ATOM      2  C   UNL A   1     -27.064  -0.119  28.608  0.00  0.00    -0.028 C 
ATOM      3  C   UNL A   1     -26.876   1.133  28.913  0.00  0.00    +0.024 C 
ATOM      4  C   UNL A   1     -25.688   1.952  28.567  0.00  0.00    +0.014 C 
ATOM      5  C   UNL A   1     -24.639   1.283  27.875  0.00  0.00    +0.081 C 
ATOM      6  C   UNL A   1     -24.807  -0.051  27.604  0.00  0.00    +0.014 C 
ATOM      7  C   UNL A   1     -25.902  -0.767  27.951  0.00  0.00    +0.024 C 
ENDROOT
BRANCH   5   8
ATOM      8  C   UNL A   1     -23.445   1.984  27.470  0.00  0.00    +0.260 C 
ATOM      9  N   UNL A   1     -22.264   2.262  27.857  0.00  0.00    -0.088 NA
ATOM     10  O   UNL A   1     -23.655   2.577  26.190  0.00  0.00    -0.272 OA
ENDBRANCH   5   8
BRANCH   1  11
ATOM     11  N   UNL A   1     -27.989  -1.585  30.106  0.00  0.00    -0.232 NA
BRANCH  11  12
ATOM     12  C   UNL A   1     -29.020  -2.377  30.582  0.00  0.00    +0.139 C 
BRANCH  12  13
ATOM     13  C   UNL A   1     -29.485  -3.303  30.128  0.00  0.00    -0.001 A 
ATOM     14  C   UNL A   1     -30.606  -4.121  30.701  0.00  0.00    -0.003 A 
ATOM     15  C   UNL A   1     -31.157  -5.217  30.075  0.00  0.00    -0.000 A 
ATOM     16  C   UNL A   1     -30.584  -5.606  28.819  0.00  0.00    -0.000 A 
ATOM     17  C   UNL A   1     -29.422  -5.021  28.417  0.00  0.00    -0.000 A 
ATOM     18  C   UNL A   1     -28.838  -3.986  29.098  0.00  0.00    -0.003 A 
ENDBRANCH  12  13
ENDBRANCH  11  12
ENDBRANCH   1  11
TORSDOF 4
