MODEL 2507
MODEL 1
REMARK VINA RESULT:    -8.009      0.000      0.000
REMARK INTER + INTRA:          -8.515
REMARK INTER:                  -8.477
REMARK INTRA:                  -0.038
REMARK UNBOUND:                -0.038
REMARK  Name = No_2507-gen_results/8p0m/2024-11-26-14-13-15/
REMARK  1 active torsions:
REMARK  status: ('A' for Active; 'I' for Inactive)
REMARK    1  A    between atoms: C_7  and  C_20
REMARK                            x       y       z     vdW  Elec       q    Type
REMARK                         _______ _______ _______ _____ _____    ______ ____
ROOT
ATOM      1  C   UNL A   1     -31.439 -15.212  10.325  0.00  0.00    +0.018 A 
ATOM      2  C   UNL A   1     -31.520 -15.472   9.307  0.00  0.00    +0.002 A 
ATOM      3  C   UNL A   1     -30.075 -15.343  10.854  0.00  0.00    -0.015 A 
ATOM      4  C   UNL A   1     -29.089 -15.911  10.159  0.00  0.00    -0.004 A 
ATOM      5  C   UNL A   1     -30.623 -16.112   8.376  0.00  0.00    -0.000 A 
ATOM      6  C   UNL A   1     -29.369 -16.248   8.894  0.00  0.00    -0.000 A 
ATOM      7  C   UNL A   1     -29.865 -14.881  12.294  0.00  0.00    +0.091 C 
ATOM      8  C   UNL A   1     -30.126 -13.504  12.611  0.00  0.00    +0.038 C 
ATOM      9  C   UNL A   1     -30.716 -12.653  11.733  0.00  0.00    -0.022 A 
ATOM     10  C   UNL A   1     -30.751 -11.269  11.976  0.00  0.00    -0.004 A 
ATOM     11  C   UNL A   1     -31.453 -10.356  11.088  0.00  0.00    -0.000 A 
ATOM     12  C   UNL A   1     -32.330 -10.899  10.151  0.00  0.00    -0.000 A 
ATOM     13  C   UNL A   1     -32.389 -12.241   9.963  0.00  0.00    -0.001 A 
ATOM     14  C   UNL A   1     -31.663 -13.080  10.721  0.00  0.00    +0.018 A 
ATOM     15  C   UNL A   1     -31.812 -14.316  10.372  0.00  0.00    +0.209 C 
ATOM     16  O   UNL A   1     -33.257 -14.340  10.324  0.00  0.00    -0.475 OA
ATOM     17  C   UNL A   1     -32.956 -15.677   8.637  0.00  0.00    +0.032 C 
ATOM     18  C   UNL A   1     -33.828 -14.995   9.299  0.00  0.00    +0.117 C 
ATOM     19  C   UNL A   1     -35.149 -15.651   9.769  0.00  0.00    +0.072 C 
ENDROOT
BRANCH   7  20
ATOM     20  C   UNL A   1     -29.431 -15.831  13.229  0.00  0.00    +0.212 C 
ATOM     21  O   UNL A   1     -28.311 -16.003  13.426  0.00  0.00    -0.288 OA
ENDBRANCH   7  20
TORSDOF 1
ENDMDL
ENDMDL
