MODEL 2508
MODEL 1
REMARK VINA RESULT:    -7.600      0.000      0.000
REMARK INTER + INTRA:         -10.434
REMARK INTER:                  -9.378
REMARK INTRA:                  -1.056
REMARK UNBOUND:                -1.056
REMARK  Name = No_2508-gen_results/8p0m/2024-11-26-14-13-15/
REMARK  4 active torsions:
REMARK  status: ('A' for Active; 'I' for Inactive)
REMARK    1  A    between atoms: C_2  and  C_10
REMARK    2  A    between atoms: C_5  and  C_7
REMARK    3  A    between atoms: C_12  and  C_16
REMARK    4  A    between atoms: N_17  and  C_19
REMARK                            x       y       z     vdW  Elec       q    Type
REMARK                         _______ _______ _______ _____ _____    ______ ____
ROOT
ATOM      1  C   UNL A   1     -12.884   2.283  36.159  0.00  0.00    +0.000 A 
ATOM      2  C   UNL A   1     -11.812   2.084  36.863  0.00  0.00    +0.005 A 
ATOM      3  C   UNL A   1     -10.623   1.500  36.348  0.00  0.00    +0.058 A 
ATOM      4  C   UNL A   1     -10.581   1.295  34.960  0.00  0.00    +0.005 A 
ATOM      5  C   UNL A   1     -11.709   1.498  34.164  0.00  0.00    +0.000 A 
ATOM      6  C   UNL A   1     -12.868   2.070  34.725  0.00  0.00    +0.000 A 
ENDROOT
BRANCH   1   8
ATOM      7  C   UNL A   1     -14.426   3.009  37.932  0.00  0.00    +0.000 A 
ATOM      8  C   UNL A   1     -14.206   2.963  36.744  0.00  0.00    +0.000 A 
ATOM      9  C   UNL A   1     -15.096   3.342  35.753  0.00  0.00    +0.000 A 
ATOM     10  C   UNL A   1     -16.358   3.852  36.176  0.00  0.00    +0.007 A 
ATOM     11  C   UNL A   1     -16.512   4.030  37.504  0.00  0.00    +0.080 A 
ATOM     12  C   UNL A   1     -15.550   3.710  38.372  0.00  0.00    +0.007 A 
BRANCH  11  13
ATOM     13  C   UNL A   1     -17.812   4.604  37.903  0.00  0.00    +0.388 C 
ATOM     14  O   UNL A   1     -18.353   4.198  38.826  0.00  0.00    -0.241 OA
ATOM     15  O   UNL A   1     -18.437   5.231  36.925  0.00  0.00    -0.241 OA
ENDBRANCH  11  13
ENDBRANCH   1   8
BRANCH   3  16
ATOM     16  C   UNL A   1      -9.495   1.253  37.183  0.00  0.00    +0.279 C 
ATOM     17  N   UNL A   1      -9.521   0.387  38.158  0.00  0.00    -0.208 NA
ATOM     18  O   UNL A   1      -8.475   2.071  37.180  0.00  0.00    -0.265 OA
BRANCH  17  19
ATOM     19  C   UNL A   1     -10.471  -0.640  38.384  0.00  0.00    +0.085 A 
ATOM     20  C   UNL A   1     -11.315  -0.523  39.467  0.00  0.00    +0.019 A 
ATOM     21  C   UNL A   1     -12.183  -1.586  39.808  0.00  0.00    +0.002 A 
ATOM     22  C   UNL A   1     -12.272  -2.722  38.913  0.00  0.00    +0.000 A 
ATOM     23  C   UNL A   1     -11.749  -2.647  37.675  0.00  0.00    +0.002 A 
ATOM     24  C   UNL A   1     -10.749  -1.645  37.402  0.00  0.00    +0.019 A 
ENDBRANCH  17  19
ENDBRANCH   3  16
TORSDOF 4
ENDMDL
ENDMDL
