REMARK  Name = No_2508-gen_results/8p0m/2024-11-26-14-13-15/
REMARK  4 active torsions:
REMARK  status: ('A' for Active; 'I' for Inactive)
REMARK    1  A    between atoms: C_2  and  C_10
REMARK    2  A    between atoms: C_5  and  C_7
REMARK    3  A    between atoms: C_12  and  C_16
REMARK    4  A    between atoms: N_17  and  C_19
REMARK                            x       y       z     vdW  Elec       q    Type
REMARK                         _______ _______ _______ _____ _____    ______ ____
ROOT
ATOM      1  C   UNL A   1     -25.696  -0.212  29.427  0.00  0.00    +0.000 A 
ATOM      2  C   UNL A   1     -24.539   0.090  28.922  0.00  0.00    +0.005 A 
ATOM      3  C   UNL A   1     -23.313  -0.009  29.634  0.00  0.00    +0.058 A 
ATOM      4  C   UNL A   1     -23.372  -0.632  30.890  0.00  0.00    +0.005 A 
ATOM      5  C   UNL A   1     -24.594  -0.976  31.471  0.00  0.00    +0.000 A 
ATOM      6  C   UNL A   1     -25.783  -0.848  30.727  0.00  0.00    +0.000 A 
ENDROOT
BRANCH   1   8
ATOM      7  C   UNL A   1     -28.016  -0.814  28.878  0.00  0.00    +0.000 A 
ATOM      8  C   UNL A   1     -27.064  -0.119  28.608  0.00  0.00    +0.000 A 
ATOM      9  C   UNL A   1     -26.972   0.714  27.506  0.00  0.00    +0.000 A 
ATOM     10  C   UNL A   1     -28.105   0.774  26.642  0.00  0.00    +0.007 A 
ATOM     11  C   UNL A   1     -29.201   0.104  27.053  0.00  0.00    +0.080 A 
ATOM     12  C   UNL A   1     -29.210  -0.603  28.185  0.00  0.00    +0.007 A 
BRANCH  11  13
ATOM     13  C   UNL A   1     -30.370   0.226  26.160  0.00  0.00    +0.388 C 
ATOM     14  O   UNL A   1     -30.987   1.189  26.160  0.00  0.00    -0.241 OA
ATOM     15  O   UNL A   1     -30.855  -0.934  25.761  0.00  0.00    -0.241 OA
ENDBRANCH  11  13
ENDBRANCH   1   8
BRANCH   3  16
ATOM     16  C   UNL A   1     -22.079   0.391  29.046  0.00  0.00    +0.279 C 
ATOM     17  N   UNL A   1     -22.006   1.321  28.134  0.00  0.00    -0.208 NA
ATOM     18  O   UNL A   1     -21.003  -0.336  29.199  0.00  0.00    -0.265 OA
BRANCH  17  19
ATOM     19  C   UNL A   1     -22.992   2.279  27.787  0.00  0.00    +0.085 A 
ATOM     20  C   UNL A   1     -23.679   2.111  26.605  0.00  0.00    +0.019 A 
ATOM     21  C   UNL A   1     -24.572   3.111  26.155  0.00  0.00    +0.002 A 
ATOM     22  C   UNL A   1     -24.858   4.229  27.031  0.00  0.00    +0.000 A 
ATOM     23  C   UNL A   1     -24.493   4.181  28.326  0.00  0.00    +0.002 A 
ATOM     24  C   UNL A   1     -23.466   3.252  28.725  0.00  0.00    +0.019 A 
ENDBRANCH  17  19
ENDBRANCH   3  16
TORSDOF 4
