REMARK  Name = No_2509-gen_results/8p0m/2024-11-26-14-13-15/
REMARK  3 active torsions:
REMARK  status: ('A' for Active; 'I' for Inactive)
REMARK    1  A    between atoms: C_2  and  C_10
REMARK    2  A    between atoms: C_5  and  C_7
REMARK    3  A    between atoms: C_11  and  C_12
REMARK                            x       y       z     vdW  Elec       q    Type
REMARK                         _______ _______ _______ _____ _____    ______ ____
ROOT
ATOM      1  C   UNL A   1     -25.708  -0.206  29.446  0.00  0.00    +0.030 C 
ATOM      2  C   UNL A   1     -25.199   1.007  30.037  0.00  0.00    +0.048 C 
ATOM      3  C   UNL A   1     -23.653   0.954  29.719  0.00  0.00    -0.026 C 
ATOM      4  C   UNL A   1     -23.026  -0.117  29.231  0.00  0.00    -0.030 C 
ATOM      5  C   UNL A   1     -24.588  -1.002  28.648  0.00  0.00    +0.030 C 
ATOM      6  C   UNL A   1     -25.932  -1.050  30.741  0.00  0.00    +0.005 C 
ENDROOT
BRANCH   1   8
ATOM      7  C   UNL A   1     -28.016  -0.814  28.878  0.00  0.00    -0.004 A 
ATOM      8  C   UNL A   1     -27.064  -0.119  28.608  0.00  0.00    -0.022 A 
ATOM      9  C   UNL A   1     -26.972   0.714  27.506  0.00  0.00    -0.004 A 
ATOM     10  C   UNL A   1     -28.105   0.774  26.642  0.00  0.00    +0.006 A 
ATOM     11  C   UNL A   1     -29.201   0.104  27.053  0.00  0.00    +0.080 A 
ATOM     12  C   UNL A   1     -29.210  -0.603  28.185  0.00  0.00    +0.006 A 
BRANCH  11  13
ATOM     13  C   UNL A   1     -30.285   0.274  26.012  0.00  0.00    +0.388 C 
ATOM     14  O   UNL A   1     -30.200   0.422  24.873  0.00  0.00    -0.241 OA
ATOM     15  O   UNL A   1     -31.456  -0.391  26.483  0.00  0.00    -0.241 OA
ENDBRANCH  11  13
ENDBRANCH   1   8
BRANCH   2  16
ATOM     16  C   UNL A   1     -25.483   1.347  30.993  0.00  0.00    -0.018 A 
ATOM     17  C   UNL A   1     -25.928   0.699  32.060  0.00  0.00    -0.004 A 
ATOM     18  C   UNL A   1     -26.286   1.243  33.393  0.00  0.00    -0.000 A 
ATOM     19  C   UNL A   1     -26.157   2.594  33.575  0.00  0.00    -0.000 A 
ATOM     20  C   UNL A   1     -25.365   2.908  31.404  0.00  0.00    -0.004 A 
ATOM     21  C   UNL A   1     -25.689   3.421  32.596  0.00  0.00    -0.000 A 
ENDBRANCH   2  16
TORSDOF 3
