MODEL 2509
MODEL 1
REMARK VINA RESULT:    -6.881      0.000      0.000
REMARK INTER + INTRA:          -8.762
REMARK INTER:                  -8.088
REMARK INTRA:                  -0.674
REMARK UNBOUND:                -0.674
REMARK  Name = No_2509-gen_results/8p0m/2024-11-26-14-13-15/
REMARK  3 active torsions:
REMARK  status: ('A' for Active; 'I' for Inactive)
REMARK    1  A    between atoms: C_2  and  C_10
REMARK    2  A    between atoms: C_5  and  C_7
REMARK    3  A    between atoms: C_11  and  C_12
REMARK                            x       y       z     vdW  Elec       q    Type
REMARK                         _______ _______ _______ _____ _____    ______ ____
ROOT
ATOM      1  C   UNL A   1     -24.571  -1.085  29.818  0.00  0.00    +0.030 C 
ATOM      2  C   UNL A   1     -23.869  -0.955  28.565  0.00  0.00    +0.048 C 
ATOM      3  C   UNL A   1     -22.379  -0.670  29.002  0.00  0.00    -0.026 C 
ATOM      4  C   UNL A   1     -22.006  -0.390  30.251  0.00  0.00    -0.030 C 
ATOM      5  C   UNL A   1     -23.590  -1.017  31.066  0.00  0.00    +0.030 C 
ATOM      6  C   UNL A   1     -25.318   0.286  29.839  0.00  0.00    +0.005 C 
ENDROOT
BRANCH   1   8
ATOM      7  C   UNL A   1     -25.425  -3.355  29.447  0.00  0.00    -0.004 A 
ATOM      8  C   UNL A   1     -25.617  -2.282  29.970  0.00  0.00    -0.022 A 
ATOM      9  C   UNL A   1     -26.777  -1.912  30.630  0.00  0.00    -0.004 A 
ATOM     10  C   UNL A   1     -27.810  -2.890  30.723  0.00  0.00    +0.006 A 
ATOM     11  C   UNL A   1     -27.506  -4.121  30.262  0.00  0.00    +0.080 A 
ATOM     12  C   UNL A   1     -26.318  -4.395  29.719  0.00  0.00    +0.006 A 
BRANCH  11  13
ATOM     13  C   UNL A   1     -28.717  -5.010  30.433  0.00  0.00    +0.388 C 
ATOM     14  O   UNL A   1     -29.048  -5.643  31.336  0.00  0.00    -0.241 OA
ATOM     15  O   UNL A   1     -29.754  -4.507  29.593  0.00  0.00    -0.241 OA
ENDBRANCH  11  13
ENDBRANCH   1   8
BRANCH   2  16
ATOM     16  C   UNL A   1     -24.245  -0.407  27.747  0.00  0.00    -0.018 A 
ATOM     17  C   UNL A   1     -25.320  -0.581  26.992  0.00  0.00    -0.004 A 
ATOM     18  C   UNL A   1     -25.807   0.252  25.865  0.00  0.00    -0.000 A 
ATOM     19  C   UNL A   1     -25.062   1.351  25.530  0.00  0.00    -0.000 A 
ATOM     20  C   UNL A   1     -23.519   0.943  27.230  0.00  0.00    -0.004 A 
ATOM     21  C   UNL A   1     -23.935   1.704  26.211  0.00  0.00    -0.000 A 
ENDBRANCH   2  16
TORSDOF 3
ENDMDL
ENDMDL
