MODEL 250
MODEL 1
REMARK VINA RESULT:    -6.929      0.000      0.000
REMARK INTER + INTRA:          -8.283
REMARK INTER:                  -7.739
REMARK INTRA:                  -0.544
REMARK UNBOUND:                -0.544
REMARK  Name = No_250-gen_results/8p0m/2024-11-26-14-13-15/
REMARK  2 active torsions:
REMARK  status: ('A' for Active; 'I' for Inactive)
REMARK    1  A    between atoms: C_5  and  C_8
REMARK    2  A    between atoms: C_7  and  C_10
REMARK                            x       y       z     vdW  Elec       q    Type
REMARK                         _______ _______ _______ _____ _____    ______ ____
ROOT
ATOM      1 CL   UNL A   1     -23.419  -1.158  31.219  0.00  0.00    -0.082 Cl
ATOM      2  C   UNL A   1     -23.551  -0.386  30.008  0.00  0.00    +0.058 A 
ATOM      3  C   UNL A   1     -23.130   0.671  29.730  0.00  0.00    +0.011 A 
ATOM      4  C   UNL A   1     -23.268   1.428  28.470  0.00  0.00    -0.003 A 
ATOM      5  C   UNL A   1     -23.953   0.754  27.435  0.00  0.00    -0.022 A 
ATOM      6  C   UNL A   1     -24.439  -0.480  27.710  0.00  0.00    -0.003 A 
ATOM      7  C   UNL A   1     -24.251  -1.079  28.884  0.00  0.00    +0.010 A 
ENDROOT
BRANCH   7   8
ATOM      8  C   UNL A   1     -24.806  -2.453  29.094  0.00  0.00    +0.001 A 
ATOM      9  C   UNL A   1     -25.900  -2.692  29.535  0.00  0.00    +0.000 A 
ATOM     10  C   UNL A   1     -26.316  -4.029  29.775  0.00  0.00    +0.000 A 
ATOM     11  C   UNL A   1     -25.474  -5.076  29.311  0.00  0.00    +0.000 A 
ATOM     12  C   UNL A   1     -23.933  -3.536  28.661  0.00  0.00    +0.000 A 
ATOM     13  C   UNL A   1     -24.279  -4.779  28.764  0.00  0.00    +0.000 A 
ENDBRANCH   7   8
BRANCH   5  14
ATOM     14  C   UNL A   1     -24.098   1.452  26.167  0.00  0.00    +0.026 C 
ATOM     15  C   UNL A   1     -22.785   2.144  25.825  0.00  0.00    +0.005 C 
ENDBRANCH   5  14
TORSDOF 2
ENDMDL
ENDMDL
