MODEL 2510
MODEL 1
REMARK VINA RESULT:    -5.919      0.000      0.000
REMARK INTER + INTRA:          -7.375
REMARK INTER:                  -6.957
REMARK INTRA:                  -0.418
REMARK UNBOUND:                -0.418
REMARK  Name = No_2510-gen_results/8p0m/2024-11-26-14-13-15/
REMARK  3 active torsions:
REMARK  status: ('A' for Active; 'I' for Inactive)
REMARK    1  A    between atoms: C_3  and  C_4
REMARK    2  A    between atoms: C_4  and  C_8
REMARK    3  A    between atoms: C_9  and  C_10
REMARK                            x       y       z     vdW  Elec       q    Type
REMARK                         _______ _______ _______ _____ _____    ______ ____
ROOT
ATOM      1  C   UNL A   1     -26.165  -3.340  29.733  0.00  0.00    -0.004 A 
ATOM      2  C   UNL A   1     -26.173  -4.393  29.701  0.00  0.00    -0.000 A 
ATOM      3  C   UNL A   1     -24.941  -2.676  29.255  0.00  0.00    -0.018 A 
ATOM      4  C   UNL A   1     -25.253  -5.366  29.065  0.00  0.00    -0.000 A 
ATOM      5  C   UNL A   1     -24.072  -4.814  28.581  0.00  0.00    -0.000 A 
ATOM      6  C   UNL A   1     -23.866  -3.452  28.625  0.00  0.00    -0.004 A 
ENDROOT
BRANCH   3   7
ATOM      7  C   UNL A   1     -24.622  -1.259  29.331  0.00  0.00    +0.052 C 
BRANCH   7   8
ATOM      8  C   UNL A   1     -23.428  -0.786  28.774  0.00  0.00    -0.021 C 
ATOM      9  C   UNL A   1     -23.198   0.509  28.667  0.00  0.00    -0.005 C 
BRANCH   9  10
ATOM     10  C   UNL A   1     -21.980   0.956  28.078  0.00  0.00    -0.005 C 
ATOM     11  C   UNL A   1     -22.080   1.807  26.932  0.00  0.00    -0.026 C 
ATOM     12  C   UNL A   1     -23.358   2.308  26.517  0.00  0.00    +0.031 C 
ENDBRANCH   9  10
ENDBRANCH   7   8
ENDBRANCH   3   7
TORSDOF 3
ENDMDL
ENDMDL
