MODEL 2511
MODEL 1
REMARK VINA RESULT:    -8.822      0.000      0.000
REMARK INTER + INTRA:         -15.827
REMARK INTER:                 -12.432
REMARK INTRA:                  -3.395
REMARK UNBOUND:                -3.395
REMARK  Name = No_2511-gen_results/8p0m/2024-11-26-14-13-15/
REMARK  7 active torsions:
REMARK  status: ('A' for Active; 'I' for Inactive)
REMARK    1  A    between atoms: C_1  and  C_2
REMARK    2  A    between atoms: C_1  and  N_8
REMARK    3  A    between atoms: C_3  and  C_21
REMARK    4  A    between atoms: C_5  and  C_18
REMARK    5  A    between atoms: C_7  and  C_23
REMARK    6  A    between atoms: C_25  and  C_28
REMARK    7  A    between atoms: C_28  and  C_30
REMARK                            x       y       z     vdW  Elec       q    Type
REMARK                         _______ _______ _______ _____ _____    ______ ____
ROOT
ATOM      1  C   UNL A   1     -25.675   1.754  27.911  0.00  0.00    -0.002 A 
ATOM      2  C   UNL A   1     -25.332   2.146  26.621  0.00  0.00    -0.002 A 
ATOM      3  C   UNL A   1     -26.128   1.898  25.385  0.00  0.00    +0.004 A 
ATOM      4  C   UNL A   1     -27.263   1.047  25.534  0.00  0.00    +0.048 A 
ATOM      5  C   UNL A   1     -27.559   0.612  26.842  0.00  0.00    +0.004 A 
ATOM      6  C   UNL A   1     -26.831   0.914  27.927  0.00  0.00    -0.002 A 
ENDROOT
BRANCH   6   7
ATOM      7  C   UNL A   1     -27.305   0.344  29.203  0.00  0.00    -0.001 A 
ATOM      8  C   UNL A   1     -27.123  -0.780  29.432  0.00  0.00    -0.004 A 
ATOM      9  C   UNL A   1     -27.308  -1.590  30.253  0.00  0.00    -0.018 A 
ATOM     10  C   UNL A   1     -28.006   1.198  30.080  0.00  0.00    -0.000 A 
ATOM     11  C   UNL A   1     -28.446   0.591  31.282  0.00  0.00    -0.000 A 
ATOM     12  C   UNL A   1     -28.103  -0.889  31.394  0.00  0.00    -0.004 A 
BRANCH   9  13
ATOM     13  C   UNL A   1     -27.143  -2.996  30.409  0.00  0.00    +0.053 C 
BRANCH  13  14
ATOM     14  C   UNL A   1     -26.165  -3.556  29.788  0.00  0.00    -0.018 A 
ATOM     15  C   UNL A   1     -26.073  -4.916  29.630  0.00  0.00    -0.004 A 
ATOM     16  C   UNL A   1     -24.928  -5.531  28.930  0.00  0.00    -0.000 A 
ATOM     17  C   UNL A   1     -23.969  -4.687  28.506  0.00  0.00    -0.000 A 
ATOM     18  C   UNL A   1     -23.975  -3.371  28.650  0.00  0.00    -0.000 A 
ATOM     19  C   UNL A   1     -24.970  -2.975  29.307  0.00  0.00    -0.004 A 
ENDBRANCH  13  14
ENDBRANCH   9  13
ENDBRANCH   6   7
BRANCH   4  20
ATOM     20  C   UNL A   1     -28.003   0.699  24.336  0.00  0.00    +0.242 C 
ATOM     21  N   UNL A   1     -28.805   0.096  24.136  0.00  0.00    -0.116 NA
ATOM     22  F   UNL A   1     -27.610   1.546  23.309  0.00  0.00    -0.181 F 
ENDBRANCH   4  20
BRANCH   2  23
ATOM     23  C   UNL A   1     -24.197   3.043  26.276  0.00  0.00    -0.000 C 
ATOM     24  C   UNL A   1     -23.209   2.642  25.471  0.00  0.00    -0.000 C 
ENDBRANCH   2  23
BRANCH   1  25
ATOM     25  C   UNL A   1     -24.961   2.013  28.853  0.00  0.00    +0.118 C 
BRANCH  25  26
ATOM     26  N   UNL A   1     -23.877   1.154  29.072  0.00  0.00    -0.304 N 
ATOM     27  C   UNL A   1     -23.198   0.743  28.413  0.00  0.00    +0.091 C 
ATOM     28  C   UNL A   1     -22.119  -0.271  28.937  0.00  0.00    +0.026 C 
ATOM     29  C   UNL A   1     -23.843   0.624  30.560  0.00  0.00    +0.044 A 
ATOM     30  C   UNL A   1     -24.710   1.065  31.420  0.00  0.00    +0.014 A 
ATOM     31  C   UNL A   1     -22.912  -0.315  30.850  0.00  0.00    -0.009 A 
ATOM     32  C   UNL A   1     -22.012  -0.738  29.995  0.00  0.00    +0.029 C 
ATOM     33  C   UNL A   1     -24.927   0.135  32.557  0.00  0.00    +0.001 A 
ATOM     34  C   UNL A   1     -24.038  -0.712  32.951  0.00  0.00    -0.000 A 
ATOM     35  C   UNL A   1     -23.088  -1.047  32.119  0.00  0.00    -0.003 A 
ENDBRANCH  25  26
ENDBRANCH   1  25
TORSDOF 7
ENDMDL
ENDMDL
