REMARK  Name = No_2511-gen_results/8p0m/2024-11-26-14-13-15/
REMARK  7 active torsions:
REMARK  status: ('A' for Active; 'I' for Inactive)
REMARK    1  A    between atoms: C_1  and  C_2
REMARK    2  A    between atoms: C_1  and  N_8
REMARK    3  A    between atoms: C_3  and  C_21
REMARK    4  A    between atoms: C_5  and  C_18
REMARK    5  A    between atoms: C_7  and  C_23
REMARK    6  A    between atoms: C_25  and  C_28
REMARK    7  A    between atoms: C_28  and  C_30
REMARK                            x       y       z     vdW  Elec       q    Type
REMARK                         _______ _______ _______ _____ _____    ______ ____
ROOT
ATOM      1  C   UNL A   1     -27.064  -0.119  28.608  0.00  0.00    -0.002 A 
ATOM      2  C   UNL A   1     -25.792  -0.430  29.076  0.00  0.00    -0.002 A 
ATOM      3  C   UNL A   1     -24.546   0.349  28.823  0.00  0.00    +0.004 A 
ATOM      4  C   UNL A   1     -24.659   1.420  27.888  0.00  0.00    +0.048 A 
ATOM      5  C   UNL A   1     -25.947   1.681  27.379  0.00  0.00    +0.004 A 
ATOM      6  C   UNL A   1     -27.044   0.974  27.687  0.00  0.00    -0.002 A 
ENDROOT
BRANCH   6   7
ATOM      7  C   UNL A   1     -28.295   1.404  27.033  0.00  0.00    -0.001 A 
ATOM      8  C   UNL A   1     -29.003   2.145  27.580  0.00  0.00    -0.004 A 
ATOM      9  C   UNL A   1     -30.015   2.713  27.448  0.00  0.00    -0.018 A 
ATOM     10  C   UNL A   1     -28.597   0.853  25.770  0.00  0.00    -0.000 A 
ATOM     11  C   UNL A   1     -29.815   1.295  25.199  0.00  0.00    -0.000 A 
ATOM     12  C   UNL A   1     -30.595   2.270  26.073  0.00  0.00    -0.004 A 
BRANCH   9  13
ATOM     13  C   UNL A   1     -30.877   3.534  28.230  0.00  0.00    +0.053 C 
BRANCH  13  14
ATOM     14  C   UNL A   1     -30.360   4.550  28.825  0.00  0.00    -0.018 A 
ATOM     15  C   UNL A   1     -29.077   4.974  28.584  0.00  0.00    -0.004 A 
ATOM     16  C   UNL A   1     -28.506   6.133  29.298  0.00  0.00    -0.000 A 
ATOM     17  C   UNL A   1     -29.295   6.708  30.224  0.00  0.00    -0.000 A 
ATOM     18  C   UNL A   1     -30.528   6.335  30.532  0.00  0.00    -0.000 A 
ATOM     19  C   UNL A   1     -30.880   5.309  29.898  0.00  0.00    -0.004 A 
ENDBRANCH  13  14
ENDBRANCH   9  13
ENDBRANCH   6   7
BRANCH   4  20
ATOM     20  C   UNL A   1     -23.447   2.136  27.538  0.00  0.00    +0.242 C 
ATOM     21  N   UNL A   1     -22.496   1.858  27.281  0.00  0.00    -0.116 NA
ATOM     22  F   UNL A   1     -23.762   3.474  27.341  0.00  0.00    -0.181 F 
ENDBRANCH   4  20
BRANCH   2  23
ATOM     23  C   UNL A   1     -25.485  -1.497  30.065  0.00  0.00    -0.000 C 
ATOM     24  C   UNL A   1     -24.379  -2.242  29.970  0.00  0.00    -0.000 C 
ENDBRANCH   2  23
BRANCH   1  25
ATOM     25  C   UNL A   1     -28.016  -0.814  28.878  0.00  0.00    +0.118 C 
BRANCH  25  26
ATOM     26  N   UNL A   1     -28.657  -0.553  30.096  0.00  0.00    -0.304 N 
ATOM     27  C   UNL A   1     -28.584   0.251  30.738  0.00  0.00    +0.091 C 
ATOM     28  C   UNL A   1     -29.370   0.237  32.098  0.00  0.00    +0.026 C 
ATOM     29  C   UNL A   1     -29.478  -1.804  30.604  0.00  0.00    +0.044 A 
ATOM     30  C   UNL A   1     -29.557  -2.866  29.862  0.00  0.00    +0.014 A 
ATOM     31  C   UNL A   1     -30.032  -1.708  31.836  0.00  0.00    -0.009 A 
ATOM     32  C   UNL A   1     -29.984  -0.626  32.575  0.00  0.00    +0.029 C 
ATOM     33  C   UNL A   1     -29.854  -4.097  30.637  0.00  0.00    +0.001 A 
ATOM     34  C   UNL A   1     -30.474  -4.083  31.767  0.00  0.00    -0.000 A 
ATOM     35  C   UNL A   1     -30.503  -2.967  32.445  0.00  0.00    -0.003 A 
ENDBRANCH  25  26
ENDBRANCH   1  25
TORSDOF 7
