MODEL 2512
MODEL 1
REMARK VINA RESULT:    -4.265      0.000      0.000
REMARK INTER + INTRA:          -4.265
REMARK INTER:                  -4.265
REMARK INTRA:                   0.000
REMARK UNBOUND:                 0.000
REMARK  Name = No_2512-gen_results/8p0m/2024-11-26-14-13-15/
REMARK  0 active torsions:
REMARK  status: ('A' for Active; 'I' for Inactive)
REMARK                            x       y       z     vdW  Elec       q    Type
REMARK                         _______ _______ _______ _____ _____    ______ ____
ROOT
ATOM      1  C   UNL A   1     -26.371  -3.826  29.776  0.00  0.00    +0.000 A 
ATOM      2  C   UNL A   1     -26.084  -4.829  29.629  0.00  0.00    +0.000 A 
ATOM      3  C   UNL A   1     -25.383  -2.798  29.412  0.00  0.00    +0.000 A 
ATOM      4  C   UNL A   1     -24.166  -3.159  28.763  0.00  0.00    +0.000 A 
ATOM      5  C   UNL A   1     -24.928  -5.460  28.935  0.00  0.00    +0.000 A 
ATOM      6  C   UNL A   1     -23.985  -4.538  28.591  0.00  0.00    +0.000 A 
ENDROOT
TORSDOF 0
ENDMDL
ENDMDL
