REMARK  Name = No_2513-gen_results/8p0m/2024-11-26-14-13-15/
REMARK  3 active torsions:
REMARK  status: ('A' for Active; 'I' for Inactive)
REMARK    1  A    between atoms: C_2  and  C_12
REMARK    2  A    between atoms: C_5  and  C_7
REMARK    3  A    between atoms: C_12  and  C_13
REMARK                            x       y       z     vdW  Elec       q    Type
REMARK                         _______ _______ _______ _____ _____    ______ ____
ROOT
ATOM      1  C   UNL A   1     -28.016  -0.814  28.878  0.00  0.00    +0.192 A 
ATOM      2  C   UNL A   1     -27.064  -0.119  28.608  0.00  0.00    +0.021 A 
ATOM      3  C   UNL A   1     -26.972   0.714  27.506  0.00  0.00    -0.001 A 
ATOM      4  C   UNL A   1     -28.105   0.774  26.642  0.00  0.00    +0.004 A 
ATOM      5  C   UNL A   1     -29.201   0.104  27.053  0.00  0.00    +0.058 A 
ATOM      6  C   UNL A   1     -29.210  -0.603  28.185  0.00  0.00    +0.046 A 
ATOM      7  O   UNL A   1     -28.048  -1.585  30.046  0.00  0.00    -0.287 OA
ENDROOT
BRANCH   5   8
ATOM      8  C   UNL A   1     -30.370   0.226  26.160  0.00  0.00    +0.265 C 
ATOM      9  N   UNL A   1     -31.317  -0.457  26.381  0.00  0.00    -0.200 NA
ATOM     10  O   UNL A   1     -30.326   0.970  25.123  0.00  0.00    -0.268 OA
ATOM     11  C   UNL A   1     -32.516  -0.512  25.459  0.00  0.00    +0.139 C 
ENDBRANCH   5   8
BRANCH   2  12
ATOM     12  C   UNL A   1     -25.715  -0.207  29.456  0.00  0.00    +0.055 C 
BRANCH  12  13
ATOM     13  C   UNL A   1     -25.002  -1.279  29.471  0.00  0.00    -0.026 C 
ATOM     14  C   UNL A   1     -24.119  -1.513  28.892  0.00  0.00    -0.030 C 
ATOM     15  C   UNL A   1     -23.206  -2.756  29.077  0.00  0.00    +0.030 C 
ENDBRANCH  12  13
ENDBRANCH   2  12
TORSDOF 3
