MODEL 2513
MODEL 1
REMARK VINA RESULT:    -5.999      0.000      0.000
REMARK INTER + INTRA:          -7.416
REMARK INTER:                  -7.051
REMARK INTRA:                  -0.364
REMARK UNBOUND:                -0.364
REMARK  Name = No_2513-gen_results/8p0m/2024-11-26-14-13-15/
REMARK  3 active torsions:
REMARK  status: ('A' for Active; 'I' for Inactive)
REMARK    1  A    between atoms: C_2  and  C_12
REMARK    2  A    between atoms: C_5  and  C_7
REMARK    3  A    between atoms: C_12  and  C_13
REMARK                            x       y       z     vdW  Elec       q    Type
REMARK                         _______ _______ _______ _____ _____    ______ ____
ROOT
ATOM      1  C   UNL A   1     -22.450   0.255  28.453  0.00  0.00    +0.192 A 
ATOM      2  C   UNL A   1     -23.354  -0.549  28.464  0.00  0.00    +0.021 A 
ATOM      3  C   UNL A   1     -24.650  -0.298  28.047  0.00  0.00    -0.001 A 
ATOM      4  C   UNL A   1     -24.926   1.005  27.539  0.00  0.00    +0.004 A 
ATOM      5  C   UNL A   1     -23.865   1.827  27.402  0.00  0.00    +0.058 A 
ATOM      6  C   UNL A   1     -22.634   1.451  27.756  0.00  0.00    +0.046 A 
ATOM      7  O   UNL A   1     -21.153  -0.101  28.840  0.00  0.00    -0.287 OA
ENDROOT
BRANCH   5   8
ATOM      8  C   UNL A   1     -24.179   3.150  26.829  0.00  0.00    +0.265 C 
ATOM      9  N   UNL A   1     -24.599   3.990  27.557  0.00  0.00    -0.200 NA
ATOM     10  O   UNL A   1     -24.096   3.355  25.571  0.00  0.00    -0.268 OA
ATOM     11  C   UNL A   1     -25.077   5.337  27.058  0.00  0.00    +0.139 C 
ENDBRANCH   5   8
BRANCH   2  12
ATOM     12  C   UNL A   1     -23.162  -1.993  29.117  0.00  0.00    +0.055 C 
BRANCH  12  13
ATOM     13  C   UNL A   1     -24.130  -2.840  29.166  0.00  0.00    -0.026 C 
ATOM     14  C   UNL A   1     -24.127  -3.887  28.896  0.00  0.00    -0.030 C 
ATOM     15  C   UNL A   1     -25.283  -4.897  29.137  0.00  0.00    +0.030 C 
ENDBRANCH  12  13
ENDBRANCH   2  12
TORSDOF 3
ENDMDL
ENDMDL
