MODEL 2514
MODEL 1
REMARK VINA RESULT:    -6.330      0.000      0.000
REMARK INTER + INTRA:          -6.330
REMARK INTER:                  -6.330
REMARK INTRA:                   0.000
REMARK UNBOUND:                 0.000
REMARK  Name = No_2514-gen_results/8p0m/2024-11-26-14-13-15/
REMARK  0 active torsions:
REMARK  status: ('A' for Active; 'I' for Inactive)
REMARK                            x       y       z     vdW  Elec       q    Type
REMARK                         _______ _______ _______ _____ _____    ______ ____
ROOT
ATOM      1  C   UNL A   1     -24.590   1.336  31.291  0.00  0.00    +0.049 A 
ATOM      2  C   UNL A   1     -25.288   1.403  32.078  0.00  0.00    +0.061 A 
ATOM      3  C   UNL A   1     -24.525   0.051  30.575  0.00  0.00    +0.149 A 
ATOM      4  C   UNL A   1     -25.465  -0.983  30.856  0.00  0.00    +0.035 A 
ATOM      5  C   UNL A   1     -26.356  -0.728  31.868  0.00  0.00    +0.004 A 
ATOM      6  C   UNL A   1     -26.354   0.460  32.509  0.00  0.00    +0.012 A 
ATOM      7  C   UNL A   1     -25.429  -2.240  30.153  0.00  0.00    +0.009 A 
ATOM      8  C   UNL A   1     -26.123  -2.984  30.157  0.00  0.00    +0.000 A 
ATOM      9  C   UNL A   1     -25.984  -4.407  29.576  0.00  0.00    +0.000 A 
ATOM     10  C   UNL A   1     -24.783  -4.580  28.916  0.00  0.00    +0.000 A 
ATOM     11  C   UNL A   1     -24.127  -2.510  29.453  0.00  0.00    +0.076 A 
ATOM     12  C   UNL A   1     -23.857  -3.671  28.898  0.00  0.00    +0.006 A 
ATOM     13 CL   UNL A   1     -25.358   2.956  33.027  0.00  0.00    -0.082 Cl
ATOM     14  O   UNL A   1     -23.706  -0.294  29.569  0.00  0.00    -0.421 OA
ATOM     15  C   UNL A   1     -23.303  -1.321  29.306  0.00  0.00    +0.346 A 
ATOM     16  O   UNL A   1     -22.060  -1.509  28.904  0.00  0.00    -0.244 OA
ENDROOT
TORSDOF 0
ENDMDL
ENDMDL
