MODEL 2515
MODEL 1
REMARK VINA RESULT:    -4.976      0.000      0.000
REMARK INTER + INTRA:          -5.376
REMARK INTER:                  -5.266
REMARK INTRA:                  -0.110
REMARK UNBOUND:                -0.110
REMARK  Name = No_2515-gen_results/8p0m/2024-11-26-14-13-15/
REMARK  1 active torsions:
REMARK  status: ('A' for Active; 'I' for Inactive)
REMARK    1  A    between atoms: C_3  and  C_4
REMARK                            x       y       z     vdW  Elec       q    Type
REMARK                         _______ _______ _______ _____ _____    ______ ____
ROOT
ATOM      1  C   UNL A   1     -25.817  -2.577  29.730  0.00  0.00    -0.000 A 
ATOM      2  C   UNL A   1     -26.412  -3.436  29.867  0.00  0.00    -0.000 A 
ATOM      3  C   UNL A   1     -24.524  -2.750  29.190  0.00  0.00    -0.000 A 
ATOM      4  C   UNL A   1     -26.138  -4.860  29.605  0.00  0.00    -0.000 A 
ATOM      5  C   UNL A   1     -24.874  -5.108  29.071  0.00  0.00    -0.000 A 
ATOM      6  C   UNL A   1     -24.050  -4.061  28.806  0.00  0.00    -0.000 A 
ENDROOT
BRANCH   3   7
ATOM      7  C   UNL A   1     -23.603  -1.639  28.834  0.00  0.00    -0.005 C 
ATOM      8  C   UNL A   1     -22.916  -0.942  29.405  0.00  0.00    -0.026 C 
ATOM      9  C   UNL A   1     -23.117  -1.038  30.928  0.00  0.00    +0.031 C 
ENDBRANCH   3   7
TORSDOF 1
ENDMDL
ENDMDL
