MODEL 2516
MODEL 1
REMARK VINA RESULT:    -7.096      0.000      0.000
REMARK INTER + INTRA:          -9.704
REMARK INTER:                  -8.756
REMARK INTRA:                  -0.948
REMARK UNBOUND:                -0.948
REMARK  Name = No_2516-gen_results/8p0m/2024-11-26-14-13-15/
REMARK  4 active torsions:
REMARK  status: ('A' for Active; 'I' for Inactive)
REMARK    1  A    between atoms: C_3  and  C_8
REMARK    2  A    between atoms: C_6  and  O_7
REMARK    3  A    between atoms: O_7  and  C_14
REMARK    4  A    between atoms: C_15  and  C_20
REMARK                            x       y       z     vdW  Elec       q    Type
REMARK                         _______ _______ _______ _____ _____    ______ ____
ROOT
ATOM      1  C   UNL A   1     -10.110   0.993  34.818  0.00  0.00    +0.037 A 
ATOM      2  C   UNL A   1      -9.158   0.259  34.948  0.00  0.00    +0.003 A 
ATOM      3  C   UNL A   1      -7.845   0.644  34.683  0.00  0.00    +0.000 A 
ATOM      4  C   UNL A   1      -7.590   1.976  34.167  0.00  0.00    +0.003 A 
ATOM      5  C   UNL A   1      -8.750   2.772  34.032  0.00  0.00    +0.037 A 
ATOM      6  C   UNL A   1      -9.948   2.319  34.301  0.00  0.00    +0.145 A 
ENDROOT
BRANCH   3   7
ATOM      7  C   UNL A   1      -6.618  -0.206  34.821  0.00  0.00    +0.000 A 
ATOM      8  C   UNL A   1      -5.420   0.355  34.915  0.00  0.00    +0.000 A 
ATOM      9  C   UNL A   1      -4.242  -0.472  34.963  0.00  0.00    +0.000 A 
ATOM     10  C   UNL A   1      -4.304  -1.836  34.811  0.00  0.00    +0.000 A 
ATOM     11  C   UNL A   1      -6.670  -1.613  34.620  0.00  0.00    +0.000 A 
ATOM     12  C   UNL A   1      -5.508  -2.425  34.641  0.00  0.00    +0.000 A 
ENDBRANCH   3   7
BRANCH   6  13
ATOM     13  O   UNL A   1     -11.001   3.162  34.084  0.00  0.00    -0.453 OA
BRANCH  13  14
ATOM     14  C   UNL A   1     -11.952   3.331  35.085  0.00  0.00    +0.152 A 
ATOM     15  C   UNL A   1     -13.194   2.738  34.702  0.00  0.00    +0.114 A 
ATOM     16  C   UNL A   1     -14.139   2.702  35.667  0.00  0.00    +0.010 A 
ATOM     17  C   UNL A   1     -13.941   3.338  36.931  0.00  0.00    +0.000 A 
ATOM     18  C   UNL A   1     -12.706   3.844  37.243  0.00  0.00    +0.003 A 
ATOM     19  C   UNL A   1     -11.669   3.806  36.323  0.00  0.00    +0.038 A 
BRANCH  15  20
ATOM     20  C   UNL A   1     -13.404   2.090  33.443  0.00  0.00    +0.391 C 
ATOM     21  O   UNL A   1     -13.230   0.994  33.447  0.00  0.00    -0.240 OA
ATOM     22  O   UNL A   1     -13.933   2.800  32.478  0.00  0.00    -0.240 OA
ENDBRANCH  15  20
ENDBRANCH  13  14
ENDBRANCH   6  13
TORSDOF 4
ENDMDL
ENDMDL
