MODEL 2517
MODEL 1
REMARK VINA RESULT:    -8.027      0.000      0.000
REMARK INTER + INTRA:         -12.912
REMARK INTER:                 -11.312
REMARK INTRA:                  -1.600
REMARK UNBOUND:                -1.600
REMARK  Name = No_2517-gen_results/8p0m/2024-11-26-14-13-15/
REMARK  7 active torsions:
REMARK  status: ('A' for Active; 'I' for Inactive)
REMARK    1  A    between atoms: C_4  and  C_16
REMARK    2  A    between atoms: C_11  and  C_13
REMARK    3  A    between atoms: C_13  and  C_14
REMARK    4  A    between atoms: C_13  and  C_15
REMARK    5  A    between atoms: C_14  and  C_26
REMARK    6  A    between atoms: C_16  and  C_18
REMARK    7  A    between atoms: C_18  and  C_19
REMARK                            x       y       z     vdW  Elec       q    Type
REMARK                         _______ _______ _______ _____ _____    ______ ____
ROOT
ATOM      1  C   UNL A   1     -24.573   1.875  26.742  0.00  0.00    +0.049 A 
ATOM      2  C   UNL A   1     -23.580   1.758  26.408  0.00  0.00    +0.249 C 
ATOM      3  C   UNL A   1     -25.532   2.112  25.656  0.00  0.00    -0.000 A 
ATOM      4  C   UNL A   1     -26.985   2.100  25.913  0.00  0.00    -0.022 A 
ATOM      5  C   UNL A   1     -27.462   1.262  26.945  0.00  0.00    -0.005 A 
ATOM      6  C   UNL A   1     -26.509   0.658  27.831  0.00  0.00    -0.004 A 
ATOM      7  C   UNL A   1     -25.199   0.832  27.651  0.00  0.00    -0.016 A 
ATOM      8  N   UNL A   1     -22.580   1.475  27.439  0.00  0.00    -0.274 N 
ATOM      9  O   UNL A   1     -22.973   1.835  25.313  0.00  0.00    -0.270 OA
ATOM     10  C   UNL A   1     -22.934   1.351  28.765  0.00  0.00    +0.099 C 
ATOM     11  C   UNL A   1     -24.197   0.606  28.947  0.00  0.00    +0.048 C 
ATOM     12  C   UNL A   1     -21.074   1.787  27.325  0.00  0.00    +0.115 C 
ENDROOT
BRANCH   4  13
ATOM     13  C   UNL A   1     -27.962   2.587  24.994  0.00  0.00    +0.027 C 
ATOM     14  C   UNL A   1     -28.694   3.625  25.494  0.00  0.00    +0.005 C 
BRANCH  13  15
ATOM     15  C   UNL A   1     -28.164   1.970  23.772  0.00  0.00    +0.031 C 
BRANCH  15  16
ATOM     16  C   UNL A   1     -29.014   0.901  23.732  0.00  0.00    -0.022 A 
ATOM     17  C   UNL A   1     -30.347   1.094  23.435  0.00  0.00    -0.004 A 
ATOM     18  C   UNL A   1     -31.237   0.032  23.296  0.00  0.00    -0.000 A 
ATOM     19  C   UNL A   1     -30.782  -1.279  23.403  0.00  0.00    -0.000 A 
ATOM     20  C   UNL A   1     -29.422  -1.518  23.617  0.00  0.00    -0.000 A 
ATOM     21  C   UNL A   1     -28.572  -0.484  23.754  0.00  0.00    -0.004 A 
ENDBRANCH  15  16
ENDBRANCH  13  15
ENDBRANCH   4  13
BRANCH  11  22
ATOM     22  C   UNL A   1     -24.635  -0.234  29.977  0.00  0.00    +0.053 C 
BRANCH  22  23
ATOM     23  C   UNL A   1     -25.586   0.353  30.848  0.00  0.00    +0.096 C 
ATOM     24  N   UNL A   1     -25.092   0.421  32.134  0.00  0.00    -0.151 NA
ENDBRANCH  22  23
BRANCH  22  25
ATOM     25  C   UNL A   1     -24.049  -1.467  30.241  0.00  0.00    +0.033 C 
BRANCH  25  26
ATOM     26  C   UNL A   1     -24.610  -2.722  29.767  0.00  0.00    -0.022 A 
ATOM     27  C   UNL A   1     -25.910  -3.015  30.083  0.00  0.00    -0.004 A 
ATOM     28  C   UNL A   1     -26.444  -4.319  29.718  0.00  0.00    -0.000 A 
ATOM     29  C   UNL A   1     -25.566  -5.293  29.101  0.00  0.00    -0.000 A 
ATOM     30  C   UNL A   1     -23.837  -3.669  29.090  0.00  0.00    -0.004 A 
ATOM     31  C   UNL A   1     -24.336  -4.900  28.705  0.00  0.00    -0.000 A 
ENDBRANCH  25  26
ENDBRANCH  22  25
ENDBRANCH  11  22
TORSDOF 7
ENDMDL
ENDMDL
