REMARK  Name = No_2517-gen_results/8p0m/2024-11-26-14-13-15/
REMARK  7 active torsions:
REMARK  status: ('A' for Active; 'I' for Inactive)
REMARK    1  A    between atoms: C_4  and  C_16
REMARK    2  A    between atoms: C_11  and  C_13
REMARK    3  A    between atoms: C_13  and  C_14
REMARK    4  A    between atoms: C_13  and  C_15
REMARK    5  A    between atoms: C_14  and  C_26
REMARK    6  A    between atoms: C_16  and  C_18
REMARK    7  A    between atoms: C_18  and  C_19
REMARK                            x       y       z     vdW  Elec       q    Type
REMARK                         _______ _______ _______ _____ _____    ______ ____
ROOT
ATOM      1  C   UNL A   1     -28.016  -0.814  28.878  0.00  0.00    +0.049 A 
ATOM      2  C   UNL A   1     -28.469  -0.785  29.829  0.00  0.00    +0.249 C 
ATOM      3  C   UNL A   1     -28.182   0.428  28.113  0.00  0.00    -0.000 A 
ATOM      4  C   UNL A   1     -27.450   0.643  26.850  0.00  0.00    -0.022 A 
ATOM      5  C   UNL A   1     -26.181   0.036  26.715  0.00  0.00    -0.005 A 
ATOM      6  C   UNL A   1     -25.780  -0.933  27.694  0.00  0.00    -0.004 A 
ATOM      7  C   UNL A   1     -26.557  -1.213  28.741  0.00  0.00    -0.016 A 
ATOM      8  N   UNL A   1     -28.302  -1.978  30.661  0.00  0.00    -0.274 N 
ATOM      9  O   UNL A   1     -29.187   0.018  30.472  0.00  0.00    -0.270 OA
ATOM     10  C   UNL A   1     -27.573  -3.061  30.221  0.00  0.00    +0.099 C 
ATOM     11  C   UNL A   1     -26.343  -2.664  29.505  0.00  0.00    +0.048 C 
ATOM     12  C   UNL A   1     -29.254  -2.411  31.794  0.00  0.00    +0.115 C 
ENDROOT
BRANCH   4  13
ATOM     13  C   UNL A   1     -27.756   1.677  25.916  0.00  0.00    +0.027 C 
ATOM     14  C   UNL A   1     -27.184   2.874  26.238  0.00  0.00    +0.005 C 
BRANCH  13  15
ATOM     15  C   UNL A   1     -28.625   1.454  24.862  0.00  0.00    +0.031 C 
BRANCH  15  16
ATOM     16  C   UNL A   1     -29.955   1.332  25.150  0.00  0.00    -0.022 A 
ATOM     17  C   UNL A   1     -30.825   0.855  24.192  0.00  0.00    -0.004 A 
ATOM     18  C   UNL A   1     -32.173   0.629  24.461  0.00  0.00    -0.000 A 
ATOM     19  C   UNL A   1     -32.673   0.833  25.743  0.00  0.00    -0.000 A 
ATOM     20  C   UNL A   1     -31.805   1.233  26.763  0.00  0.00    -0.000 A 
ATOM     21  C   UNL A   1     -30.506   1.452  26.491  0.00  0.00    -0.004 A 
ENDBRANCH  15  16
ENDBRANCH  13  15
ENDBRANCH   4  13
BRANCH  11  22
ATOM     22  C   UNL A   1     -25.091  -3.281  29.405  0.00  0.00    +0.053 C 
BRANCH  22  23
ATOM     23  C   UNL A   1     -25.130  -4.612  28.920  0.00  0.00    +0.096 C 
ATOM     24  N   UNL A   1     -23.854  -5.109  28.757  0.00  0.00    -0.151 NA
ENDBRANCH  22  23
BRANCH  22  25
ATOM     25  C   UNL A   1     -23.930  -2.711  29.916  0.00  0.00    +0.033 C 
BRANCH  25  26
ATOM     26  C   UNL A   1     -23.885  -1.357  30.443  0.00  0.00    -0.022 A 
ATOM     27  C   UNL A   1     -24.023  -1.178  31.794  0.00  0.00    -0.004 A 
ATOM     28  C   UNL A   1     -24.101   0.177  32.318  0.00  0.00    -0.000 A 
ATOM     29  C   UNL A   1     -24.106   1.292  31.392  0.00  0.00    -0.000 A 
ATOM     30  C   UNL A   1     -23.805  -0.240  29.607  0.00  0.00    -0.004 A 
ATOM     31  C   UNL A   1     -23.843   1.055  30.089  0.00  0.00    -0.000 A 
ENDBRANCH  25  26
ENDBRANCH  22  25
ENDBRANCH  11  22
TORSDOF 7
