MODEL 2518
MODEL 1
REMARK VINA RESULT:    -6.994      0.000      0.000
REMARK INTER + INTRA:          -8.643
REMARK INTER:                  -8.220
REMARK INTRA:                  -0.423
REMARK UNBOUND:                -0.423
REMARK  Name = No_2518-gen_results/8p0m/2024-11-26-14-13-15/
REMARK  3 active torsions:
REMARK  status: ('A' for Active; 'I' for Inactive)
REMARK    1  A    between atoms: C_2  and  C_7
REMARK    2  A    between atoms: C_7  and  C_8
REMARK    3  A    between atoms: C_7  and  C_14
REMARK                            x       y       z     vdW  Elec       q    Type
REMARK                         _______ _______ _______ _____ _____    ______ ____
ROOT
ATOM      1  C   UNL A   1     -24.553  -1.109  29.202  0.00  0.00    +0.123 C 
ENDROOT
BRANCH   1   3
ATOM      2  C   UNL A   1     -23.825  -3.328  28.658  0.00  0.00    -0.004 A 
ATOM      3  C   UNL A   1     -24.665  -2.590  29.117  0.00  0.00    -0.010 A 
ATOM      4  C   UNL A   1     -25.851  -3.091  29.643  0.00  0.00    -0.004 A 
ATOM      5  C   UNL A   1     -26.136  -4.502  29.616  0.00  0.00    -0.000 A 
ATOM      6  C   UNL A   1     -25.121  -5.281  29.046  0.00  0.00    -0.000 A 
ATOM      7  C   UNL A   1     -24.025  -4.757  28.546  0.00  0.00    -0.000 A 
ENDBRANCH   1   3
BRANCH   1   8
ATOM      8  C   UNL A   1     -24.095  -0.309  28.401  0.00  0.00    -0.010 A 
ATOM      9  C   UNL A   1     -23.401   0.505  28.213  0.00  0.00    -0.004 A 
ATOM     10  C   UNL A   1     -23.113   1.433  27.049  0.00  0.00    -0.000 A 
ATOM     11  C   UNL A   1     -23.989   1.271  26.019  0.00  0.00    -0.000 A 
ATOM     12  C   UNL A   1     -25.028   0.375  26.097  0.00  0.00    -0.000 A 
ATOM     13  C   UNL A   1     -25.159  -0.373  27.212  0.00  0.00    -0.004 A 
ENDBRANCH   1   8
BRANCH   1  14
ATOM     14  C   UNL A   1     -25.165  -0.511  30.401  0.00  0.00    +0.249 C 
ATOM     15  O   UNL A   1     -26.234  -0.068  30.402  0.00  0.00    -0.273 OA
ATOM     16  N   UNL A   1     -24.380  -0.461  31.520  0.00  0.00    -0.203 NA
ATOM     17  C   UNL A   1     -23.080  -1.035  31.646  0.00  0.00    +0.139 C 
ENDBRANCH   1  14
TORSDOF 3
ENDMDL
ENDMDL
