REMARK  Name = No_2519-gen_results/8p0m/2024-11-26-14-13-15/
REMARK  3 active torsions:
REMARK  status: ('A' for Active; 'I' for Inactive)
REMARK    1  A    between atoms: C_1  and  C_2
REMARK    2  A    between atoms: C_1  and  C_6
REMARK    3  A    between atoms: C_3  and  C_4
REMARK                            x       y       z     vdW  Elec       q    Type
REMARK                         _______ _______ _______ _____ _____    ______ ____
ROOT
ATOM      1  C   UNL A   1     -27.064  -0.119  28.608  0.00  0.00    -0.026 C 
ATOM      2  C   UNL A   1     -27.001   0.691  27.491  0.00  0.00    -0.005 C 
ENDROOT
BRANCH   2   3
ATOM      3  C   UNL A   1     -28.137   0.736  26.635  0.00  0.00    -0.000 C 
ATOM      4  C   UNL A   1     -28.144   1.432  25.488  0.00  0.00    -0.000 C 
ENDBRANCH   2   3
BRANCH   1   5
ATOM      5  C   UNL A   1     -28.016  -0.814  28.878  0.00  0.00    +0.026 C 
BRANCH   5   6
ATOM      6  C   UNL A   1     -29.262  -0.596  28.226  0.00  0.00    +0.005 C 
ATOM      7  C   UNL A   1     -30.398  -1.276  28.640  0.00  0.00    +0.000 C 
ENDBRANCH   5   6
ENDBRANCH   1   5
TORSDOF 3
