MODEL 2519
MODEL 1
REMARK VINA RESULT:    -3.804      0.000      0.000
REMARK INTER + INTRA:          -4.641
REMARK INTER:                  -4.471
REMARK INTRA:                  -0.170
REMARK UNBOUND:                -0.170
REMARK  Name = No_2519-gen_results/8p0m/2024-11-26-14-13-15/
REMARK  3 active torsions:
REMARK  status: ('A' for Active; 'I' for Inactive)
REMARK    1  A    between atoms: C_1  and  C_2
REMARK    2  A    between atoms: C_1  and  C_6
REMARK    3  A    between atoms: C_3  and  C_4
REMARK                            x       y       z     vdW  Elec       q    Type
REMARK                         _______ _______ _______ _____ _____    ______ ____
ROOT
ATOM      1  C   UNL A   1     -23.994  -1.799  29.748  0.00  0.00    -0.026 C 
ATOM      2  C   UNL A   1     -24.689  -2.990  29.670  0.00  0.00    -0.005 C 
ENDROOT
BRANCH   2   3
ATOM      3  C   UNL A   1     -24.226  -3.974  28.751  0.00  0.00    -0.000 C 
ATOM      4  C   UNL A   1     -24.579  -5.265  28.843  0.00  0.00    -0.000 C 
ENDBRANCH   2   3
BRANCH   1   5
ATOM      5  C   UNL A   1     -23.037  -1.536  29.057  0.00  0.00    +0.026 C 
BRANCH   5   6
ATOM      6  C   UNL A   1     -22.115  -0.535  29.472  0.00  0.00    +0.005 C 
ATOM      7  C   UNL A   1     -21.098  -0.123  28.623  0.00  0.00    +0.000 C 
ENDBRANCH   5   6
ENDBRANCH   1   5
TORSDOF 3
ENDMDL
ENDMDL
