MODEL 251
MODEL 1
REMARK VINA RESULT:    -5.881      0.000      0.000
REMARK INTER + INTRA:          -6.936
REMARK INTER:                  -6.569
REMARK INTRA:                  -0.367
REMARK UNBOUND:                -0.367
REMARK  Name = No_251-gen_results/8p0m/2024-11-26-14-13-15/
REMARK  2 active torsions:
REMARK  status: ('A' for Active; 'I' for Inactive)
REMARK    1  A    between atoms: C_1  and  C_2
REMARK    2  A    between atoms: C_5  and  C_11
REMARK                            x       y       z     vdW  Elec       q    Type
REMARK                         _______ _______ _______ _____ _____    ______ ____
ROOT
ATOM      1  C   UNL A   1     -23.156   0.905  27.508  0.00  0.00    +0.071 A 
ATOM      2  C   UNL A   1     -24.373   0.314  27.235  0.00  0.00    +0.004 A 
ATOM      3  C   UNL A   1     -24.854  -0.933  27.800  0.00  0.00    +0.004 A 
ATOM      4  C   UNL A   1     -24.025  -1.634  28.703  0.00  0.00    +0.071 A 
ATOM      5  C   UNL A   1     -22.757  -1.021  29.007  0.00  0.00    +0.004 A 
ATOM      6  C   UNL A   1     -22.338   0.181  28.487  0.00  0.00    +0.004 A 
ENDROOT
BRANCH   1   7
ATOM      7  C   UNL A   1     -22.819   1.980  27.066  0.00  0.00    +0.419 C 
ATOM      8  F   UNL A   1     -23.525   3.003  27.385  0.00  0.00    -0.166 F 
ATOM      9  F   UNL A   1     -22.750   2.029  25.720  0.00  0.00    -0.166 F 
ATOM     10  F   UNL A   1     -21.539   2.288  27.528  0.00  0.00    -0.166 F 
ENDBRANCH   1   7
BRANCH   4  11
ATOM     11  C   UNL A   1     -24.380  -2.901  29.263  0.00  0.00    +0.419 C 
ATOM     12  F   UNL A   1     -24.278  -3.009  30.474  0.00  0.00    -0.166 F 
ATOM     13  F   UNL A   1     -23.671  -3.972  28.687  0.00  0.00    -0.166 F 
ATOM     14  F   UNL A   1     -25.686  -3.207  28.989  0.00  0.00    -0.166 F 
ENDBRANCH   4  11
TORSDOF 2
ENDMDL
ENDMDL
