MODEL 2520
MODEL 1
REMARK VINA RESULT:    -5.023      0.000      0.000
REMARK INTER + INTRA:          -5.704
REMARK INTER:                  -5.610
REMARK INTRA:                  -0.093
REMARK UNBOUND:                -0.093
REMARK  Name = No_2520-gen_results/8p0m/2024-11-26-14-13-15/
REMARK  2 active torsions:
REMARK  status: ('A' for Active; 'I' for Inactive)
REMARK    1  A    between atoms: C_2  and  C_7
REMARK    2  A    between atoms: C_8  and  C_9
REMARK                            x       y       z     vdW  Elec       q    Type
REMARK                         _______ _______ _______ _____ _____    ______ ____
ROOT
ATOM      1  C   UNL A   1     -23.838  -3.416  28.684  0.00  0.00    +0.000 A 
ATOM      2  C   UNL A   1     -24.604  -2.600  29.141  0.00  0.00    +0.000 A 
ATOM      3  C   UNL A   1     -25.822  -2.986  29.691  0.00  0.00    +0.000 A 
ATOM      4  C   UNL A   1     -26.229  -4.368  29.690  0.00  0.00    +0.000 A 
ATOM      5  C   UNL A   1     -25.294  -5.241  29.121  0.00  0.00    +0.000 A 
ATOM      6  C   UNL A   1     -24.163  -4.823  28.599  0.00  0.00    +0.000 A 
ENDROOT
BRANCH   2   7
ATOM      7  C   UNL A   1     -24.361  -1.133  29.200  0.00  0.00    +0.000 C 
ATOM      8  C   UNL A   1     -24.548  -0.382  28.533  0.00  0.00    +0.000 C 
BRANCH   8   9
ATOM      9  C   UNL A   1     -25.263  -0.756  27.232  0.00  0.00    +0.000 C 
ATOM     10  C   UNL A   1     -25.312  -0.015  26.172  0.00  0.00    +0.000 C 
ENDBRANCH   8   9
ENDBRANCH   2   7
TORSDOF 2
ENDMDL
ENDMDL
