MODEL 2521
MODEL 1
REMARK VINA RESULT:    -8.167      0.000      0.000
REMARK INTER + INTRA:         -12.103
REMARK INTER:                 -10.554
REMARK INTRA:                  -1.549
REMARK UNBOUND:                -1.549
REMARK  Name = No_2521-gen_results/8p0m/2024-11-26-14-13-15/
REMARK  5 active torsions:
REMARK  status: ('A' for Active; 'I' for Inactive)
REMARK    1  A    between atoms: C_2  and  C_3
REMARK    2  A    between atoms: N_4  and  C_6
REMARK    3  A    between atoms: C_9  and  C_20
REMARK    4  A    between atoms: C_14  and  C_16
REMARK    5  A    between atoms: C_31  and  C_32
REMARK                            x       y       z     vdW  Elec       q    Type
REMARK                         _______ _______ _______ _____ _____    ______ ____
ROOT
ATOM      1  C   UNL A   1     -28.712   1.551  25.528  0.00  0.00    +0.055 A 
ATOM      2  C   UNL A   1     -28.220   0.633  26.276  0.00  0.00    +0.005 A 
ATOM      3  C   UNL A   1     -28.266   2.941  25.771  0.00  0.00    +0.005 A 
ATOM      4  C   UNL A   1     -27.610   3.270  27.042  0.00  0.00    +0.000 A 
ATOM      5  C   UNL A   1     -27.520   0.955  27.565  0.00  0.00    -0.000 A 
ATOM      6  C   UNL A   1     -27.204   2.225  27.886  0.00  0.00    -0.000 A 
ENDROOT
BRANCH   5   7
ATOM      7  C   UNL A   1     -27.140  -0.175  28.486  0.00  0.00    -0.004 A 
ATOM      8  C   UNL A   1     -27.820  -0.542  29.293  0.00  0.00    -0.000 A 
ATOM      9  C   UNL A   1     -25.816  -0.727  28.134  0.00  0.00    -0.021 A 
ATOM     10  C   UNL A   1     -24.890  -0.261  27.490  0.00  0.00    +0.040 C 
ATOM     11  C   UNL A   1     -25.499  -1.829  29.110  0.00  0.00    -0.004 A 
ATOM     12  C   UNL A   1     -24.224  -2.476  29.046  0.00  0.00    -0.001 C 
ATOM     13  C   UNL A   1     -24.165  -3.737  29.011  0.00  0.00    -0.000 C 
ATOM     14  C   UNL A   1     -27.604  -1.663  30.205  0.00  0.00    -0.000 A 
ATOM     15  C   UNL A   1     -26.421  -2.362  30.024  0.00  0.00    -0.000 A 
ATOM     16  C   UNL A   1     -23.078  -1.670  28.954  0.00  0.00    -0.004 C 
ATOM     17  C   UNL A   1     -23.040  -0.405  28.761  0.00  0.00    -0.017 C 
ATOM     18  C   UNL A   1     -23.728   0.310  27.821  0.00  0.00    +0.104 C 
BRANCH  18  19
ATOM     19  C   UNL A   1     -23.273   1.538  27.256  0.00  0.00    +0.245 C 
ATOM     20  O   UNL A   1     -22.387   2.152  27.764  0.00  0.00    -0.273 OA
ATOM     21  N   UNL A   1     -23.874   2.086  26.183  0.00  0.00    -0.203 NA
ATOM     22  C   UNL A   1     -23.471   3.344  25.617  0.00  0.00    +0.139 C 
ENDBRANCH  18  19
ENDBRANCH   5   7
BRANCH   1  24
ATOM     23  O   UNL A   1     -28.722   1.132  23.401  0.00  0.00    -0.268 OA
ATOM     24  C   UNL A   1     -29.377   1.346  24.318  0.00  0.00    +0.269 C 
ATOM     25  N   UNL A   1     -30.725   1.420  24.280  0.00  0.00    -0.175 NA
BRANCH  25  26
ATOM     26  C   UNL A   1     -31.428   1.233  23.212  0.00  0.00    +0.080 A 
ATOM     27  C   UNL A   1     -31.940   0.258  22.900  0.00  0.00    +0.050 A 
ATOM     28  C   UNL A   1     -32.846   0.041  21.720  0.00  0.00    +0.008 A 
ATOM     29  C   UNL A   1     -33.050   1.170  20.904  0.00  0.00    +0.007 A 
ATOM     30  C   UNL A   1     -32.409   2.380  21.293  0.00  0.00    +0.081 A 
ATOM     31  C   UNL A   1     -31.597   2.458  22.402  0.00  0.00    +0.024 A 
ATOM     32 BR   UNL A   1     -31.776  -1.373  23.936  0.00  0.00    -0.048 Br
BRANCH  30  33
ATOM     33  C   UNL A   1     -32.676   3.401  20.258  0.00  0.00    +0.388 C 
ATOM     34  O   UNL A   1     -32.707   3.213  19.086  0.00  0.00    -0.241 OA
ATOM     35  O   UNL A   1     -33.062   4.559  20.639  0.00  0.00    -0.241 OA
ENDBRANCH  30  33
ENDBRANCH  25  26
ENDBRANCH   1  24
TORSDOF 5
ENDMDL
ENDMDL
