REMARK  Name = No_2521-gen_results/8p0m/2024-11-26-14-13-15/
REMARK  5 active torsions:
REMARK  status: ('A' for Active; 'I' for Inactive)
REMARK    1  A    between atoms: C_2  and  C_3
REMARK    2  A    between atoms: N_4  and  C_6
REMARK    3  A    between atoms: C_9  and  C_20
REMARK    4  A    between atoms: C_14  and  C_16
REMARK    5  A    between atoms: C_31  and  C_32
REMARK                            x       y       z     vdW  Elec       q    Type
REMARK                         _______ _______ _______ _____ _____    ______ ____
ROOT
ATOM      1  C   UNL A   1     -27.666   0.113  30.035  0.00  0.00    +0.055 A 
ATOM      2  C   UNL A   1     -27.840   1.229  30.642  0.00  0.00    +0.005 A 
ATOM      3  C   UNL A   1     -26.682  -0.831  30.611  0.00  0.00    +0.005 A 
ATOM      4  C   UNL A   1     -25.700  -0.335  31.583  0.00  0.00    +0.000 A 
ATOM      5  C   UNL A   1     -26.859   1.736  31.660  0.00  0.00    -0.000 A 
ATOM      6  C   UNL A   1     -25.869   0.949  32.123  0.00  0.00    -0.000 A 
ENDROOT
BRANCH   5   7
ATOM      7  C   UNL A   1     -27.023   3.137  32.189  0.00  0.00    -0.004 A 
ATOM      8  C   UNL A   1     -27.796   3.399  32.953  0.00  0.00    -0.000 A 
ATOM      9  C   UNL A   1     -26.018   4.048  31.607  0.00  0.00    -0.021 A 
ATOM     10  C   UNL A   1     -25.333   3.961  30.601  0.00  0.00    +0.040 C 
ATOM     11  C   UNL A   1     -26.263   5.426  32.163  0.00  0.00    -0.004 A 
ATOM     12  C   UNL A   1     -25.477   6.523  31.689  0.00  0.00    -0.001 C 
ATOM     13  C   UNL A   1     -24.908   7.288  32.517  0.00  0.00    -0.000 C 
ATOM     14  C   UNL A   1     -28.017   4.694  33.594  0.00  0.00    -0.000 A 
ATOM     15  C   UNL A   1     -27.145   5.704  33.219  0.00  0.00    -0.000 A 
ATOM     16  C   UNL A   1     -25.312   6.667  30.302  0.00  0.00    -0.004 C 
ATOM     17  C   UNL A   1     -25.657   5.832  29.395  0.00  0.00    -0.017 C 
ATOM     18  C   UNL A   1     -25.418   4.486  29.375  0.00  0.00    +0.104 C 
BRANCH  18  19
ATOM     19  C   UNL A   1     -25.284   3.713  28.184  0.00  0.00    +0.245 C 
ATOM     20  O   UNL A   1     -24.597   2.739  28.163  0.00  0.00    -0.273 OA
ATOM     21  N   UNL A   1     -25.858   4.094  27.027  0.00  0.00    -0.203 NA
ATOM     22  C   UNL A   1     -25.705   3.364  25.799  0.00  0.00    +0.139 C 
ENDBRANCH  18  19
ENDBRANCH   5   7
BRANCH   1  24
ATOM     23  O   UNL A   1     -28.123  -1.335  28.487  0.00  0.00    -0.268 OA
ATOM     24  C   UNL A   1     -28.521  -0.436  29.078  0.00  0.00    +0.269 C 
ATOM     25  N   UNL A   1     -29.742   0.110  28.887  0.00  0.00    -0.175 NA
BRANCH  25  26
ATOM     26  C   UNL A   1     -30.606  -0.335  28.036  0.00  0.00    +0.080 A 
ATOM     27  C   UNL A   1     -30.657  -0.075  26.923  0.00  0.00    +0.050 A 
ATOM     28  C   UNL A   1     -31.584  -0.655  25.892  0.00  0.00    +0.008 A 
ATOM     29  C   UNL A   1     -32.506  -1.602  26.378  0.00  0.00    +0.007 A 
ATOM     30  C   UNL A   1     -32.442  -1.921  27.764  0.00  0.00    +0.081 A 
ATOM     31  C   UNL A   1     -31.544  -1.320  28.616  0.00  0.00    +0.024 A 
ATOM     32 BR   UNL A   1     -29.437   1.190  26.101  0.00  0.00    -0.048 Br
BRANCH  30  33
ATOM     33  C   UNL A   1     -33.547  -2.852  28.077  0.00  0.00    +0.388 C 
ATOM     34  O   UNL A   1     -33.779  -3.326  29.140  0.00  0.00    -0.241 OA
ATOM     35  O   UNL A   1     -34.434  -3.058  27.178  0.00  0.00    -0.241 OA
ENDBRANCH  30  33
ENDBRANCH  25  26
ENDBRANCH   1  24
TORSDOF 5
