MODEL 2522
MODEL 1
REMARK VINA RESULT:    -4.747      0.000      0.000
REMARK INTER + INTRA:          -5.102
REMARK INTER:                  -5.024
REMARK INTRA:                  -0.077
REMARK UNBOUND:                -0.077
REMARK  Name = No_2522-gen_results/8p0m/2024-11-26-14-13-15/
REMARK  1 active torsions:
REMARK  status: ('A' for Active; 'I' for Inactive)
REMARK    1  A    between atoms: C_4  and  C_5
REMARK                            x       y       z     vdW  Elec       q    Type
REMARK                         _______ _______ _______ _____ _____    ______ ____
ROOT
ATOM      1  C   UNL A   1     -26.141  -4.909  29.652  0.00  0.00    +0.000 A 
ATOM      2  C   UNL A   1     -26.474  -3.756  29.800  0.00  0.00    +0.001 A 
ATOM      3  C   UNL A   1     -25.628  -2.683  29.599  0.00  0.00    +0.008 A 
ATOM      4  C   UNL A   1     -24.303  -2.953  29.156  0.00  0.00    +0.043 A 
ATOM      5  C   UNL A   1     -24.953  -5.207  28.901  0.00  0.00    +0.001 A 
ATOM      6  C   UNL A   1     -24.002  -4.230  28.824  0.00  0.00    +0.008 A 
ENDROOT
BRANCH   4   7
ATOM      7  C   UNL A   1     -23.385  -1.986  29.006  0.00  0.00    -0.051 C 
ATOM      8  C   UNL A   1     -23.104  -0.980  28.888  0.00  0.00    -0.009 C 
ENDBRANCH   4   7
TORSDOF 1
ENDMDL
ENDMDL
