MODEL 2523
MODEL 1
REMARK VINA RESULT:    -4.985      0.000      0.000
REMARK INTER + INTRA:          -4.985
REMARK INTER:                  -4.985
REMARK INTRA:                   0.000
REMARK UNBOUND:                 0.000
REMARK  Name = No_2523-gen_results/8p0m/2024-11-26-14-13-15/
REMARK  0 active torsions:
REMARK  status: ('A' for Active; 'I' for Inactive)
REMARK                            x       y       z     vdW  Elec       q    Type
REMARK                         _______ _______ _______ _____ _____    ______ ____
ROOT
ATOM      1  C   UNL A   1     -10.520  -9.303  19.193  0.00  0.00    +0.042 A 
ATOM      2  C   UNL A   1      -9.794  -9.097  20.138  0.00  0.00    +0.003 A 
ATOM      3  C   UNL A   1      -8.476  -9.540  20.141  0.00  0.00    +0.000 A 
ATOM      4  C   UNL A   1      -7.946 -10.297  19.036  0.00  0.00    +0.003 A 
ATOM      5  C   UNL A   1      -8.861 -10.510  17.996  0.00  0.00    +0.042 A 
ATOM      6  C   UNL A   1     -10.102 -10.085  18.050  0.00  0.00    +0.196 A 
ATOM      7  O   UNL A   1     -10.938 -10.367  17.013  0.00  0.00    -0.287 OA
ENDROOT
TORSDOF 0
ENDMDL
ENDMDL
