MODEL 2524
MODEL 1
REMARK VINA RESULT:    -5.359      0.000      0.000
REMARK INTER + INTRA:          -5.703
REMARK INTER:                  -5.672
REMARK INTRA:                  -0.031
REMARK UNBOUND:                -0.031
REMARK  Name = No_2524-gen_results/8p0m/2024-11-26-14-13-15/
REMARK  1 active torsions:
REMARK  status: ('A' for Active; 'I' for Inactive)
REMARK    1  A    between atoms: C_5  and  C_8
REMARK                            x       y       z     vdW  Elec       q    Type
REMARK                         _______ _______ _______ _____ _____    ______ ____
ROOT
ATOM      1  C   UNL A   1      -7.063  -7.885  18.872  0.00  0.00    +0.003 A 
ATOM      2  C   UNL A   1      -6.818  -8.435  19.920  0.00  0.00    +0.030 A 
ATOM      3  C   UNL A   1      -7.452  -9.572  20.391  0.00  0.00    +0.140 A 
ATOM      4  C   UNL A   1      -8.451 -10.151  19.554  0.00  0.00    +0.036 A 
ATOM      5  C   UNL A   1      -8.593  -9.616  18.331  0.00  0.00    +0.082 A 
ATOM      6  C   UNL A   1      -7.918  -8.568  17.955  0.00  0.00    +0.007 A 
ATOM      7  F   UNL A   1      -7.232 -10.115  21.596  0.00  0.00    -0.204 F 
ENDROOT
BRANCH   5   8
ATOM      8  C   UNL A   1      -9.620 -10.265  17.483  0.00  0.00    +0.388 C 
ATOM      9  O   UNL A   1      -9.426 -11.295  17.025  0.00  0.00    -0.241 OA
ATOM     10  O   UNL A   1     -10.836  -9.808  17.494  0.00  0.00    -0.241 OA
ENDBRANCH   5   8
TORSDOF 1
ENDMDL
ENDMDL
