MODEL 2525
MODEL 1
REMARK VINA RESULT:    -5.304      0.000      0.000
REMARK INTER + INTRA:          -5.681
REMARK INTER:                  -5.614
REMARK INTRA:                  -0.067
REMARK UNBOUND:                -0.067
REMARK  Name = No_2525-gen_results/8p0m/2024-11-26-14-13-15/
REMARK  1 active torsions:
REMARK  status: ('A' for Active; 'I' for Inactive)
REMARK    1  A    between atoms: C_2  and  C_7
REMARK                            x       y       z     vdW  Elec       q    Type
REMARK                         _______ _______ _______ _____ _____    ______ ____
ROOT
ATOM      1  C   UNL A   1     -23.979  -3.736  28.785  0.00  0.00    +0.005 A 
ATOM      2  C   UNL A   1     -24.404  -2.831  29.117  0.00  0.00    +0.055 A 
ATOM      3  C   UNL A   1     -24.760  -4.959  29.028  0.00  0.00    +0.000 A 
ATOM      4  C   UNL A   1     -26.082  -4.881  29.557  0.00  0.00    +0.000 A 
ATOM      5  C   UNL A   1     -25.754  -2.475  29.632  0.00  0.00    +0.005 A 
ATOM      6  C   UNL A   1     -26.506  -3.585  29.880  0.00  0.00    +0.000 A 
ENDROOT
BRANCH   2   7
ATOM      7  C   UNL A   1     -23.597  -1.481  28.854  0.00  0.00    +0.265 C 
ATOM      8  O   UNL A   1     -24.120  -0.749  28.193  0.00  0.00    -0.268 OA
ATOM      9  N   UNL A   1     -22.240  -1.411  29.147  0.00  0.00    -0.200 NA
ATOM     10  C   UNL A   1     -21.545  -0.192  28.846  0.00  0.00    +0.139 C 
ENDBRANCH   2   7
TORSDOF 1
ENDMDL
ENDMDL
