MODEL 2526
MODEL 1
REMARK VINA RESULT:    -7.622      0.000      0.000
REMARK INTER + INTRA:          -9.608
REMARK INTER:                  -8.958
REMARK INTRA:                  -0.650
REMARK UNBOUND:                -0.650
REMARK  Name = No_2526-gen_results/8p0m/2024-11-26-14-13-15/
REMARK  3 active torsions:
REMARK  status: ('A' for Active; 'I' for Inactive)
REMARK    1  A    between atoms: C_2  and  C_3
REMARK    2  A    between atoms: N_4  and  C_10
REMARK    3  A    between atoms: C_8  and  C_16
REMARK                            x       y       z     vdW  Elec       q    Type
REMARK                         _______ _______ _______ _____ _____    ______ ____
ROOT
ATOM      1  C   UNL A   1     -22.418  -0.178  28.779  0.00  0.00    +0.055 A 
ATOM      2  C   UNL A   1     -21.453   0.137  28.717  0.00  0.00    +0.005 A 
ATOM      3  C   UNL A   1     -20.703   1.167  27.855  0.00  0.00    +0.000 A 
ATOM      4  C   UNL A   1     -21.509   1.826  26.975  0.00  0.00    +0.004 A 
ATOM      5  C   UNL A   1     -22.861   1.509  26.914  0.00  0.00    +0.072 A 
ATOM      6  C   UNL A   1     -23.393   0.574  27.632  0.00  0.00    +0.008 A 
ENDROOT
BRANCH   5   7
ATOM      7  C   UNL A   1     -23.672   2.187  25.847  0.00  0.00    +0.419 C 
ATOM      8  F   UNL A   1     -22.925   2.993  25.205  0.00  0.00    -0.166 F 
ATOM      9  F   UNL A   1     -24.689   2.824  26.298  0.00  0.00    -0.166 F 
ATOM     10  F   UNL A   1     -24.073   1.182  25.043  0.00  0.00    -0.166 F 
ENDBRANCH   5   7
BRANCH   1  12
ATOM     11  O   UNL A   1     -23.214  -1.213  30.565  0.00  0.00    -0.268 OA
ATOM     12  C   UNL A   1     -23.155  -1.157  29.416  0.00  0.00    +0.269 C 
ATOM     13  N   UNL A   1     -24.218  -1.711  28.572  0.00  0.00    -0.175 NA
BRANCH  13  14
ATOM     14  C   UNL A   1     -24.769  -2.831  28.929  0.00  0.00    +0.074 A 
ATOM     15  C   UNL A   1     -24.260  -3.880  28.700  0.00  0.00    +0.017 A 
ATOM     16  C   UNL A   1     -24.865  -5.202  29.059  0.00  0.00    +0.001 A 
ATOM     17  C   UNL A   1     -26.128  -5.153  29.671  0.00  0.00    +0.000 A 
ATOM     18  C   UNL A   1     -26.729  -3.937  29.931  0.00  0.00    +0.001 A 
ATOM     19  C   UNL A   1     -26.114  -2.730  29.548  0.00  0.00    +0.017 A 
ENDBRANCH  13  14
ENDBRANCH   1  12
TORSDOF 3
ENDMDL
ENDMDL
