REMARK  Name = No_2526-gen_results/8p0m/2024-11-26-14-13-15/
REMARK  3 active torsions:
REMARK  status: ('A' for Active; 'I' for Inactive)
REMARK    1  A    between atoms: C_2  and  C_3
REMARK    2  A    between atoms: N_4  and  C_10
REMARK    3  A    between atoms: C_8  and  C_16
REMARK                            x       y       z     vdW  Elec       q    Type
REMARK                         _______ _______ _______ _____ _____    ______ ____
ROOT
ATOM      1  C   UNL A   1     -26.380  -0.087  27.939  0.00  0.00    +0.055 A 
ATOM      2  C   UNL A   1     -26.156   0.116  26.968  0.00  0.00    +0.005 A 
ATOM      3  C   UNL A   1     -24.900   0.604  26.225  0.00  0.00    +0.000 A 
ATOM      4  C   UNL A   1     -23.829   0.801  27.044  0.00  0.00    +0.004 A 
ATOM      5  C   UNL A   1     -23.962   0.585  28.411  0.00  0.00    +0.072 A 
ATOM      6  C   UNL A   1     -25.082   0.241  28.959  0.00  0.00    +0.008 A 
ENDROOT
BRANCH   5   7
ATOM      7  C   UNL A   1     -22.781   0.929  29.273  0.00  0.00    +0.419 C 
ATOM      8  F   UNL A   1     -23.192   1.494  30.337  0.00  0.00    -0.166 F 
ATOM      9  F   UNL A   1     -21.925   1.689  28.697  0.00  0.00    -0.166 F 
ATOM     10  F   UNL A   1     -22.222  -0.263  29.564  0.00  0.00    -0.166 F 
ENDBRANCH   5   7
BRANCH   1  12
ATOM     11  O   UNL A   1     -28.123  -1.335  28.487  0.00  0.00    -0.268 OA
ATOM     12  C   UNL A   1     -27.481  -0.404  28.709  0.00  0.00    +0.269 C 
ATOM     13  N   UNL A   1     -27.423   0.175  30.055  0.00  0.00    -0.175 NA
BRANCH  13  14
ATOM     14  C   UNL A   1     -28.514   0.215  30.758  0.00  0.00    +0.074 A 
ATOM     15  C   UNL A   1     -29.193   1.189  30.803  0.00  0.00    +0.017 A 
ATOM     16  C   UNL A   1     -30.442   1.303  31.621  0.00  0.00    +0.001 A 
ATOM     17  C   UNL A   1     -30.774   0.178  32.394  0.00  0.00    +0.000 A 
ATOM     18  C   UNL A   1     -29.983  -0.953  32.353  0.00  0.00    +0.001 A 
ATOM     19  C   UNL A   1     -28.809  -0.986  31.577  0.00  0.00    +0.017 A 
ENDBRANCH  13  14
ENDBRANCH   1  12
TORSDOF 3
