MODEL 2527
MODEL 1
REMARK VINA RESULT:    -4.963      0.000      0.000
REMARK INTER + INTRA:          -4.963
REMARK INTER:                  -4.963
REMARK INTRA:                   0.000
REMARK UNBOUND:                 0.000
REMARK  Name = No_2527-gen_results/8p0m/2024-11-26-14-13-15/
REMARK  0 active torsions:
REMARK  status: ('A' for Active; 'I' for Inactive)
REMARK                            x       y       z     vdW  Elec       q    Type
REMARK                         _______ _______ _______ _____ _____    ______ ____
ROOT
ATOM      1  C   UNL A   1     -24.582  -4.947  28.656  0.00  0.00    +0.271 C 
ATOM      2  C   UNL A   1     -24.815  -3.873  29.159  0.00  0.00    +0.012 C 
ATOM      3  C   UNL A   1     -23.898  -2.846  29.306  0.00  0.00    +0.027 C 
ATOM      4  C   UNL A   1     -24.125  -1.587  29.973  0.00  0.00    +0.004 C 
ATOM      5  C   UNL A   1     -25.399  -1.341  30.540  0.00  0.00    +0.001 C 
ATOM      6  C   UNL A   1     -26.387  -2.354  30.421  0.00  0.00    +0.004 C 
ATOM      7  C   UNL A   1     -26.067  -3.520  29.798  0.00  0.00    +0.027 C 
ATOM      8  F   UNL A   1     -23.515  -4.992  28.121  0.00  0.00    -0.173 F 
ATOM      9  F   UNL A   1     -24.802  -6.030  29.476  0.00  0.00    -0.173 F 
ENDROOT
TORSDOF 0
ENDMDL
ENDMDL
