REMARK  Name = No_2527-gen_results/8p0m/2024-11-26-14-13-15/
REMARK  0 active torsions:
REMARK  status: ('A' for Active; 'I' for Inactive)
REMARK                            x       y       z     vdW  Elec       q    Type
REMARK                         _______ _______ _______ _____ _____    ______ ____
ROOT
ATOM      1  C   UNL A   1     -28.016  -0.814  28.878  0.00  0.00    +0.271 C 
ATOM      2  C   UNL A   1     -27.064  -0.119  28.608  0.00  0.00    +0.012 C 
ATOM      3  C   UNL A   1     -26.972   0.714  27.506  0.00  0.00    +0.027 C 
ATOM      4  C   UNL A   1     -25.821   1.491  27.116  0.00  0.00    +0.004 C 
ATOM      5  C   UNL A   1     -24.656   1.424  27.918  0.00  0.00    +0.001 C 
ATOM      6  C   UNL A   1     -24.685   0.590  29.066  0.00  0.00    +0.004 C 
ATOM      7  C   UNL A   1     -25.810  -0.127  29.334  0.00  0.00    +0.027 C 
ATOM      8  F   UNL A   1     -28.969  -0.588  28.195  0.00  0.00    -0.173 F 
ATOM      9  F   UNL A   1     -27.743  -2.159  28.967  0.00  0.00    -0.173 F 
ENDROOT
TORSDOF 0
