MODEL 2528
MODEL 1
REMARK VINA RESULT:    -5.935      0.000      0.000
REMARK INTER + INTRA:          -7.407
REMARK INTER:                  -6.976
REMARK INTRA:                  -0.431
REMARK UNBOUND:                -0.431
REMARK  Name = No_2528-gen_results/8p0m/2024-11-26-14-13-15/
REMARK  3 active torsions:
REMARK  status: ('A' for Active; 'I' for Inactive)
REMARK    1  A    between atoms: C_1  and  C_3
REMARK    2  A    between atoms: C_2  and  C_9
REMARK    3  A    between atoms: C_10  and  C_11
REMARK                            x       y       z     vdW  Elec       q    Type
REMARK                         _______ _______ _______ _____ _____    ______ ____
ROOT
ATOM      1  C   UNL A   1     -23.116  -1.559  28.901  0.00  0.00    -0.060 C 
ATOM      2  C   UNL A   1     -23.079  -0.506  28.896  0.00  0.00    -0.059 C 
ENDROOT
BRANCH   1   3
ATOM      3  C   UNL A   1     -23.917  -2.678  29.237  0.00  0.00    +0.042 A 
ATOM      4  C   UNL A   1     -23.964  -3.904  28.913  0.00  0.00    +0.008 A 
ATOM      5  C   UNL A   1     -25.013  -4.638  29.005  0.00  0.00    +0.001 A 
ATOM      6  C   UNL A   1     -26.225  -4.334  29.623  0.00  0.00    +0.000 A 
ATOM      7  C   UNL A   1     -26.272  -3.010  30.038  0.00  0.00    +0.001 A 
ATOM      8  C   UNL A   1     -25.211  -2.193  29.793  0.00  0.00    +0.008 A 
ENDBRANCH   1   3
BRANCH   2   9
ATOM      9  C   UNL A   1     -22.106   0.447  28.518  0.00  0.00    +0.050 C 
ATOM     10  C   UNL A   1     -22.232   1.529  27.846  0.00  0.00    +0.009 C 
BRANCH  10  11
ATOM     11  C   UNL A   1     -23.297   1.492  26.838  0.00  0.00    +0.001 C 
ATOM     12  C   UNL A   1     -23.147   2.231  25.716  0.00  0.00    +0.000 C 
ENDBRANCH  10  11
ENDBRANCH   2   9
TORSDOF 3
ENDMDL
ENDMDL
