REMARK  Name = No_2528-gen_results/8p0m/2024-11-26-14-13-15/
REMARK  3 active torsions:
REMARK  status: ('A' for Active; 'I' for Inactive)
REMARK    1  A    between atoms: C_1  and  C_3
REMARK    2  A    between atoms: C_2  and  C_9
REMARK    3  A    between atoms: C_10  and  C_11
REMARK                            x       y       z     vdW  Elec       q    Type
REMARK                         _______ _______ _______ _____ _____    ______ ____
ROOT
ATOM      1  C   UNL A   1     -28.016  -0.814  28.878  0.00  0.00    -0.060 C 
ATOM      2  C   UNL A   1     -28.469  -0.785  29.829  0.00  0.00    -0.059 C 
ENDROOT
BRANCH   1   3
ATOM      3  C   UNL A   1     -27.217  -0.083  27.964  0.00  0.00    +0.042 A 
ATOM      4  C   UNL A   1     -26.509  -0.350  26.946  0.00  0.00    +0.008 A 
ATOM      5  C   UNL A   1     -25.543   0.381  26.523  0.00  0.00    +0.001 A 
ATOM      6  C   UNL A   1     -25.185   1.662  26.942  0.00  0.00    +0.000 A 
ATOM      7  C   UNL A   1     -25.921   2.064  28.048  0.00  0.00    +0.001 A 
ATOM      8  C   UNL A   1     -26.836   1.214  28.590  0.00  0.00    +0.008 A 
ENDBRANCH   1   3
BRANCH   2   9
ATOM      9  C   UNL A   1     -29.291  -1.673  30.559  0.00  0.00    +0.050 C 
ATOM     10  C   UNL A   1     -30.411  -1.464  31.144  0.00  0.00    +0.009 C 
BRANCH  10  11
ATOM     11  C   UNL A   1     -30.572  -0.104  31.669  0.00  0.00    +0.001 C 
ATOM     12  C   UNL A   1     -29.734   0.860  31.225  0.00  0.00    +0.000 C 
ENDBRANCH  10  11
ENDBRANCH   2   9
TORSDOF 3
