MODEL 2529
MODEL 1
REMARK VINA RESULT:    -6.097      0.000      0.000
REMARK INTER + INTRA:          -6.679
REMARK INTER:                  -6.453
REMARK INTRA:                  -0.225
REMARK UNBOUND:                -0.225
REMARK  Name = No_2529-gen_results/8p0m/2024-11-26-14-13-15/
REMARK  1 active torsions:
REMARK  status: ('A' for Active; 'I' for Inactive)
REMARK    1  A    between atoms: C_4  and  C_7
REMARK                            x       y       z     vdW  Elec       q    Type
REMARK                         _______ _______ _______ _____ _____    ______ ____
ROOT
ATOM      1  C   UNL A   1     -26.531  -3.907  29.837  0.00  0.00    +0.000 A 
ATOM      2  C   UNL A   1     -26.094  -4.835  29.596  0.00  0.00    +0.000 A 
ATOM      3  C   UNL A   1     -25.688  -2.715  29.658  0.00  0.00    +0.000 A 
ATOM      4  C   UNL A   1     -24.401  -2.821  29.055  0.00  0.00    +0.002 A 
ATOM      5  C   UNL A   1     -23.989  -4.091  28.736  0.00  0.00    +0.000 A 
ATOM      6  C   UNL A   1     -24.794  -5.154  28.946  0.00  0.00    +0.000 A 
ENDROOT
BRANCH   4   7
ATOM      7  C   UNL A   1     -23.572  -1.646  28.859  0.00  0.00    +0.019 A 
ATOM      8  C   UNL A   1     -23.857  -0.616  28.229  0.00  0.00    +0.003 A 
ATOM      9  C   UNL A   1     -23.066   0.618  28.227  0.00  0.00    +0.021 A 
ATOM     10  C   UNL A   1     -22.959  -1.019  30.119  0.00  0.00    +0.099 A 
ATOM     11  N   UNL A   1     -23.182  -0.184  30.654  0.00  0.00    -0.242 NA
ATOM     12  C   UNL A   1     -23.263   1.084  29.739  0.00  0.00    +0.099 A 
ENDBRANCH   4   7
TORSDOF 1
ENDMDL
ENDMDL
