MODEL 252
MODEL 1
REMARK VINA RESULT:    -4.549      0.000      0.000
REMARK INTER + INTRA:          -4.549
REMARK INTER:                  -4.549
REMARK INTRA:                   0.000
REMARK UNBOUND:                 0.000
REMARK  Name = No_252-gen_results/8p0m/2024-11-26-14-13-15/
REMARK  0 active torsions:
REMARK  status: ('A' for Active; 'I' for Inactive)
REMARK                            x       y       z     vdW  Elec       q    Type
REMARK                         _______ _______ _______ _____ _____    ______ ____
ROOT
ATOM      1  C   UNL A   1     -24.013  -4.319  28.627  0.00  0.00    +0.030 A 
ATOM      2  C   UNL A   1     -24.909  -5.079  28.910  0.00  0.00    +0.140 A 
ATOM      3  C   UNL A   1     -26.042  -4.707  29.560  0.00  0.00    +0.030 A 
ATOM      4  C   UNL A   1     -26.188  -3.356  29.929  0.00  0.00    +0.002 A 
ATOM      5  C   UNL A   1     -24.137  -2.907  28.889  0.00  0.00    +0.002 A 
ATOM      6  C   UNL A   1     -25.242  -2.487  29.565  0.00  0.00    +0.000 A 
ATOM      7  F   UNL A   1     -24.840  -6.396  28.587  0.00  0.00    -0.204 F 
ENDROOT
TORSDOF 0
ENDMDL
ENDMDL
