REMARK  Name = No_253-gen_results/8p0m/2024-11-26-14-13-15/
REMARK  6 active torsions:
REMARK  status: ('A' for Active; 'I' for Inactive)
REMARK    1  A    between atoms: C_2  and  C_3
REMARK    2  A    between atoms: C_7  and  C_17
REMARK    3  A    between atoms: C_12  and  C_13
REMARK    4  A    between atoms: C_20  and  C_21
REMARK    5  A    between atoms: C_29  and  C_31
REMARK    6  A    between atoms: C_31  and  O_33
REMARK                            x       y       z     vdW  Elec       q    Type
REMARK                         _______ _______ _______ _____ _____    ______ ____
ROOT
ATOM      1  C   UNL A   1     -30.903  -0.697  32.319  0.00  0.00    +0.272 C 
ATOM      2  O   UNL A   1     -31.491  -1.336  31.613  0.00  0.00    -0.268 OA
ATOM      3  N   UNL A   1     -31.305  -0.653  33.634  0.00  0.00    -0.137 NA
ATOM      4  C   UNL A   1     -32.548  -1.294  34.053  0.00  0.00    +0.272 C 
ATOM      5  O   UNL A   1     -33.230  -1.750  33.148  0.00  0.00    -0.268 OA
ENDROOT
BRANCH   1   9
ATOM      6  C   UNL A   1     -27.190   0.246  29.527  0.00  0.00    +0.068 A 
ATOM      7  C   UNL A   1     -27.691   0.297  30.829  0.00  0.00    +0.005 A 
ATOM      8  C   UNL A   1     -28.864  -0.281  31.037  0.00  0.00    +0.005 A 
ATOM      9  C   UNL A   1     -29.668   0.013  31.993  0.00  0.00    +0.056 A 
ATOM     10  C   UNL A   1     -29.070   0.807  33.109  0.00  0.00    +0.005 A 
ATOM     11  C   UNL A   1     -27.827   1.419  32.976  0.00  0.00    +0.000 A 
ATOM     12  C   UNL A   1     -27.158   1.268  31.820  0.00  0.00    +0.000 A 
ATOM     13  C   UNL A   1     -25.879   1.869  31.628  0.00  0.00    +0.006 A 
ATOM     14  C   UNL A   1     -25.056   1.689  30.474  0.00  0.00    +0.068 A 
ATOM     15  C   UNL A   1     -25.674   0.926  29.487  0.00  0.00    +0.011 A 
BRANCH   6  17
ATOM     16  O   UNL A   1     -28.123  -1.335  28.487  0.00  0.00    -0.254 OA
ATOM     17  C   UNL A   1     -27.481  -0.404  28.709  0.00  0.00    +0.333 C 
ATOM     18  F   UNL A   1     -26.728  -0.124  27.407  0.00  0.00    -0.159 F 
ENDBRANCH   6  17
BRANCH  14  19
ATOM     19  C   UNL A   1     -23.802   2.273  30.228  0.00  0.00    +0.333 C 
ATOM     20  O   UNL A   1     -23.286   2.903  30.906  0.00  0.00    -0.254 OA
ATOM     21  F   UNL A   1     -23.356   2.201  28.956  0.00  0.00    -0.159 F 
ENDBRANCH  14  19
ENDBRANCH   1   9
BRANCH   4  22
ATOM     22  C   UNL A   1     -32.797  -1.306  35.224  0.00  0.00    +0.056 A 
ATOM     23  C   UNL A   1     -32.012  -0.697  36.157  0.00  0.00    +0.005 A 
ATOM     24  C   UNL A   1     -32.277  -0.689  37.623  0.00  0.00    +0.000 A 
ATOM     25  C   UNL A   1     -33.419  -1.371  37.988  0.00  0.00    +0.000 A 
ATOM     26  C   UNL A   1     -34.240  -1.979  37.130  0.00  0.00    +0.000 A 
ATOM     27  C   UNL A   1     -33.928  -1.955  35.763  0.00  0.00    +0.005 A 
ATOM     28  C   UNL A   1     -33.749  -1.374  39.468  0.00  0.00    +0.000 A 
ATOM     29  C   UNL A   1     -34.562  -1.950  39.970  0.00  0.00    +0.006 A 
ATOM     30  C   UNL A   1     -35.453  -2.806  39.246  0.00  0.00    +0.076 A 
ATOM     31  C   UNL A   1     -35.298  -2.774  37.793  0.00  0.00    +0.006 A 
BRANCH  30  32
ATOM     32  C   UNL A   1     -36.581  -3.566  39.713  0.00  0.00    +0.341 C 
ATOM     33  O   UNL A   1     -36.955  -3.700  40.810  0.00  0.00    -0.245 OA
BRANCH  32  34
ATOM     34  O   UNL A   1     -37.114  -4.385  38.737  0.00  0.00    -0.441 OA
ATOM     35  C   UNL A   1     -38.130  -5.082  39.083  0.00  0.00    +0.256 C 
ENDBRANCH  32  34
ENDBRANCH  30  32
ENDBRANCH   4  22
TORSDOF 6
