REMARK  Name = No_2530-gen_results/8p0m/2024-11-26-14-13-15/
REMARK  0 active torsions:
REMARK  status: ('A' for Active; 'I' for Inactive)
REMARK                            x       y       z     vdW  Elec       q    Type
REMARK                         _______ _______ _______ _____ _____    ______ ____
ROOT
ATOM      1  O   UNL A   1     -28.123  -1.335  28.487  0.00  0.00    -0.249 OA
ATOM      2  C   UNL A   1     -27.481  -0.404  28.709  0.00  0.00    +0.340 C 
ATOM      3  N   UNL A   1     -26.460  -0.110  28.005  0.00  0.00    -0.182 NA
ATOM      4  C   UNL A   1     -25.430   0.879  28.357  0.00  0.00    +0.144 C 
ATOM      5  C   UNL A   1     -25.698   1.587  29.371  0.00  0.00    +0.041 C 
ATOM      6  N   UNL A   1     -27.753   0.241  29.953  0.00  0.00    -0.182 NA
ATOM      7  C   UNL A   1     -24.765   2.645  29.911  0.00  0.00    +0.229 C 
ATOM      8  C   UNL A   1     -26.844   1.290  30.363  0.00  0.00    +0.144 C 
ATOM      9  O   UNL A   1     -25.111   3.288  30.801  0.00  0.00    -0.284 OA
ENDROOT
TORSDOF 0
