MODEL 2530
MODEL 1
REMARK VINA RESULT:    -4.703      0.000      0.000
REMARK INTER + INTRA:          -4.703
REMARK INTER:                  -4.703
REMARK INTRA:                   0.000
REMARK UNBOUND:                 0.000
REMARK  Name = No_2530-gen_results/8p0m/2024-11-26-14-13-15/
REMARK  0 active torsions:
REMARK  status: ('A' for Active; 'I' for Inactive)
REMARK                            x       y       z     vdW  Elec       q    Type
REMARK                         _______ _______ _______ _____ _____    ______ ____
ROOT
ATOM      1  O   UNL A   1     -11.401 -10.474  16.821  0.00  0.00    -0.249 OA
ATOM      2  C   UNL A   1     -10.450 -10.323  17.454  0.00  0.00    +0.340 C 
ATOM      3  N   UNL A   1      -9.498 -11.171  17.447  0.00  0.00    -0.182 NA
ATOM      4  C   UNL A   1      -8.382 -11.218  18.403  0.00  0.00    +0.144 C 
ATOM      5  C   UNL A   1      -8.310 -10.224  19.184  0.00  0.00    +0.041 C 
ATOM      6  N   UNL A   1     -10.519  -9.272  18.417  0.00  0.00    -0.182 NA
ATOM      7  C   UNL A   1      -7.251 -10.087  20.253  0.00  0.00    +0.229 C 
ATOM      8  C   UNL A   1      -9.428  -9.174  19.363  0.00  0.00    +0.144 C 
ATOM      9  O   UNL A   1      -7.218  -9.123  20.880  0.00  0.00    -0.284 OA
ENDROOT
TORSDOF 0
ENDMDL
ENDMDL
