MODEL 2531
MODEL 1
REMARK VINA RESULT:    -5.580      0.000      0.000
REMARK INTER + INTRA:          -6.462
REMARK INTER:                  -6.232
REMARK INTRA:                  -0.230
REMARK UNBOUND:                -0.230
REMARK  Name = No_2531-gen_results/8p0m/2024-11-26-14-13-15/
REMARK  2 active torsions:
REMARK  status: ('A' for Active; 'I' for Inactive)
REMARK    1  A    between atoms: C_2  and  C_3
REMARK    2  A    between atoms: C_3  and  C_4
REMARK                            x       y       z     vdW  Elec       q    Type
REMARK                         _______ _______ _______ _____ _____    ______ ____
ROOT
ATOM      1  C   UNL A   1     -24.017  -4.063  28.674  0.00  0.00    -0.004 A 
ATOM      2  C   UNL A   1     -24.264  -2.948  29.072  0.00  0.00    -0.018 A 
ATOM      3  C   UNL A   1     -24.811  -5.179  29.031  0.00  0.00    -0.000 A 
ATOM      4  C   UNL A   1     -26.066  -4.856  29.560  0.00  0.00    -0.000 A 
ATOM      5  C   UNL A   1     -26.429  -3.582  29.861  0.00  0.00    -0.000 A 
ATOM      6  C   UNL A   1     -25.496  -2.550  29.655  0.00  0.00    -0.004 A 
ENDROOT
BRANCH   2   7
ATOM      7  C   UNL A   1     -23.300  -1.946  29.047  0.00  0.00    +0.052 C 
BRANCH   7   8
ATOM      8  C   UNL A   1     -23.489  -0.554  28.547  0.00  0.00    -0.026 C 
ATOM      9  C   UNL A   1     -22.460   0.446  28.456  0.00  0.00    -0.030 C 
ATOM     10  C   UNL A   1     -21.146  -0.043  28.602  0.00  0.00    +0.030 C 
ENDBRANCH   7   8
ENDBRANCH   2   7
TORSDOF 2
ENDMDL
ENDMDL
