MODEL 2532
MODEL 1
REMARK VINA RESULT:    -5.460      0.000      0.000
REMARK INTER + INTRA:          -5.835
REMARK INTER:                  -5.779
REMARK INTRA:                  -0.056
REMARK UNBOUND:                -0.056
REMARK  Name = No_2532-gen_results/8p0m/2024-11-26-14-13-15/
REMARK  1 active torsions:
REMARK  status: ('A' for Active; 'I' for Inactive)
REMARK    1  A    between atoms: C_3  and  C_7
REMARK                            x       y       z     vdW  Elec       q    Type
REMARK                         _______ _______ _______ _____ _____    ______ ____
ROOT
ATOM      1  C   UNL A   1     -23.892  -3.615  28.664  0.00  0.00    +0.005 A 
ATOM      2  C   UNL A   1     -24.212  -4.608  28.808  0.00  0.00    +0.001 A 
ATOM      3  C   UNL A   1     -24.756  -2.590  29.178  0.00  0.00    +0.054 A 
ATOM      4  C   UNL A   1     -25.975  -2.841  29.664  0.00  0.00    +0.016 A 
ATOM      5  C   UNL A   1     -25.492  -5.110  29.288  0.00  0.00    +0.011 A 
ATOM      6  C   UNL A   1     -26.312  -4.173  29.746  0.00  0.00    +0.058 A 
ATOM      7 CL   UNL A   1     -27.872  -4.547  30.360  0.00  0.00    -0.082 Cl
ENDROOT
BRANCH   3   8
ATOM      8  C   UNL A   1     -24.256  -1.139  29.086  0.00  0.00    +0.249 C 
ATOM      9  N   UNL A   1     -23.605  -0.603  29.822  0.00  0.00    -0.273 N 
ATOM     10  O   UNL A   1     -24.336  -0.611  27.831  0.00  0.00    -0.270 OA
ATOM     11  C   UNL A   1     -23.347  -1.071  31.170  0.00  0.00    +0.115 C 
ATOM     12  C   UNL A   1     -23.123   0.795  29.611  0.00  0.00    +0.115 C 
ENDBRANCH   3   8
TORSDOF 1
ENDMDL
ENDMDL
