REMARK  Name = No_2532-gen_results/8p0m/2024-11-26-14-13-15/
REMARK  1 active torsions:
REMARK  status: ('A' for Active; 'I' for Inactive)
REMARK    1  A    between atoms: C_3  and  C_7
REMARK                            x       y       z     vdW  Elec       q    Type
REMARK                         _______ _______ _______ _____ _____    ______ ____
ROOT
ATOM      1  C   UNL A   1     -28.016  -0.814  28.878  0.00  0.00    +0.005 A 
ATOM      2  C   UNL A   1     -28.469  -0.785  29.829  0.00  0.00    +0.001 A 
ATOM      3  C   UNL A   1     -28.196   0.348  28.055  0.00  0.00    +0.054 A 
ATOM      4  C   UNL A   1     -29.019   1.350  28.378  0.00  0.00    +0.016 A 
ATOM      5  C   UNL A   1     -29.411   0.180  30.378  0.00  0.00    +0.011 A 
ATOM      6  C   UNL A   1     -29.606   1.250  29.619  0.00  0.00    +0.058 A 
ATOM      7 CL   UNL A   1     -30.677   2.512  30.079  0.00  0.00    -0.082 Cl
ENDROOT
BRANCH   3   8
ATOM      8  C   UNL A   1     -27.448   0.380  26.712  0.00  0.00    +0.249 C 
ATOM      9  N   UNL A   1     -27.866   0.672  25.715  0.00  0.00    -0.273 N 
ATOM     10  O   UNL A   1     -26.090   0.393  26.842  0.00  0.00    -0.270 OA
ATOM     11  C   UNL A   1     -29.283   0.788  25.430  0.00  0.00    +0.115 C 
ATOM     12  C   UNL A   1     -27.037   0.728  24.473  0.00  0.00    +0.115 C 
ENDBRANCH   3   8
TORSDOF 1
