REMARK  Name = No_2533-gen_results/8p0m/2024-11-26-14-13-15/
REMARK  0 active torsions:
REMARK  status: ('A' for Active; 'I' for Inactive)
REMARK                            x       y       z     vdW  Elec       q    Type
REMARK                         _______ _______ _______ _____ _____    ______ ____
ROOT
ATOM      1  C   UNL A   1     -28.016  -0.814  28.878  0.00  0.00    +0.006 A 
ATOM      2  C   UNL A   1     -27.064  -0.119  28.608  0.00  0.00    +0.035 A 
ATOM      3  C   UNL A   1     -26.972   0.714  27.506  0.00  0.00    -0.011 A 
ATOM      4  C   UNL A   1     -28.105   0.774  26.642  0.00  0.00    +0.038 A 
ATOM      5  C   UNL A   1     -29.204   0.118  27.048  0.00  0.00    +0.195 A 
ATOM      6  C   UNL A   1     -29.213  -0.609  28.128  0.00  0.00    +0.042 A 
ATOM      7  O   UNL A   1     -30.294   0.234  26.228  0.00  0.00    -0.287 OA
ATOM      8  C   UNL A   1     -25.694   1.445  27.134  0.00  0.00    +0.053 C 
ATOM      9  C   UNL A   1     -24.516   0.871  27.647  0.00  0.00    -0.015 A 
ATOM     10  C   UNL A   1     -23.269   1.604  27.511  0.00  0.00    -0.004 A 
ATOM     11  C   UNL A   1     -22.132   1.219  28.278  0.00  0.00    -0.000 A 
ATOM     12  C   UNL A   1     -22.137   0.055  28.997  0.00  0.00    +0.000 A 
ATOM     13  C   UNL A   1     -23.318  -0.729  29.072  0.00  0.00    +0.003 A 
ATOM     14  C   UNL A   1     -24.485  -0.276  28.465  0.00  0.00    +0.035 A 
ATOM     15  C   UNL A   1     -25.682  -0.604  29.177  0.00  0.00    +0.195 C 
ATOM     16  O   UNL A   1     -25.711  -1.508  30.047  0.00  0.00    -0.287 OA
ENDROOT
TORSDOF 0
