MODEL 2533
MODEL 1
REMARK VINA RESULT:    -6.285      0.000      0.000
REMARK INTER + INTRA:          -6.285
REMARK INTER:                  -6.285
REMARK INTRA:                   0.000
REMARK UNBOUND:                 0.000
REMARK  Name = No_2533-gen_results/8p0m/2024-11-26-14-13-15/
REMARK  0 active torsions:
REMARK  status: ('A' for Active; 'I' for Inactive)
REMARK                            x       y       z     vdW  Elec       q    Type
REMARK                         _______ _______ _______ _____ _____    ______ ____
ROOT
ATOM      1  C   UNL A   1     -30.099 -10.649  32.972  0.00  0.00    +0.006 A 
ATOM      2  C   UNL A   1     -29.959 -11.040  31.836  0.00  0.00    +0.035 A 
ATOM      3  C   UNL A   1     -28.857 -11.729  31.360  0.00  0.00    -0.011 A 
ATOM      4  C   UNL A   1     -27.822 -12.024  32.296  0.00  0.00    +0.038 A 
ATOM      5  C   UNL A   1     -28.071 -11.721  33.580  0.00  0.00    +0.195 A 
ATOM      6  C   UNL A   1     -29.161 -11.110  33.945  0.00  0.00    +0.042 A 
ATOM      7  O   UNL A   1     -27.085 -12.062  34.466  0.00  0.00    -0.287 OA
ATOM      8  C   UNL A   1     -28.667 -12.059  29.890  0.00  0.00    +0.053 C 
ATOM      9  C   UNL A   1     -29.381 -11.231  29.003  0.00  0.00    -0.015 A 
ATOM     10  C   UNL A   1     -29.419 -11.589  27.596  0.00  0.00    -0.004 A 
ATOM     11  C   UNL A   1     -30.370 -10.973  26.732  0.00  0.00    -0.000 A 
ATOM     12  C   UNL A   1     -31.120  -9.913  27.163  0.00  0.00    +0.000 A 
ATOM     13  C   UNL A   1     -31.034  -9.483  28.513  0.00  0.00    +0.003 A 
ATOM     14  C   UNL A   1     -30.234 -10.185  29.409  0.00  0.00    +0.035 A 
ATOM     15  C   UNL A   1     -30.757 -10.247  30.740  0.00  0.00    +0.195 C 
ATOM     16  O   UNL A   1     -31.643  -9.454  31.143  0.00  0.00    -0.287 OA
ENDROOT
TORSDOF 0
ENDMDL
ENDMDL
