REMARK  Name = No_2534-gen_results/8p0m/2024-11-26-14-13-15/
REMARK  3 active torsions:
REMARK  status: ('A' for Active; 'I' for Inactive)
REMARK    1  A    between atoms: C_4  and  C_15
REMARK    2  A    between atoms: C_5  and  C_11
REMARK    3  A    between atoms: C_15  and  N_16
REMARK                            x       y       z     vdW  Elec       q    Type
REMARK                         _______ _______ _______ _____ _____    ______ ____
ROOT
ATOM      1  C   UNL A   1     -28.016  -0.814  28.878  0.00  0.00    +0.000 A 
ATOM      2  C   UNL A   1     -27.064  -0.119  28.608  0.00  0.00    +0.000 A 
ATOM      3  C   UNL A   1     -26.876   1.133  28.913  0.00  0.00    +0.005 A 
ATOM      4  C   UNL A   1     -25.688   1.952  28.567  0.00  0.00    +0.063 A 
ATOM      5  C   UNL A   1     -24.639   1.283  27.875  0.00  0.00    +0.060 A 
ATOM      6  C   UNL A   1     -24.807  -0.051  27.604  0.00  0.00    +0.005 A 
ATOM      7  C   UNL A   1     -25.902  -0.767  27.951  0.00  0.00    +0.000 A 
ATOM      8  C   UNL A   1     -28.639  -0.512  30.240  0.00  0.00    +0.000 A 
ATOM      9  C   UNL A   1     -28.873   0.822  30.484  0.00  0.00    +0.000 A 
ATOM     10  C   UNL A   1     -27.687   1.664  30.065  0.00  0.00    +0.000 A 
ENDROOT
BRANCH   5  11
ATOM     11  C   UNL A   1     -23.474   1.974  27.366  0.00  0.00    +0.265 C 
ATOM     12  O   UNL A   1     -23.410   2.765  26.530  0.00  0.00    -0.268 OA
ATOM     13  N   UNL A   1     -22.231   1.697  28.114  0.00  0.00    -0.200 NA
ATOM     14  C   UNL A   1     -22.054   0.804  29.116  0.00  0.00    +0.139 C 
ENDBRANCH   5  11
BRANCH   4  15
ATOM     15  C   UNL A   1     -25.527   3.392  28.897  0.00  0.00    +0.307 C 
ATOM     16  O   UNL A   1     -25.895   4.206  27.992  0.00  0.00    -0.265 OA
BRANCH  15  17
ATOM     17  N   UNL A   1     -25.204   3.838  30.049  0.00  0.00    +0.043 NA
ATOM     18  O   UNL A   1     -24.909   3.018  31.120  0.00  0.00    -0.153 OA
ENDBRANCH  15  17
ENDBRANCH   4  15
TORSDOF 3
