MODEL 2534
MODEL 1
REMARK VINA RESULT:    -6.214      0.000      0.000
REMARK INTER + INTRA:          -7.631
REMARK INTER:                  -7.304
REMARK INTRA:                  -0.327
REMARK UNBOUND:                -0.327
REMARK  Name = No_2534-gen_results/8p0m/2024-11-26-14-13-15/
REMARK  3 active torsions:
REMARK  status: ('A' for Active; 'I' for Inactive)
REMARK    1  A    between atoms: C_4  and  C_15
REMARK    2  A    between atoms: C_5  and  C_11
REMARK    3  A    between atoms: C_15  and  N_16
REMARK                            x       y       z     vdW  Elec       q    Type
REMARK                         _______ _______ _______ _____ _____    ______ ____
ROOT
ATOM      1  C   UNL A   1     -24.464   1.123  25.501  0.00  0.00    +0.000 A 
ATOM      2  C   UNL A   1     -24.482   0.464  26.515  0.00  0.00    +0.000 A 
ATOM      3  C   UNL A   1     -23.539   0.341  27.405  0.00  0.00    +0.005 A 
ATOM      4  C   UNL A   1     -23.602  -0.476  28.643  0.00  0.00    +0.063 A 
ATOM      5  C   UNL A   1     -24.831  -1.148  28.894  0.00  0.00    +0.060 A 
ATOM      6  C   UNL A   1     -25.848  -0.973  27.990  0.00  0.00    +0.005 A 
ATOM      7  C   UNL A   1     -25.755  -0.206  26.879  0.00  0.00    +0.000 A 
ATOM      8  C   UNL A   1     -23.694   2.437  25.628  0.00  0.00    +0.000 A 
ATOM      9  C   UNL A   1     -22.450   2.322  26.206  0.00  0.00    +0.000 A 
ATOM     10  C   UNL A   1     -22.502   1.431  27.428  0.00  0.00    +0.000 A 
ENDROOT
BRANCH   5  11
ATOM     11  C   UNL A   1     -25.005  -2.074  29.993  0.00  0.00    +0.265 C 
ATOM     12  O   UNL A   1     -25.469  -1.886  31.031  0.00  0.00    -0.268 OA
ATOM     13  N   UNL A   1     -24.636  -3.468  29.673  0.00  0.00    -0.200 NA
ATOM     14  C   UNL A   1     -24.063  -3.929  28.537  0.00  0.00    +0.139 C 
ENDBRANCH   5  11
BRANCH   4  15
ATOM     15  C   UNL A   1     -22.489  -0.625  29.616  0.00  0.00    +0.307 C 
ATOM     16  O   UNL A   1     -21.455  -1.224  29.178  0.00  0.00    -0.265 OA
BRANCH  15  17
ATOM     17  N   UNL A   1     -22.453  -0.070  30.765  0.00  0.00    +0.043 NA
ATOM     18  O   UNL A   1     -23.298   0.959  31.132  0.00  0.00    -0.153 OA
ENDBRANCH  15  17
ENDBRANCH   4  15
TORSDOF 3
ENDMDL
ENDMDL
