MODEL 2535
MODEL 1
REMARK VINA RESULT:    -5.456      0.000      0.000
REMARK INTER + INTRA:          -6.733
REMARK INTER:                  -6.413
REMARK INTRA:                  -0.320
REMARK UNBOUND:                -0.320
REMARK  Name = No_2535-gen_results/8p0m/2024-11-26-14-13-15/
REMARK  3 active torsions:
REMARK  status: ('A' for Active; 'I' for Inactive)
REMARK    1  A    between atoms: C_4  and  C_7
REMARK    2  A    between atoms: C_7  and  C_8
REMARK    3  A    between atoms: C_9  and  C_10
REMARK                            x       y       z     vdW  Elec       q    Type
REMARK                         _______ _______ _______ _____ _____    ______ ____
ROOT
ATOM      1  C   UNL A   1     -26.331  -4.253  29.699  0.00  0.00    -0.000 A 
ATOM      2  C   UNL A   1     -25.628  -4.991  29.429  0.00  0.00    -0.000 A 
ATOM      3  C   UNL A   1     -25.911  -2.852  29.537  0.00  0.00    -0.004 A 
ATOM      4  C   UNL A   1     -24.670  -2.535  28.914  0.00  0.00    -0.018 A 
ATOM      5  C   UNL A   1     -23.884  -3.602  28.560  0.00  0.00    -0.004 A 
ATOM      6  C   UNL A   1     -24.308  -4.869  28.754  0.00  0.00    -0.000 A 
ENDROOT
BRANCH   4   7
ATOM      7  C   UNL A   1     -24.250  -1.169  28.731  0.00  0.00    +0.052 C 
BRANCH   7   8
ATOM      8  C   UNL A   1     -24.958  -0.446  27.748  0.00  0.00    -0.026 C 
ATOM      9  C   UNL A   1     -24.397   0.347  26.846  0.00  0.00    -0.030 C 
BRANCH   9  10
ATOM     10  C   UNL A   1     -25.006   0.882  25.712  0.00  0.00    +0.026 C 
ATOM     11  C   UNL A   1     -25.467  -0.169  24.841  0.00  0.00    +0.005 C 
ENDBRANCH   9  10
ENDBRANCH   7   8
ENDBRANCH   4   7
TORSDOF 3
ENDMDL
ENDMDL
