REMARK  Name = No_2536-gen_results/8p0m/2024-11-26-14-13-15/
REMARK  3 active torsions:
REMARK  status: ('A' for Active; 'I' for Inactive)
REMARK    1  A    between atoms: C_2  and  N_14
REMARK    2  A    between atoms: C_3  and  C_4
REMARK    3  A    between atoms: C_4  and  C_8
REMARK                            x       y       z     vdW  Elec       q    Type
REMARK                         _______ _______ _______ _____ _____    ______ ____
ROOT
ATOM      1  C   UNL A   1     -28.016  -0.814  28.878  0.00  0.00    +0.011 A 
ATOM      2  C   UNL A   1     -28.469  -0.785  29.829  0.00  0.00    +0.048 A 
ATOM      3  C   UNL A   1     -26.504  -0.778  28.877  0.00  0.00    -0.017 A 
ATOM      4  C   UNL A   1     -27.918  -0.937  31.182  0.00  0.00    +0.015 A 
ATOM      5  C   UNL A   1     -26.542  -0.940  31.261  0.00  0.00    +0.001 A 
ATOM      6  C   UNL A   1     -25.783  -0.893  30.120  0.00  0.00    -0.004 A 
ENDROOT
BRANCH   2   7
ATOM      7  N   UNL A   1     -29.952  -0.781  29.843  0.00  0.00    -0.307 N 
ATOM      8  C   UNL A   1     -30.596  -0.066  28.985  0.00  0.00    +0.094 C 
ATOM      9  C   UNL A   1     -32.006  -0.302  28.824  0.00  0.00    +0.057 C 
ATOM     10  C   UNL A   1     -30.740  -1.639  30.666  0.00  0.00    +0.094 C 
ATOM     11  C   UNL A   1     -32.054  -1.815  30.503  0.00  0.00    +0.057 C 
ATOM     12  C   UNL A   1     -32.702  -1.075  29.618  0.00  0.00    +0.164 C 
ATOM     13  F   UNL A   1     -34.000  -1.221  29.460  0.00  0.00    -0.237 F 
ENDBRANCH   2   7
BRANCH   3  14
ATOM     14  C   UNL A   1     -25.654  -0.660  27.719  0.00  0.00    +0.053 C 
BRANCH  14  15
ATOM     15  C   UNL A   1     -25.926   0.282  26.744  0.00  0.00    -0.018 A 
ATOM     16  C   UNL A   1     -25.023   0.448  25.677  0.00  0.00    -0.004 A 
ATOM     17  C   UNL A   1     -27.093   1.056  26.773  0.00  0.00    -0.004 A 
ATOM     18  C   UNL A   1     -27.381   1.857  25.636  0.00  0.00    -0.000 A 
ATOM     19  C   UNL A   1     -26.512   1.909  24.589  0.00  0.00    -0.000 A 
ATOM     20  C   UNL A   1     -25.371   1.219  24.577  0.00  0.00    -0.000 A 
ENDBRANCH  14  15
ENDBRANCH   3  14
TORSDOF 3
