MODEL 2536
MODEL 1
REMARK VINA RESULT:    -7.939      0.000      0.000
REMARK INTER + INTRA:         -10.086
REMARK INTER:                  -9.332
REMARK INTRA:                  -0.755
REMARK UNBOUND:                -0.755
REMARK  Name = No_2536-gen_results/8p0m/2024-11-26-14-13-15/
REMARK  3 active torsions:
REMARK  status: ('A' for Active; 'I' for Inactive)
REMARK    1  A    between atoms: C_2  and  N_14
REMARK    2  A    between atoms: C_3  and  C_4
REMARK    3  A    between atoms: C_4  and  C_8
REMARK                            x       y       z     vdW  Elec       q    Type
REMARK                         _______ _______ _______ _____ _____    ______ ____
ROOT
ATOM      1  C   UNL A   1     -24.430  -0.139  27.507  0.00  0.00    +0.011 A 
ATOM      2  C   UNL A   1     -24.249   0.662  26.847  0.00  0.00    +0.048 A 
ATOM      3  C   UNL A   1     -23.305  -0.460  28.465  0.00  0.00    -0.017 A 
ATOM      4  C   UNL A   1     -23.195   1.684  26.813  0.00  0.00    +0.015 A 
ATOM      5  C   UNL A   1     -22.144   1.476  27.680  0.00  0.00    +0.001 A 
ATOM      6  C   UNL A   1     -22.168   0.423  28.557  0.00  0.00    -0.004 A 
ENDROOT
BRANCH   2   7
ATOM      7  N   UNL A   1     -25.329   0.962  25.876  0.00  0.00    -0.307 N 
ATOM      8  C   UNL A   1     -25.775   0.027  25.109  0.00  0.00    +0.094 C 
ATOM      9  C   UNL A   1     -27.004   0.258  24.397  0.00  0.00    +0.057 C 
ATOM     10  C   UNL A   1     -26.026   2.206  25.823  0.00  0.00    +0.094 C 
ATOM     11  C   UNL A   1     -27.152   2.392  25.130  0.00  0.00    +0.057 C 
ATOM     12  C   UNL A   1     -27.599   1.423  24.348  0.00  0.00    +0.164 C 
ATOM     13  F   UNL A   1     -28.696   1.597  23.642  0.00  0.00    -0.237 F 
ENDBRANCH   2   7
BRANCH   3  14
ATOM     14  C   UNL A   1     -23.241  -1.587  29.360  0.00  0.00    +0.053 C 
BRANCH  14  15
ATOM     15  C   UNL A   1     -24.234  -2.549  29.346  0.00  0.00    -0.018 A 
ATOM     16  C   UNL A   1     -23.962  -3.811  28.784  0.00  0.00    -0.004 A 
ATOM     17  C   UNL A   1     -25.497  -2.312  29.905  0.00  0.00    -0.004 A 
ATOM     18  C   UNL A   1     -26.386  -3.415  30.016  0.00  0.00    -0.000 A 
ATOM     19  C   UNL A   1     -26.033  -4.639  29.535  0.00  0.00    -0.000 A 
ATOM     20  C   UNL A   1     -24.855  -4.860  28.951  0.00  0.00    -0.000 A 
ENDBRANCH  14  15
ENDBRANCH   3  14
TORSDOF 3
ENDMDL
ENDMDL
