REMARK  Name = No_2537-gen_results/8p0m/2024-11-26-14-13-15/
REMARK  3 active torsions:
REMARK  status: ('A' for Active; 'I' for Inactive)
REMARK    1  A    between atoms: C_1  and  C_2
REMARK    2  A    between atoms: N_8  and  C_10
REMARK    3  A    between atoms: C_14  and  N_17
REMARK                            x       y       z     vdW  Elec       q    Type
REMARK                         _______ _______ _______ _____ _____    ______ ____
ROOT
ATOM      1  C   UNL A   1     -28.016  -0.814  28.878  0.00  0.00    +0.269 C 
ATOM      2  N   UNL A   1     -29.190  -0.181  29.108  0.00  0.00    -0.175 NA
ATOM      3  O   UNL A   1     -27.913  -1.993  29.440  0.00  0.00    -0.268 OA
ENDROOT
BRANCH   1   4
ATOM      4  C   UNL A   1     -27.064  -0.119  28.608  0.00  0.00    +0.055 A 
ATOM      5  C   UNL A   1     -25.792  -0.430  29.076  0.00  0.00    +0.005 A 
ATOM      6  C   UNL A   1     -24.546   0.349  28.823  0.00  0.00    +0.011 A 
ATOM      7  C   UNL A   1     -24.659   1.420  27.888  0.00  0.00    +0.058 A 
ATOM      8  C   UNL A   1     -25.947   1.681  27.379  0.00  0.00    +0.011 A 
ATOM      9  C   UNL A   1     -27.180   1.003  27.761  0.00  0.00    +0.005 A 
ATOM     10 CL   UNL A   1     -23.305   2.305  27.519  0.00  0.00    -0.082 Cl
ENDBRANCH   1   4
BRANCH   2  11
ATOM     11  C   UNL A   1     -30.375  -0.806  29.541  0.00  0.00    +0.074 A 
ATOM     12  C   UNL A   1     -31.472  -0.544  28.795  0.00  0.00    +0.018 A 
ATOM     13  C   UNL A   1     -32.471  -0.269  29.234  0.00  0.00    +0.020 A 
ATOM     14  C   UNL A   1     -32.775  -0.590  30.697  0.00  0.00    +0.081 A 
ATOM     15  C   UNL A   1     -31.696  -0.895  31.477  0.00  0.00    +0.020 A 
ATOM     16  C   UNL A   1     -30.520  -0.893  30.947  0.00  0.00    +0.018 A 
BRANCH  14  17
ATOM     17  N   UNL A   1     -34.012  -0.578  31.321  0.00  0.00    -0.248 NA
ATOM     18  C   UNL A   1     -34.842   0.341  31.048  0.00  0.00    +0.073 C 
ATOM     19  C   UNL A   1     -36.162   0.211  31.747  0.00  0.00    +0.053 C 
ENDBRANCH  14  17
ENDBRANCH   2  11
TORSDOF 3
