MODEL 2537
MODEL 1
REMARK VINA RESULT:    -5.999      0.000      0.000
REMARK INTER + INTRA:          -7.655
REMARK INTER:                  -7.051
REMARK INTRA:                  -0.604
REMARK UNBOUND:                -0.604
REMARK  Name = No_2537-gen_results/8p0m/2024-11-26-14-13-15/
REMARK  3 active torsions:
REMARK  status: ('A' for Active; 'I' for Inactive)
REMARK    1  A    between atoms: C_1  and  C_2
REMARK    2  A    between atoms: N_8  and  C_10
REMARK    3  A    between atoms: C_14  and  N_17
REMARK                            x       y       z     vdW  Elec       q    Type
REMARK                         _______ _______ _______ _____ _____    ______ ____
ROOT
ATOM      1  C   UNL A   1     -24.137  -1.096  29.154  0.00  0.00    +0.269 C 
ATOM      2  N   UNL A   1     -25.341  -1.688  28.980  0.00  0.00    -0.175 NA
ATOM      3  O   UNL A   1     -23.720  -1.061  30.395  0.00  0.00    -0.268 OA
ENDROOT
BRANCH   1   4
ATOM      4  C   UNL A   1     -23.793  -0.298  28.313  0.00  0.00    +0.055 A 
ATOM      5  C   UNL A   1     -24.595  -0.028  27.209  0.00  0.00    +0.005 A 
ATOM      6  C   UNL A   1     -24.281   0.922  26.104  0.00  0.00    +0.011 A 
ATOM      7  C   UNL A   1     -23.122   1.732  26.288  0.00  0.00    +0.058 A 
ATOM      8  C   UNL A   1     -22.355   1.484  27.444  0.00  0.00    +0.011 A 
ATOM      9  C   UNL A   1     -22.599   0.442  28.434  0.00  0.00    +0.005 A 
ATOM     10 CL   UNL A   1     -22.732   2.847  25.123  0.00  0.00    -0.082 Cl
ENDBRANCH   1   4
BRANCH   2  11
ATOM     11  C   UNL A   1     -25.957  -2.555  29.903  0.00  0.00    +0.074 A 
ATOM     12  C   UNL A   1     -25.795  -3.874  29.652  0.00  0.00    +0.018 A 
ATOM     13  C   UNL A   1     -26.635  -4.622  29.691  0.00  0.00    +0.020 A 
ATOM     14  C   UNL A   1     -27.922  -4.285  30.445  0.00  0.00    +0.081 A 
ATOM     15  C   UNL A   1     -28.106  -2.966  30.749  0.00  0.00    +0.020 A 
ATOM     16  C   UNL A   1     -27.210  -2.110  30.391  0.00  0.00    +0.018 A 
BRANCH  14  17
ATOM     17  N   UNL A   1     -28.927  -5.159  30.826  0.00  0.00    -0.248 NA
ATOM     18  C   UNL A   1     -29.238  -5.259  32.051  0.00  0.00    +0.073 C 
ATOM     19  C   UNL A   1     -30.376  -6.196  32.326  0.00  0.00    +0.053 C 
ENDBRANCH  14  17
ENDBRANCH   2  11
TORSDOF 3
ENDMDL
ENDMDL
