REMARK  Name = No_2538-gen_results/8p0m/2024-11-26-14-13-15/
REMARK  2 active torsions:
REMARK  status: ('A' for Active; 'I' for Inactive)
REMARK    1  A    between atoms: C_3  and  C_4
REMARK    2  A    between atoms: C_12  and  O_14
REMARK                            x       y       z     vdW  Elec       q    Type
REMARK                         _______ _______ _______ _____ _____    ______ ____
ROOT
ATOM      1  C   UNL A   1     -24.546   0.349  28.823  0.00  0.00    +0.082 C 
ATOM      2  C   UNL A   1     -23.241   0.022  29.332  0.00  0.00    +0.012 C 
ATOM      3  C   UNL A   1     -22.165   0.794  28.952  0.00  0.00    +0.004 C 
ATOM      4  C   UNL A   1     -22.124   1.748  27.989  0.00  0.00    +0.037 C 
ATOM      5  C   UNL A   1     -24.523   1.378  27.795  0.00  0.00    +0.181 C 
ATOM      6  C   UNL A   1     -23.339   2.042  27.430  0.00  0.00    +0.172 C 
ATOM      7  O   UNL A   1     -25.627   1.585  27.242  0.00  0.00    -0.293 OA
ENDROOT
BRANCH   1  10
ATOM      8  C   UNL A   1     -28.016  -0.814  28.878  0.00  0.00    +0.011 A 
ATOM      9  C   UNL A   1     -27.064  -0.119  28.608  0.00  0.00    -0.003 A 
ATOM     10  C   UNL A   1     -25.792  -0.430  29.076  0.00  0.00    -0.015 A 
ATOM     11  C   UNL A   1     -27.882  -1.899  29.863  0.00  0.00    +0.058 A 
ATOM     12  C   UNL A   1     -26.653  -2.314  30.314  0.00  0.00    +0.011 A 
ATOM     13  C   UNL A   1     -25.515  -1.561  29.979  0.00  0.00    -0.003 A 
ATOM     14 CL   UNL A   1     -29.240  -2.844  30.346  0.00  0.00    -0.082 Cl
ENDBRANCH   1  10
BRANCH   6  15
ATOM     15  O   UNL A   1     -23.449   2.995  26.470  0.00  0.00    -0.346 OA
ATOM     16  C   UNL A   1     -24.655   2.809  25.716  0.00  0.00    +0.175 C 
ENDBRANCH   6  15
TORSDOF 2
