MODEL 2538
MODEL 1
REMARK VINA RESULT:    -6.558      0.000      0.000
REMARK INTER + INTRA:          -7.565
REMARK INTER:                  -7.324
REMARK INTRA:                  -0.241
REMARK UNBOUND:                -0.241
REMARK  Name = No_2538-gen_results/8p0m/2024-11-26-14-13-15/
REMARK  2 active torsions:
REMARK  status: ('A' for Active; 'I' for Inactive)
REMARK    1  A    between atoms: C_3  and  C_4
REMARK    2  A    between atoms: C_12  and  O_14
REMARK                            x       y       z     vdW  Elec       q    Type
REMARK                         _______ _______ _______ _____ _____    ______ ____
ROOT
ATOM      1  C   UNL A   1     -24.722  -2.534  28.797  0.00  0.00    +0.082 C 
ATOM      2  C   UNL A   1     -24.225  -3.872  28.622  0.00  0.00    +0.012 C 
ATOM      3  C   UNL A   1     -25.013  -4.932  29.011  0.00  0.00    +0.004 C 
ATOM      4  C   UNL A   1     -26.163  -4.894  29.729  0.00  0.00    +0.037 C 
ATOM      5  C   UNL A   1     -25.961  -2.474  29.557  0.00  0.00    +0.181 C 
ATOM      6  C   UNL A   1     -26.636  -3.633  29.976  0.00  0.00    +0.172 C 
ATOM      7  O   UNL A   1     -26.343  -1.315  29.838  0.00  0.00    -0.293 OA
ENDROOT
BRANCH   1  10
ATOM      8  C   UNL A   1     -23.637   0.675  27.411  0.00  0.00    +0.011 A 
ATOM      9  C   UNL A   1     -24.328  -0.301  27.586  0.00  0.00    -0.003 A 
ATOM     10  C   UNL A   1     -23.964  -1.284  28.500  0.00  0.00    -0.015 A 
ATOM     11  C   UNL A   1     -22.301   0.753  28.022  0.00  0.00    +0.058 A 
ATOM     12  C   UNL A   1     -21.898  -0.137  28.988  0.00  0.00    +0.011 A 
ATOM     13  C   UNL A   1     -22.701  -1.258  29.257  0.00  0.00    -0.003 A 
ATOM     14 CL   UNL A   1     -21.249   2.083  27.713  0.00  0.00    -0.082 Cl
ENDBRANCH   1  10
BRANCH   6  15
ATOM     15  O   UNL A   1     -27.792  -3.448  30.664  0.00  0.00    -0.346 OA
ATOM     16  C   UNL A   1     -28.491  -4.691  30.812  0.00  0.00    +0.175 C 
ENDBRANCH   6  15
TORSDOF 2
ENDMDL
ENDMDL
