MODEL 2539
MODEL 1
REMARK VINA RESULT:    -4.637      0.000      0.000
REMARK INTER + INTRA:          -4.999
REMARK INTER:                  -4.909
REMARK INTRA:                  -0.090
REMARK UNBOUND:                -0.090
REMARK  Name = No_2539-gen_results/8p0m/2024-11-26-14-13-15/
REMARK  1 active torsions:
REMARK  status: ('A' for Active; 'I' for Inactive)
REMARK    1  A    between atoms: C_3  and  C_7
REMARK                            x       y       z     vdW  Elec       q    Type
REMARK                         _______ _______ _______ _____ _____    ______ ____
ROOT
ATOM      1  C   UNL A   1     -26.041  -3.177  29.683  0.00  0.00    +0.008 A 
ATOM      2  C   UNL A   1     -26.230  -4.214  29.696  0.00  0.00    +0.001 A 
ATOM      3  C   UNL A   1     -24.849  -2.759  29.003  0.00  0.00    +0.043 A 
ATOM      4  C   UNL A   1     -23.929  -3.616  28.549  0.00  0.00    +0.008 A 
ATOM      5  C   UNL A   1     -25.373  -5.317  29.286  0.00  0.00    +0.000 A 
ATOM      6  C   UNL A   1     -24.255  -4.947  28.676  0.00  0.00    +0.001 A 
ENDROOT
BRANCH   3   7
ATOM      7  C   UNL A   1     -24.611  -1.246  28.868  0.00  0.00    -0.051 C 
ATOM      8  C   UNL A   1     -23.207  -0.802  28.928  0.00  0.00    -0.009 C 
ENDBRANCH   3   7
TORSDOF 1
ENDMDL
ENDMDL
