MODEL 253
MODEL 1
REMARK VINA RESULT:    -8.351      0.000      0.000
REMARK INTER + INTRA:         -12.193
REMARK INTER:                 -11.280
REMARK INTRA:                  -0.912
REMARK UNBOUND:                -0.912
REMARK  Name = No_253-gen_results/8p0m/2024-11-26-14-13-15/
REMARK  6 active torsions:
REMARK  status: ('A' for Active; 'I' for Inactive)
REMARK    1  A    between atoms: C_2  and  C_3
REMARK    2  A    between atoms: C_7  and  C_17
REMARK    3  A    between atoms: C_12  and  C_13
REMARK    4  A    between atoms: C_20  and  C_21
REMARK    5  A    between atoms: C_29  and  C_31
REMARK    6  A    between atoms: C_31  and  O_33
REMARK                            x       y       z     vdW  Elec       q    Type
REMARK                         _______ _______ _______ _____ _____    ______ ____
ROOT
ATOM      1  C   UNL A   1     -25.306 -19.979   7.659  0.00  0.00    +0.272 C 
ATOM      2  O   UNL A   1     -26.070 -20.794   7.603  0.00  0.00    -0.268 OA
ATOM      3  N   UNL A   1     -25.753 -18.686   7.806  0.00  0.00    -0.137 NA
ATOM      4  C   UNL A   1     -27.178 -18.380   7.732  0.00  0.00    +0.272 C 
ATOM      5  O   UNL A   1     -27.897 -19.317   7.421  0.00  0.00    -0.268 OA
ENDROOT
BRANCH   1   9
ATOM      6  C   UNL A   1     -20.875 -19.042   6.256  0.00  0.00    +0.068 A 
ATOM      7  C   UNL A   1     -21.717 -19.981   6.854  0.00  0.00    +0.005 A 
ATOM      8  C   UNL A   1     -23.010 -19.697   6.868  0.00  0.00    +0.005 A 
ATOM      9  C   UNL A   1     -23.858 -20.174   7.705  0.00  0.00    +0.056 A 
ATOM     10  C   UNL A   1     -23.396 -21.372   8.469  0.00  0.00    +0.005 A 
ATOM     11  C   UNL A   1     -22.057 -21.752   8.478  0.00  0.00    +0.000 A 
ATOM     12  C   UNL A   1     -21.179 -21.025   7.766  0.00  0.00    +0.000 A 
ATOM     13  C   UNL A   1     -19.795 -21.369   7.735  0.00  0.00    +0.006 A 
ATOM     14  C   UNL A   1     -18.808 -20.714   6.937  0.00  0.00    +0.068 A 
ATOM     15  C   UNL A   1     -19.317 -19.620   6.243  0.00  0.00    +0.011 A 
BRANCH   6  17
ATOM     16  O   UNL A   1     -21.240 -18.008   4.454  0.00  0.00    -0.254 OA
ATOM     17  C   UNL A   1     -21.128 -18.234   5.578  0.00  0.00    +0.333 C 
ATOM     18  F   UNL A   1     -21.278 -16.878   6.270  0.00  0.00    -0.159 F 
ENDBRANCH   6  17
BRANCH  14  19
ATOM     19  C   UNL A   1     -17.433 -20.999   6.886  0.00  0.00    +0.333 C 
ATOM     20  O   UNL A   1     -16.938 -21.699   7.509  0.00  0.00    -0.254 OA
ATOM     21  F   UNL A   1     -16.680 -20.152   6.153  0.00  0.00    -0.159 F 
ENDBRANCH  14  19
ENDBRANCH   1   9
BRANCH   4  22
ATOM     22  C   UNL A   1     -27.516 -17.255   7.964  0.00  0.00    +0.056 A 
ATOM     23  C   UNL A   1     -26.930 -16.169   7.384  0.00  0.00    +0.005 A 
ATOM     24  C   UNL A   1     -27.310 -14.752   7.644  0.00  0.00    +0.000 A 
ATOM     25  C   UNL A   1     -28.338 -14.607   8.551  0.00  0.00    +0.000 A 
ATOM     26  C   UNL A   1     -28.966 -15.623   9.147  0.00  0.00    +0.000 A 
ATOM     27  C   UNL A   1     -28.553 -16.933   8.864  0.00  0.00    +0.005 A 
ATOM     28  C   UNL A   1     -28.782 -13.185   8.835  0.00  0.00    +0.000 A 
ATOM     29  C   UNL A   1     -29.517 -12.856   9.606  0.00  0.00    +0.006 A 
ATOM     30  C   UNL A   1     -30.180 -13.780  10.476  0.00  0.00    +0.076 A 
ATOM     31  C   UNL A   1     -29.916 -15.191  10.197  0.00  0.00    +0.006 A 
BRANCH  30  32
ATOM     32  C   UNL A   1     -31.189 -13.544  11.473  0.00  0.00    +0.341 C 
ATOM     33  O   UNL A   1     -32.329 -13.355  11.313  0.00  0.00    -0.245 OA
BRANCH  32  34
ATOM     34  O   UNL A   1     -30.657 -13.307  12.725  0.00  0.00    -0.441 OA
ATOM     35  C   UNL A   1     -30.527 -12.078  13.056  0.00  0.00    +0.256 C 
ENDBRANCH  32  34
ENDBRANCH  30  32
ENDBRANCH   4  22
TORSDOF 6
ENDMDL
ENDMDL
