REMARK  Name = No_254-gen_results/8p0m/2024-11-26-14-13-15/
REMARK  3 active torsions:
REMARK  status: ('A' for Active; 'I' for Inactive)
REMARK    1  A    between atoms: C_3  and  C_17
REMARK    2  A    between atoms: C_4  and  C_8
REMARK    3  A    between atoms: C_17  and  C_18
REMARK                            x       y       z     vdW  Elec       q    Type
REMARK                         _______ _______ _______ _____ _____    ______ ____
ROOT
ATOM      1  C   UNL A   1     -28.016  -0.814  28.878  0.00  0.00    +0.026 A 
ATOM      2  C   UNL A   1     -28.469  -0.785  29.829  0.00  0.00    +0.140 A 
ATOM      3  C   UNL A   1     -26.504  -0.778  28.877  0.00  0.00    -0.015 A 
ATOM      4  C   UNL A   1     -25.915  -0.658  29.923  0.00  0.00    -0.001 A 
ATOM      5  C   UNL A   1     -27.969  -0.724  31.205  0.00  0.00    +0.030 A 
ATOM      6  C   UNL A   1     -26.585  -0.639  31.206  0.00  0.00    +0.002 A 
ATOM      7  F   UNL A   1     -29.923  -0.869  29.857  0.00  0.00    -0.204 F 
ENDROOT
BRANCH   4   8
ATOM      8  C   UNL A   1     -24.390  -0.586  30.003  0.00  0.00    +0.038 A 
ATOM      9  C   UNL A   1     -23.833   0.814  30.181  0.00  0.00    +0.062 A 
ATOM     10  C   UNL A   1     -22.569   1.024  29.610  0.00  0.00    +0.041 A 
ATOM     11  C   UNL A   1     -21.819   0.059  28.989  0.00  0.00    +0.143 A 
ATOM     12  C   UNL A   1     -22.376  -1.264  28.855  0.00  0.00    +0.059 A 
ATOM     13  C   UNL A   1     -23.657  -1.531  29.297  0.00  0.00    +0.143 A 
ATOM     14  F   UNL A   1     -24.129  -2.669  29.066  0.00  0.00    -0.204 F 
ATOM     15 CL   UNL A   1     -24.647   2.019  31.032  0.00  0.00    -0.082 Cl
ATOM     16  F   UNL A   1     -20.663   0.323  28.624  0.00  0.00    -0.204 F 
ENDBRANCH   4   8
BRANCH   3  17
ATOM     17  C   UNL A   1     -25.795  -0.682  27.525  0.00  0.00    +0.053 C 
BRANCH  17  18
ATOM     18  C   UNL A   1     -26.282   0.291  26.610  0.00  0.00    -0.018 A 
ATOM     19  C   UNL A   1     -25.728   0.381  25.355  0.00  0.00    -0.004 A 
ATOM     20  C   UNL A   1     -27.214   1.262  26.938  0.00  0.00    -0.004 A 
ATOM     21  C   UNL A   1     -27.582   2.248  26.022  0.00  0.00    -0.000 A 
ATOM     22  C   UNL A   1     -27.104   2.156  24.762  0.00  0.00    -0.000 A 
ATOM     23  C   UNL A   1     -26.100   1.215  24.398  0.00  0.00    -0.000 A 
ENDBRANCH  17  18
ENDBRANCH   3  17
TORSDOF 3
