REMARK  Name = No_2540-gen_results/8p0m/2024-11-26-14-13-15/
REMARK  7 active torsions:
REMARK  status: ('A' for Active; 'I' for Inactive)
REMARK    1  A    between atoms: C_4  and  C_8
REMARK    2  A    between atoms: C_8  and  C_9
REMARK    3  A    between atoms: C_9  and  C_10
REMARK    4  A    between atoms: C_9  and  C_18
REMARK    5  A    between atoms: N_11  and  C_12
REMARK    6  A    between atoms: C_14  and  C_22
REMARK    7  A    between atoms: N_24  and  C_25
REMARK                            x       y       z     vdW  Elec       q    Type
REMARK                         _______ _______ _______ _____ _____    ______ ____
ROOT
ATOM      1  C   UNL A   1     -24.165   1.549  30.554  0.00  0.00    +0.084 C 
ATOM      2  N   UNL A   1     -25.216   1.606  31.395  0.00  0.00    -0.248 NA
ENDROOT
BRANCH   2   3
ATOM      3  C   UNL A   1     -25.615   2.875  31.959  0.00  0.00    +0.081 A 
ATOM      4  C   UNL A   1     -25.255   3.916  31.319  0.00  0.00    +0.027 A 
ATOM      5  C   UNL A   1     -25.748   5.207  31.911  0.00  0.00    +0.092 A 
ATOM      6  C   UNL A   1     -26.404   2.912  33.177  0.00  0.00    +0.019 A 
ATOM      7  C   UNL A   1     -26.823   4.099  33.706  0.00  0.00    +0.002 A 
ATOM      8  C   UNL A   1     -26.443   5.307  33.057  0.00  0.00    +0.008 A 
BRANCH   5   9
ATOM      9  C   UNL A   1     -25.278   6.491  31.190  0.00  0.00    +0.415 C 
ATOM     10  N   UNL A   1     -24.514   7.324  31.747  0.00  0.00    +0.216 NA
ATOM     11  N   UNL A   1     -25.597   6.612  29.941  0.00  0.00    -0.029 NA
BRANCH  11  12
ATOM     12  C   UNL A   1     -26.292   5.876  29.134  0.00  0.00    +0.231 C 
ATOM     13  C   UNL A   1     -27.315   5.636  29.111  0.00  0.00    +0.025 C 
ATOM     14  C   UNL A   1     -28.018   4.727  28.169  0.00  0.00    +0.035 C 
ENDBRANCH  11  12
ENDBRANCH   5   9
ENDBRANCH   2   3
BRANCH   1  15
ATOM     15  C   UNL A   1     -23.795   0.526  30.081  0.00  0.00    +0.149 C 
BRANCH  15  16
ATOM     16  C   UNL A   1     -22.489   0.472  29.233  0.00  0.00    +0.370 C 
ATOM     17  O   UNL A   1     -21.655  -0.342  29.386  0.00  0.00    -0.245 OA
ATOM     18  O   UNL A   1     -22.260   1.516  28.435  0.00  0.00    -0.245 OA
ENDBRANCH  15  16
BRANCH  15  19
ATOM     19  C   UNL A   1     -24.362  -0.820  30.139  0.00  0.00    +0.044 C 
BRANCH  19  23
ATOM     20  C   UNL A   1     -28.016  -0.814  28.878  0.00  0.00    +0.018 A 
ATOM     21  C   UNL A   1     -28.469  -0.785  29.829  0.00  0.00    +0.035 A 
ATOM     22  C   UNL A   1     -26.504  -0.778  28.877  0.00  0.00    +0.054 A 
ATOM     23  C   UNL A   1     -25.810  -0.853  30.103  0.00  0.00    -0.011 A 
ATOM     24  C   UNL A   1     -27.991  -0.892  31.226  0.00  0.00    +0.006 A 
ATOM     25  C   UNL A   1     -26.604  -0.868  31.265  0.00  0.00    -0.003 A 
ATOM     26 BR   UNL A   1     -30.462  -0.840  29.838  0.00  0.00    -0.049 Br
ATOM     27 CL   UNL A   1     -25.605  -0.649  27.425  0.00  0.00    -0.083 Cl
ENDBRANCH  19  23
ENDBRANCH  15  19
ENDBRANCH   1  15
TORSDOF 7
