MODEL 2541
MODEL 1
REMARK VINA RESULT:    -6.680      0.000      0.000
REMARK INTER + INTRA:          -9.663
REMARK INTER:                  -8.632
REMARK INTRA:                  -1.031
REMARK UNBOUND:                -1.031
REMARK  Name = No_2541-gen_results/8p0m/2024-11-26-14-13-15/
REMARK  5 active torsions:
REMARK  status: ('A' for Active; 'I' for Inactive)
REMARK    1  A    between atoms: C_3  and  C_7
REMARK    2  A    between atoms: C_4  and  C_20
REMARK    3  A    between atoms: C_6  and  O_13
REMARK    4  A    between atoms: O_13  and  C_14
REMARK    5  A    between atoms: C_14  and  C_15
REMARK                            x       y       z     vdW  Elec       q    Type
REMARK                         _______ _______ _______ _____ _____    ______ ____
ROOT
ATOM      1  C   UNL A   1     -24.737   0.468  26.452  0.00  0.00    +0.037 A 
ATOM      2  C   UNL A   1     -25.025  -0.622  26.888  0.00  0.00    +0.003 A 
ATOM      3  C   UNL A   1     -24.504  -1.142  28.072  0.00  0.00    -0.004 A 
ATOM      4  C   UNL A   1     -23.517  -0.374  28.806  0.00  0.00    -0.019 A 
ATOM      5  C   UNL A   1     -23.199   0.868  28.258  0.00  0.00    +0.033 A 
ATOM      6  C   UNL A   1     -23.733   1.278  27.124  0.00  0.00    +0.139 A 
ENDROOT
BRANCH   3   7
ATOM      7  C   UNL A   1     -24.812  -2.475  28.682  0.00  0.00    -0.000 A 
ATOM      8  C   UNL A   1     -25.934  -2.772  29.308  0.00  0.00    -0.000 A 
ATOM      9  C   UNL A   1     -26.251  -3.916  29.860  0.00  0.00    -0.000 A 
ATOM     10  C   UNL A   1     -25.561  -5.100  29.470  0.00  0.00    -0.000 A 
ATOM     11  C   UNL A   1     -23.981  -3.615  28.343  0.00  0.00    -0.000 A 
ATOM     12  C   UNL A   1     -24.395  -4.902  28.801  0.00  0.00    -0.000 A 
ENDBRANCH   3   7
BRANCH   4  13
ATOM     13  C   UNL A   1     -22.909  -0.827  30.039  0.00  0.00    +0.026 C 
ATOM     14  C   UNL A   1     -23.314  -0.277  31.191  0.00  0.00    +0.005 C 
ENDBRANCH   4  13
BRANCH   6  15
ATOM     15  O   UNL A   1     -23.335   2.489  26.625  0.00  0.00    -0.466 OA
BRANCH  15  16
ATOM     16  C   UNL A   1     -24.222   3.401  26.077  0.00  0.00    +0.290 C 
BRANCH  16  17
ATOM     17  C   UNL A   1     -25.050   4.010  27.062  0.00  0.00    +0.270 C 
ATOM     18  O   UNL A   1     -24.658   4.827  27.823  0.00  0.00    -0.271 OA
ATOM     19  N   UNL A   1     -26.460   4.091  26.683  0.00  0.00    -0.273 N 
ATOM     20  C   UNL A   1     -27.039   3.145  25.767  0.00  0.00    +0.115 C 
ATOM     21  C   UNL A   1     -27.337   4.807  27.566  0.00  0.00    +0.115 C 
ENDBRANCH  16  17
ENDBRANCH  15  16
ENDBRANCH   6  15
TORSDOF 5
ENDMDL
ENDMDL
