REMARK  Name = No_2541-gen_results/8p0m/2024-11-26-14-13-15/
REMARK  5 active torsions:
REMARK  status: ('A' for Active; 'I' for Inactive)
REMARK    1  A    between atoms: C_3  and  C_7
REMARK    2  A    between atoms: C_4  and  C_20
REMARK    3  A    between atoms: C_6  and  O_13
REMARK    4  A    between atoms: O_13  and  C_14
REMARK    5  A    between atoms: C_14  and  C_15
REMARK                            x       y       z     vdW  Elec       q    Type
REMARK                         _______ _______ _______ _____ _____    ______ ____
ROOT
ATOM      1  C   UNL A   1     -28.016  -0.814  28.878  0.00  0.00    +0.037 A 
ATOM      2  C   UNL A   1     -27.064  -0.119  28.608  0.00  0.00    +0.003 A 
ATOM      3  C   UNL A   1     -25.765  -0.390  29.036  0.00  0.00    -0.004 A 
ATOM      4  C   UNL A   1     -25.530  -1.530  29.901  0.00  0.00    -0.019 A 
ATOM      5  C   UNL A   1     -26.658  -2.292  30.203  0.00  0.00    +0.033 A 
ATOM      6  C   UNL A   1     -27.855  -1.956  29.763  0.00  0.00    +0.139 A 
ENDROOT
BRANCH   3   7
ATOM      7  C   UNL A   1     -24.535   0.413  28.743  0.00  0.00    -0.000 A 
ATOM      8  C   UNL A   1     -23.306   0.037  29.039  0.00  0.00    -0.000 A 
ATOM      9  C   UNL A   1     -22.201   0.700  28.809  0.00  0.00    -0.000 A 
ATOM     10  C   UNL A   1     -22.191   1.732  27.826  0.00  0.00    -0.000 A 
ATOM     11  C   UNL A   1     -24.627   1.538  27.832  0.00  0.00    -0.000 A 
ATOM     12  C   UNL A   1     -23.414   2.180  27.439  0.00  0.00    -0.000 A 
ENDBRANCH   3   7
BRANCH   4  13
ATOM     13  C   UNL A   1     -24.223  -1.892  30.407  0.00  0.00    +0.026 C 
ATOM     14  C   UNL A   1     -23.168  -1.153  30.038  0.00  0.00    +0.005 C 
ENDBRANCH   4  13
BRANCH   6  15
ATOM     15  O   UNL A   1     -28.920  -2.728  30.142  0.00  0.00    -0.466 OA
BRANCH  15  16
ATOM     16  C   UNL A   1     -28.773  -4.016  30.631  0.00  0.00    +0.290 C 
BRANCH  16  17
ATOM     17  C   UNL A   1     -29.941  -4.806  30.438  0.00  0.00    +0.270 C 
ATOM     18  O   UNL A   1     -30.532  -4.850  29.414  0.00  0.00    -0.271 OA
ATOM     19  N   UNL A   1     -29.992  -6.003  31.275  0.00  0.00    -0.273 N 
ATOM     20  C   UNL A   1     -29.311  -6.054  32.542  0.00  0.00    +0.115 C 
ATOM     21  C   UNL A   1     -31.075  -6.918  31.048  0.00  0.00    +0.115 C 
ENDBRANCH  16  17
ENDBRANCH  15  16
ENDBRANCH   6  15
TORSDOF 5
