MODEL 2542
MODEL 1
REMARK VINA RESULT:    -8.328      0.000      0.000
REMARK INTER + INTRA:         -10.893
REMARK INTER:                  -9.788
REMARK INTRA:                  -1.105
REMARK UNBOUND:                -1.105
REMARK  Name = No_2542-gen_results/8p0m/2024-11-26-14-13-15/
REMARK  3 active torsions:
REMARK  status: ('A' for Active; 'I' for Inactive)
REMARK    1  A    between atoms: C_4  and  C_11
REMARK    2  A    between atoms: C_12  and  O_17
REMARK    3  A    between atoms: O_17  and  C_18
REMARK                            x       y       z     vdW  Elec       q    Type
REMARK                         _______ _______ _______ _____ _____    ______ ____
ROOT
ATOM      1  C   UNL A   1     -24.423  -0.281  28.567  0.00  0.00    +0.035 A 
ATOM      2  C   UNL A   1     -24.720   0.242  27.433  0.00  0.00    +0.145 A 
ATOM      3  C   UNL A   1     -23.773   1.003  26.723  0.00  0.00    +0.037 A 
ATOM      4  C   UNL A   1     -23.254  -0.043  29.241  0.00  0.00    +0.003 A 
ATOM      5  C   UNL A   1     -22.281   0.789  28.672  0.00  0.00    +0.000 A 
ATOM      6  C   UNL A   1     -22.584   1.397  27.433  0.00  0.00    +0.003 A 
ENDROOT
BRANCH   1  10
ATOM      7  C   UNL A   1     -23.928  -4.535  28.524  0.00  0.00    +0.000 A 
ATOM      8  C   UNL A   1     -24.063  -3.334  28.542  0.00  0.00    +0.000 A 
ATOM      9  C   UNL A   1     -25.157  -2.688  29.117  0.00  0.00    +0.000 A 
ATOM     10  C   UNL A   1     -25.408  -1.235  29.173  0.00  0.00    +0.003 A 
ATOM     11  C   UNL A   1     -26.571  -0.604  29.740  0.00  0.00    +0.000 A 
ATOM     12  C   UNL A   1     -27.410  -1.461  30.460  0.00  0.00    +0.000 A 
ATOM     13  C   UNL A   1     -25.083  -5.367  29.009  0.00  0.00    +0.000 A 
ATOM     14  C   UNL A   1     -26.158  -4.819  29.671  0.00  0.00    +0.000 A 
ATOM     15  C   UNL A   1     -26.284  -3.443  29.726  0.00  0.00    +0.000 A 
ATOM     16  C   UNL A   1     -27.348  -2.837  30.392  0.00  0.00    +0.000 A 
ENDBRANCH   1  10
BRANCH   2  17
ATOM     17  O   UNL A   1     -25.863   0.031  26.714  0.00  0.00    -0.447 OA
BRANCH  17  18
ATOM     18  C   UNL A   1     -26.528   0.882  25.873  0.00  0.00    +0.226 A 
ATOM     19  C   UNL A   1     -26.588   0.433  24.559  0.00  0.00    +0.233 A 
ATOM     20  C   UNL A   1     -27.684   0.711  23.916  0.00  0.00    +0.049 A 
ATOM     21  C   UNL A   1     -28.390   1.742  24.275  0.00  0.00    +0.049 A 
ATOM     22  C   UNL A   1     -28.472   2.141  25.630  0.00  0.00    +0.238 A 
ATOM     23  C   UNL A   1     -27.880   1.206  26.498  0.00  0.00    +0.272 A 
ATOM     24  O   UNL A   1     -26.340  -1.007  24.490  0.00  0.00    -0.283 OA
ATOM     25  O   UNL A   1     -28.704   0.062  26.614  0.00  0.00    -0.280 OA
ATOM     26  O   UNL A   1     -29.785   2.439  26.147  0.00  0.00    -0.283 OA
ENDBRANCH  17  18
ENDBRANCH   2  17
TORSDOF 3
ENDMDL
ENDMDL
