REMARK  Name = No_2543-gen_results/8p0m/2024-11-26-14-13-15/
REMARK  9 active torsions:
REMARK  status: ('A' for Active; 'I' for Inactive)
REMARK    1  A    between atoms: C_1  and  C_8
REMARK    2  A    between atoms: C_3  and  C_17
REMARK    3  A    between atoms: C_5  and  C_14
REMARK    4  A    between atoms: C_9  and  O_20
REMARK    5  A    between atoms: C_17  and  O_19
REMARK    6  A    between atoms: O_19  and  C_26
REMARK    7  A    between atoms: O_20  and  C_21
REMARK    8  A    between atoms: C_21  and  C_22
REMARK    9  A    between atoms: C_26  and  C_27
REMARK                            x       y       z     vdW  Elec       q    Type
REMARK                         _______ _______ _______ _____ _____    ______ ____
ROOT
ATOM      1  C   UNL A   1     -28.016  -0.814  28.878  0.00  0.00    -0.005 C 
ATOM      2  C   UNL A   1     -27.064  -0.119  28.608  0.00  0.00    -0.034 C 
ATOM      3  C   UNL A   1     -26.972   0.714  27.506  0.00  0.00    +0.118 C 
ATOM      4  C   UNL A   1     -25.820   1.491  27.116  0.00  0.00    +0.024 C 
ATOM      5  C   UNL A   1     -24.656   1.424  27.918  0.00  0.00    +0.081 C 
ATOM      6  C   UNL A   1     -24.685   0.590  29.066  0.00  0.00    +0.014 C 
ATOM      7  C   UNL A   1     -25.810  -0.127  29.334  0.00  0.00    +0.023 C 
ENDROOT
BRANCH   1   8
ATOM      8  C   UNL A   1     -28.709  -0.459  30.175  0.00  0.00    +0.036 A 
ATOM      9  C   UNL A   1     -29.841  -0.517  30.336  0.00  0.00    +0.139 A 
ATOM     10  C   UNL A   1     -30.520  -0.143  31.552  0.00  0.00    +0.039 A 
ATOM     11  C   UNL A   1     -29.718   0.259  32.636  0.00  0.00    +0.033 A 
ATOM     12  C   UNL A   1     -28.355   0.257  32.516  0.00  0.00    +0.140 A 
ATOM     13  C   UNL A   1     -27.810  -0.095  31.350  0.00  0.00    +0.033 A 
ATOM     14  F   UNL A   1     -27.597   0.583  33.508  0.00  0.00    -0.204 F 
BRANCH   9  15
ATOM     15  O   UNL A   1     -30.770  -0.828  29.370  0.00  0.00    -0.464 OA
BRANCH  15  16
ATOM     16  C   UNL A   1     -31.642  -0.112  28.918  0.00  0.00    +0.319 C 
BRANCH  16  17
ATOM     17  C   UNL A   1     -32.910  -0.701  28.818  0.00  0.00    +0.408 C 
ATOM     18  O   UNL A   1     -33.124  -1.821  28.954  0.00  0.00    -0.241 OA
ATOM     19  O   UNL A   1     -33.978   0.060  28.517  0.00  0.00    -0.241 OA
ENDBRANCH  16  17
ENDBRANCH  15  16
ENDBRANCH   9  15
ENDBRANCH   1   8
BRANCH   5  20
ATOM     20  C   UNL A   1     -23.442   2.144  27.559  0.00  0.00    +0.260 C 
ATOM     21  N   UNL A   1     -23.367   3.011  26.684  0.00  0.00    -0.088 NA
ATOM     22  O   UNL A   1     -22.364   2.023  28.310  0.00  0.00    -0.272 OA
ENDBRANCH   5  20
BRANCH   3  23
ATOM     23  C   UNL A   1     -28.143   0.901  26.614  0.00  0.00    +0.320 C 
ATOM     24  O   UNL A   1     -29.107   1.458  26.942  0.00  0.00    -0.250 OA
BRANCH  23  25
ATOM     25  O   UNL A   1     -28.157   0.093  25.510  0.00  0.00    -0.448 OA
BRANCH  25  26
ATOM     26  C   UNL A   1     -28.875   0.534  24.462  0.00  0.00    +0.208 C 
BRANCH  26  27
ATOM     27  C   UNL A   1     -28.976   1.849  24.286  0.00  0.00    +0.047 C 
ATOM     28  C   UNL A   1     -29.807   2.611  25.076  0.00  0.00    +0.004 C 
ENDBRANCH  26  27
ENDBRANCH  25  26
ENDBRANCH  23  25
ENDBRANCH   3  23
TORSDOF 9
