MODEL 2543
MODEL 1
REMARK VINA RESULT:    -6.567      0.000      0.000
REMARK INTER + INTRA:         -11.437
REMARK INTER:                 -10.023
REMARK INTRA:                  -1.414
REMARK UNBOUND:                -1.414
REMARK  Name = No_2543-gen_results/8p0m/2024-11-26-14-13-15/
REMARK  9 active torsions:
REMARK  status: ('A' for Active; 'I' for Inactive)
REMARK    1  A    between atoms: C_1  and  C_8
REMARK    2  A    between atoms: C_3  and  C_17
REMARK    3  A    between atoms: C_5  and  C_14
REMARK    4  A    between atoms: C_9  and  O_20
REMARK    5  A    between atoms: C_17  and  O_19
REMARK    6  A    between atoms: O_19  and  C_26
REMARK    7  A    between atoms: O_20  and  C_21
REMARK    8  A    between atoms: C_21  and  C_22
REMARK    9  A    between atoms: C_26  and  C_27
REMARK                            x       y       z     vdW  Elec       q    Type
REMARK                         _______ _______ _______ _____ _____    ______ ____
ROOT
ATOM      1  C   UNL A   1     -25.318  -0.459  27.952  0.00  0.00    -0.005 C 
ATOM      2  C   UNL A   1     -25.163  -0.464  29.151  0.00  0.00    -0.034 C 
ATOM      3  C   UNL A   1     -24.671  -1.528  29.888  0.00  0.00    +0.118 C 
ATOM      4  C   UNL A   1     -24.552  -1.591  31.324  0.00  0.00    +0.024 C 
ATOM      5  C   UNL A   1     -24.963  -0.472  32.087  0.00  0.00    +0.081 C 
ATOM      6  C   UNL A   1     -25.474   0.656  31.392  0.00  0.00    +0.014 C 
ATOM      7  C   UNL A   1     -25.574   0.607  30.036  0.00  0.00    +0.023 C 
ENDROOT
BRANCH   1   8
ATOM      8  C   UNL A   1     -24.466   0.546  27.210  0.00  0.00    +0.036 A 
ATOM      9  C   UNL A   1     -24.830   1.165  26.318  0.00  0.00    +0.139 A 
ATOM     10  C   UNL A   1     -24.018   2.096  25.575  0.00  0.00    +0.039 A 
ATOM     11  C   UNL A   1     -22.702   2.301  26.027  0.00  0.00    +0.033 A 
ATOM     12  C   UNL A   1     -22.253   1.649  27.143  0.00  0.00    +0.140 A 
ATOM     13  C   UNL A   1     -23.069   0.797  27.765  0.00  0.00    +0.033 A 
ATOM     14  F   UNL A   1     -21.063   1.851  27.600  0.00  0.00    -0.204 F 
BRANCH   9  15
ATOM     15  O   UNL A   1     -26.060   1.045  25.713  0.00  0.00    -0.464 OA
BRANCH  15  16
ATOM     16  C   UNL A   1     -26.335   0.427  24.702  0.00  0.00    +0.319 C 
BRANCH  16  17
ATOM     17  C   UNL A   1     -27.660   0.554  24.264  0.00  0.00    +0.408 C 
ATOM     18  O   UNL A   1     -27.998   1.204  23.380  0.00  0.00    -0.241 OA
ATOM     19  O   UNL A   1     -28.644  -0.095  24.913  0.00  0.00    -0.241 OA
ENDBRANCH  16  17
ENDBRANCH  15  16
ENDBRANCH   9  15
ENDBRANCH   1   8
BRANCH   5  20
ATOM     20  C   UNL A   1     -24.915  -0.483  33.542  0.00  0.00    +0.260 C 
ATOM     21  N   UNL A   1     -24.132  -1.156  34.218  0.00  0.00    -0.088 NA
ATOM     22  O   UNL A   1     -25.616   0.401  34.226  0.00  0.00    -0.272 OA
ENDBRANCH   5  20
BRANCH   3  23
ATOM     23  C   UNL A   1     -24.169  -2.742  29.197  0.00  0.00    +0.320 C 
ATOM     24  O   UNL A   1     -23.076  -2.851  28.822  0.00  0.00    -0.250 OA
BRANCH  23  25
ATOM     25  O   UNL A   1     -25.144  -3.580  28.729  0.00  0.00    -0.448 OA
BRANCH  25  26
ATOM     26  C   UNL A   1     -25.656  -4.449  29.619  0.00  0.00    +0.208 C 
BRANCH  26  27
ATOM     27  C   UNL A   1     -26.979  -4.495  29.752  0.00  0.00    +0.047 C 
ATOM     28  C   UNL A   1     -27.660  -3.515  30.438  0.00  0.00    +0.004 C 
ENDBRANCH  26  27
ENDBRANCH  25  26
ENDBRANCH  23  25
ENDBRANCH   3  23
TORSDOF 9
ENDMDL
ENDMDL
