MODEL 2544
MODEL 1
REMARK VINA RESULT:    -4.554      0.000      0.000
REMARK INTER + INTRA:          -4.554
REMARK INTER:                  -4.554
REMARK INTRA:                   0.000
REMARK UNBOUND:                 0.000
REMARK  Name = No_2544-gen_results/8p0m/2024-11-26-14-13-15/
REMARK  0 active torsions:
REMARK  status: ('A' for Active; 'I' for Inactive)
REMARK                            x       y       z     vdW  Elec       q    Type
REMARK                         _______ _______ _______ _____ _____    ______ ____
ROOT
ATOM      1  C   UNL A   1     -10.247  -9.164  19.401  0.00  0.00    +0.002 A 
ATOM      2  C   UNL A   1      -9.361  -9.171  20.224  0.00  0.00    +0.030 A 
ATOM      3  C   UNL A   1      -8.161  -9.861  20.059  0.00  0.00    +0.140 A 
ATOM      4  C   UNL A   1      -7.968 -10.668  18.870  0.00  0.00    +0.030 A 
ATOM      5  C   UNL A   1      -9.048 -10.619  17.959  0.00  0.00    +0.002 A 
ATOM      6  C   UNL A   1     -10.143  -9.944  18.205  0.00  0.00    +0.000 A 
ATOM      7  F   UNL A   1      -7.174  -9.907  20.948  0.00  0.00    -0.204 F 
ENDROOT
TORSDOF 0
ENDMDL
ENDMDL
