REMARK  Name = No_2545-gen_results/8p0m/2024-11-26-14-13-15/
REMARK  5 active torsions:
REMARK  status: ('A' for Active; 'I' for Inactive)
REMARK    1  A    between atoms: C_1  and  C_2
REMARK    2  A    between atoms: C_1  and  N_8
REMARK    3  A    between atoms: C_5  and  C_10
REMARK    4  A    between atoms: C_7  and  C_17
REMARK    5  A    between atoms: C_13  and  C_18
REMARK                            x       y       z     vdW  Elec       q    Type
REMARK                         _______ _______ _______ _____ _____    ______ ____
ROOT
ATOM      1  C   UNL A   1     -28.016  -0.814  28.878  0.00  0.00    +0.100 C 
ENDROOT
BRANCH   1   2
ATOM      2  C   UNL A   1     -27.064  -0.119  28.608  0.00  0.00    +0.001 A 
ATOM      3  C   UNL A   1     -27.001   0.691  27.491  0.00  0.00    -0.002 A 
ATOM      4  C   UNL A   1     -25.855   1.482  27.083  0.00  0.00    +0.006 A 
ATOM      5  C   UNL A   1     -24.690   1.453  27.881  0.00  0.00    +0.080 A 
ATOM      6  C   UNL A   1     -24.738   0.601  29.042  0.00  0.00    +0.014 A 
ATOM      7  C   UNL A   1     -25.823  -0.169  29.389  0.00  0.00    +0.036 A 
BRANCH   7   8
ATOM      8  C   UNL A   1     -25.733  -0.956  30.586  0.00  0.00    -0.050 C 
ATOM      9  P   UNL A   1     -25.896  -1.438  31.508  0.00  0.00    +0.317 P 
ATOM     10  O   UNL A   1     -27.020  -2.283  31.595  0.00  0.00    -0.161 OA
ATOM     11  O   UNL A   1     -26.357  -0.282  32.722  0.00  0.00    -0.161 OA
ENDBRANCH   7   8
BRANCH   5  12
ATOM     12  C   UNL A   1     -23.522   2.214  27.550  0.00  0.00    +0.388 C 
ATOM     13  O   UNL A   1     -23.448   2.803  26.439  0.00  0.00    -0.241 OA
ATOM     14  O   UNL A   1     -22.374   1.996  28.160  0.00  0.00    -0.241 OA
ENDBRANCH   5  12
ENDBRANCH   1   2
BRANCH   1  15
ATOM     15  N   UNL A   1     -29.207  -0.151  29.066  0.00  0.00    -0.269 NA
ATOM     16  C   UNL A   1     -30.232  -0.761  29.696  0.00  0.00    +0.077 C 
ATOM     17  C   UNL A   1     -30.436  -0.717  30.946  0.00  0.00    +0.038 C 
ATOM     18  C   UNL A   1     -29.928   0.375  31.571  0.00  0.00    +0.007 C 
ATOM     19  C   UNL A   1     -29.690   1.466  30.933  0.00  0.00    +0.018 C 
ATOM     20  C   UNL A   1     -29.288   1.250  29.303  0.00  0.00    +0.072 C 
BRANCH  17  21
ATOM     21  C   UNL A   1     -31.082  -1.807  31.697  0.00  0.00    -0.021 A 
ATOM     22  C   UNL A   1     -30.752  -2.999  31.573  0.00  0.00    -0.001 A 
ATOM     23  C   UNL A   1     -31.407  -3.986  32.110  0.00  0.00    +0.042 A 
ATOM     24  C   UNL A   1     -32.560  -1.711  31.648  0.00  0.00    -0.001 A 
ATOM     25  C   UNL A   1     -33.334  -2.640  32.348  0.00  0.00    +0.042 A 
ATOM     26  C   UNL A   1     -32.783  -3.946  32.275  0.00  0.00    +0.196 A 
ATOM     27  O   UNL A   1     -33.445  -4.760  31.618  0.00  0.00    -0.287 OA
ENDBRANCH  17  21
ENDBRANCH   1  15
TORSDOF 5
