MODEL 2545
MODEL 1
REMARK VINA RESULT:    -6.634      0.000      0.000
REMARK INTER + INTRA:         -10.080
REMARK INTER:                  -8.574
REMARK INTRA:                  -1.506
REMARK UNBOUND:                -1.506
REMARK  Name = No_2545-gen_results/8p0m/2024-11-26-14-13-15/
REMARK  5 active torsions:
REMARK  status: ('A' for Active; 'I' for Inactive)
REMARK    1  A    between atoms: C_1  and  C_2
REMARK    2  A    between atoms: C_1  and  N_8
REMARK    3  A    between atoms: C_5  and  C_10
REMARK    4  A    between atoms: C_7  and  C_17
REMARK    5  A    between atoms: C_13  and  C_18
REMARK                            x       y       z     vdW  Elec       q    Type
REMARK                         _______ _______ _______ _____ _____    ______ ____
ROOT
ATOM      1  C   UNL A   1     -23.545   0.461  28.794  0.00  0.00    +0.100 C 
ENDROOT
BRANCH   1   2
ATOM      2  C   UNL A   1     -24.005  -0.637  29.009  0.00  0.00    +0.001 A 
ATOM      3  C   UNL A   1     -23.296  -1.810  28.842  0.00  0.00    -0.002 A 
ATOM      4  C   UNL A   1     -23.825  -3.150  29.011  0.00  0.00    +0.006 A 
ATOM      5  C   UNL A   1     -25.177  -3.305  29.390  0.00  0.00    +0.080 A 
ATOM      6  C   UNL A   1     -25.932  -2.089  29.554  0.00  0.00    +0.014 A 
ATOM      7  C   UNL A   1     -25.419  -0.829  29.352  0.00  0.00    +0.036 A 
BRANCH   7   8
ATOM      8  C   UNL A   1     -26.287   0.293  29.571  0.00  0.00    -0.050 C 
ATOM      9  P   UNL A   1     -27.088   0.937  29.799  0.00  0.00    +0.317 P 
ATOM     10  O   UNL A   1     -27.593   0.885  31.113  0.00  0.00    -0.161 OA
ATOM     11  O   UNL A   1     -28.525   0.437  28.959  0.00  0.00    -0.161 OA
ENDBRANCH   7   8
BRANCH   5  12
ATOM     12  C   UNL A   1     -25.769  -4.594  29.586  0.00  0.00    +0.388 C 
ATOM     13  O   UNL A   1     -25.222  -5.620  29.100  0.00  0.00    -0.241 OA
ATOM     14  O   UNL A   1     -27.046  -4.716  29.889  0.00  0.00    -0.241 OA
ENDBRANCH   5  12
ENDBRANCH   1   2
BRANCH   1  15
ATOM     15  N   UNL A   1     -23.344   0.777  27.470  0.00  0.00    -0.269 NA
ATOM     16  C   UNL A   1     -24.293   0.497  26.553  0.00  0.00    +0.077 C 
ATOM     17  C   UNL A   1     -25.225   1.288  26.218  0.00  0.00    +0.038 C 
ATOM     18  C   UNL A   1     -24.949   2.605  26.396  0.00  0.00    +0.007 C 
ATOM     19  C   UNL A   1     -23.740   3.040  26.441  0.00  0.00    +0.018 C 
ATOM     20  C   UNL A   1     -22.618   1.926  27.046  0.00  0.00    +0.072 C 
BRANCH  17  21
ATOM     21  C   UNL A   1     -26.549   0.830  25.766  0.00  0.00    -0.021 A 
ATOM     22  C   UNL A   1     -26.720   0.200  24.708  0.00  0.00    -0.001 A 
ATOM     23  C   UNL A   1     -27.892  -0.081  24.219  0.00  0.00    +0.042 A 
ATOM     24  C   UNL A   1     -27.565   1.905  25.852  0.00  0.00    -0.001 A 
ATOM     25  C   UNL A   1     -28.891   1.630  25.506  0.00  0.00    +0.042 A 
ATOM     26  C   UNL A   1     -28.973   0.772  24.378  0.00  0.00    +0.196 A 
ATOM     27  O   UNL A   1     -29.424   1.296  23.351  0.00  0.00    -0.287 OA
ENDBRANCH  17  21
ENDBRANCH   1  15
TORSDOF 5
ENDMDL
ENDMDL
