REMARK  Name = No_2546-gen_results/8p0m/2024-11-26-14-13-15/
REMARK  2 active torsions:
REMARK  status: ('A' for Active; 'I' for Inactive)
REMARK    1  A    between atoms: C_3  and  C_7
REMARK    2  A    between atoms: N_8  and  C_10
REMARK                            x       y       z     vdW  Elec       q    Type
REMARK                         _______ _______ _______ _____ _____    ______ ____
ROOT
ATOM      1  C   UNL A   1     -28.016  -0.814  28.878  0.00  0.00    +0.005 A 
ATOM      2  C   UNL A   1     -28.469  -0.785  29.829  0.00  0.00    +0.000 A 
ATOM      3  C   UNL A   1     -27.136   0.236  28.535  0.00  0.00    +0.055 A 
ATOM      4  C   UNL A   1     -26.875   1.282  29.398  0.00  0.00    +0.005 A 
ATOM      5  C   UNL A   1     -28.361   0.199  30.924  0.00  0.00    +0.000 A 
ATOM      6  C   UNL A   1     -27.528   1.223  30.636  0.00  0.00    +0.000 A 
ENDROOT
BRANCH   3   7
ATOM      7  C   UNL A   1     -26.399   0.295  27.228  0.00  0.00    +0.265 C 
ATOM      8  N   UNL A   1     -26.030   1.448  26.758  0.00  0.00    -0.202 NA
ATOM      9  O   UNL A   1     -26.189  -0.724  26.572  0.00  0.00    -0.268 OA
BRANCH   8  10
ATOM     10  C   UNL A   1     -25.210   1.589  25.549  0.00  0.00    +0.116 C 
ATOM     11  C   UNL A   1     -24.555   0.706  25.285  0.00  0.00    +0.025 C 
ENDBRANCH   8  10
ENDBRANCH   3   7
TORSDOF 2
