MODEL 2546
MODEL 1
REMARK VINA RESULT:    -5.484      0.000      0.000
REMARK INTER + INTRA:          -6.291
REMARK INTER:                  -6.125
REMARK INTRA:                  -0.166
REMARK UNBOUND:                -0.166
REMARK  Name = No_2546-gen_results/8p0m/2024-11-26-14-13-15/
REMARK  2 active torsions:
REMARK  status: ('A' for Active; 'I' for Inactive)
REMARK    1  A    between atoms: C_3  and  C_7
REMARK    2  A    between atoms: N_8  and  C_10
REMARK                            x       y       z     vdW  Elec       q    Type
REMARK                         _______ _______ _______ _____ _____    ______ ____
ROOT
ATOM      1  C   UNL A   1     -23.926  -3.949  28.605  0.00  0.00    +0.005 A 
ATOM      2  C   UNL A   1     -24.451  -4.834  28.828  0.00  0.00    +0.000 A 
ATOM      3  C   UNL A   1     -24.534  -2.719  28.942  0.00  0.00    +0.055 A 
ATOM      4  C   UNL A   1     -25.780  -2.659  29.534  0.00  0.00    +0.005 A 
ATOM      5  C   UNL A   1     -25.773  -5.047  29.450  0.00  0.00    +0.000 A 
ATOM      6  C   UNL A   1     -26.391  -3.894  29.788  0.00  0.00    +0.000 A 
ENDROOT
BRANCH   3   7
ATOM      7  C   UNL A   1     -23.878  -1.389  28.711  0.00  0.00    +0.265 C 
ATOM      8  N   UNL A   1     -22.670  -1.192  29.146  0.00  0.00    -0.202 NA
ATOM      9  O   UNL A   1     -24.485  -0.468  28.167  0.00  0.00    -0.268 OA
BRANCH   8  10
ATOM     10  C   UNL A   1     -21.913   0.035  28.867  0.00  0.00    +0.116 C 
ATOM     11  C   UNL A   1     -20.847  -0.106  28.519  0.00  0.00    +0.025 C 
ENDBRANCH   8  10
ENDBRANCH   3   7
TORSDOF 2
ENDMDL
ENDMDL
