REMARK  Name = No_2547-gen_results/8p0m/2024-11-26-14-13-15/
REMARK  3 active torsions:
REMARK  status: ('A' for Active; 'I' for Inactive)
REMARK    1  A    between atoms: C_3  and  C_7
REMARK    2  A    between atoms: N_8  and  C_10
REMARK    3  A    between atoms: C_10  and  C_12
REMARK                            x       y       z     vdW  Elec       q    Type
REMARK                         _______ _______ _______ _____ _____    ______ ____
ROOT
ATOM      1  C   UNL A   1     -27.459   0.493  26.770  0.00  0.00    +0.249 C 
ATOM      2  N   UNL A   1     -27.881   0.664  25.778  0.00  0.00    -0.270 N 
ATOM      3  O   UNL A   1     -26.097   0.285  26.856  0.00  0.00    -0.270 OA
ATOM      4  C   UNL A   1     -27.097   0.677  24.513  0.00  0.00    +0.116 C 
ENDROOT
BRANCH   1   7
ATOM      5  C   UNL A   1     -28.016  -0.814  28.878  0.00  0.00    +0.004 A 
ATOM      6  C   UNL A   1     -28.469  -0.785  29.829  0.00  0.00    +0.000 A 
ATOM      7  C   UNL A   1     -28.182   0.428  28.113  0.00  0.00    +0.054 A 
ATOM      8  C   UNL A   1     -28.984   1.415  28.515  0.00  0.00    +0.004 A 
ATOM      9  C   UNL A   1     -29.380   0.138  30.461  0.00  0.00    +0.000 A 
ATOM     10  C   UNL A   1     -29.541   1.274  29.724  0.00  0.00    +0.000 A 
ENDBRANCH   1   7
BRANCH   2  11
ATOM     11  C   UNL A   1     -29.311   0.902  25.535  0.00  0.00    +0.120 C 
BRANCH  11  12
ATOM     12  C   UNL A   1     -29.945  -0.127  24.684  0.00  0.00    -0.002 A 
ATOM     13  C   UNL A   1     -29.824  -1.383  25.091  0.00  0.00    -0.003 A 
ATOM     14  C   UNL A   1     -30.591  -2.374  24.215  0.00  0.00    -0.000 A 
ATOM     15  C   UNL A   1     -31.483  -1.626  23.325  0.00  0.00    -0.000 A 
ATOM     16  C   UNL A   1     -30.942   0.212  23.806  0.00  0.00    -0.003 A 
ATOM     17  C   UNL A   1     -31.707  -0.347  23.072  0.00  0.00    -0.000 A 
ENDBRANCH  11  12
ENDBRANCH   2  11
TORSDOF 3
