MODEL 2548
MODEL 1
REMARK VINA RESULT:    -5.064      0.000      0.000
REMARK INTER + INTRA:          -5.809
REMARK INTER:                  -5.656
REMARK INTRA:                  -0.152
REMARK UNBOUND:                -0.152
REMARK  Name = No_2548-gen_results/8p0m/2024-11-26-14-13-15/
REMARK  2 active torsions:
REMARK  status: ('A' for Active; 'I' for Inactive)
REMARK    1  A    between atoms: C_1  and  C_2
REMARK    2  A    between atoms: C_1  and  N_8
REMARK                            x       y       z     vdW  Elec       q    Type
REMARK                         _______ _______ _______ _____ _____    ______ ____
ROOT
ATOM      1  C   UNL A   1     -24.699  -2.441  29.233  0.00  0.00    +0.002 A 
ATOM      2  C   UNL A   1     -25.883  -2.907  29.706  0.00  0.00    -0.002 A 
ATOM      3  C   UNL A   1     -26.277  -4.334  29.726  0.00  0.00    -0.000 A 
ATOM      4  C   UNL A   1     -25.340  -5.274  29.183  0.00  0.00    -0.000 A 
ATOM      5  C   UNL A   1     -24.151  -4.741  28.636  0.00  0.00    -0.000 A 
ATOM      6  C   UNL A   1     -23.852  -3.403  28.652  0.00  0.00    -0.002 A 
ENDROOT
BRANCH   1   7
ATOM      7  C   UNL A   1     -24.390  -1.272  29.221  0.00  0.00    +0.151 C 
BRANCH   7   8
ATOM      8  N   UNL A   1     -23.092  -0.886  28.905  0.00  0.00    -0.269 NA
ATOM      9  C   UNL A   1     -22.403  -0.037  29.000  0.00  0.00    +0.068 C 
ATOM     10  C   UNL A   1     -21.005   0.089  28.492  0.00  0.00    +0.053 C 
ENDBRANCH   7   8
ENDBRANCH   1   7
TORSDOF 2
ENDMDL
ENDMDL
