REMARK  Name = No_2549-gen_results/8p0m/2024-11-26-14-13-15/
REMARK  0 active torsions:
REMARK  status: ('A' for Active; 'I' for Inactive)
REMARK                            x       y       z     vdW  Elec       q    Type
REMARK                         _______ _______ _______ _____ _____    ______ ____
ROOT
ATOM      1  C   UNL A   1     -28.016  -0.814  28.878  0.00  0.00    +0.000 A 
ATOM      2  C   UNL A   1     -28.469  -0.785  29.829  0.00  0.00    +0.000 A 
ATOM      3  C   UNL A   1     -27.087   0.290  28.638  0.00  0.00    +0.000 A 
ATOM      4  C   UNL A   1     -26.252   0.411  27.422  0.00  0.00    +0.000 A 
ATOM      5  C   UNL A   1     -28.391   0.104  30.980  0.00  0.00    +0.000 A 
ATOM      6  C   UNL A   1     -27.533   1.167  30.787  0.00  0.00    +0.000 A 
ATOM      7  C   UNL A   1     -26.828   1.256  29.645  0.00  0.00    +0.000 A 
ATOM      8  C   UNL A   1     -25.644   1.665  27.222  0.00  0.00    +0.000 A 
ATOM      9  C   UNL A   1     -25.391   2.560  28.229  0.00  0.00    +0.000 A 
ATOM     10  C   UNL A   1     -26.098   2.444  29.409  0.00  0.00    +0.000 A 
ENDROOT
TORSDOF 0
