MODEL 2549
MODEL 1
REMARK VINA RESULT:    -5.485      0.000      0.000
REMARK INTER + INTRA:          -5.485
REMARK INTER:                  -5.485
REMARK INTRA:                   0.000
REMARK UNBOUND:                 0.000
REMARK  Name = No_2549-gen_results/8p0m/2024-11-26-14-13-15/
REMARK  0 active torsions:
REMARK  status: ('A' for Active; 'I' for Inactive)
REMARK                            x       y       z     vdW  Elec       q    Type
REMARK                         _______ _______ _______ _____ _____    ______ ____
ROOT
ATOM      1  C   UNL A   1     -26.540  -3.950  29.909  0.00  0.00    +0.000 A 
ATOM      2  C   UNL A   1     -26.176  -4.884  29.583  0.00  0.00    +0.000 A 
ATOM      3  C   UNL A   1     -25.613  -2.844  29.670  0.00  0.00    +0.000 A 
ATOM      4  C   UNL A   1     -25.938  -1.426  29.943  0.00  0.00    +0.000 A 
ATOM      5  C   UNL A   1     -24.952  -5.345  28.943  0.00  0.00    +0.000 A 
ATOM      6  C   UNL A   1     -24.045  -4.331  28.712  0.00  0.00    +0.000 A 
ATOM      7  C   UNL A   1     -24.371  -3.063  29.018  0.00  0.00    +0.000 A 
ATOM      8  C   UNL A   1     -24.846  -0.538  29.934  0.00  0.00    +0.000 A 
ATOM      9  C   UNL A   1     -23.671  -0.779  29.271  0.00  0.00    +0.000 A 
ATOM     10  C   UNL A   1     -23.357  -2.080  28.934  0.00  0.00    +0.000 A 
ENDROOT
TORSDOF 0
ENDMDL
ENDMDL
