MODEL 254
MODEL 1
REMARK VINA RESULT:    -8.370      0.000      0.000
REMARK INTER + INTRA:         -11.411
REMARK INTER:                  -9.838
REMARK INTRA:                  -1.573
REMARK UNBOUND:                -1.573
REMARK  Name = No_254-gen_results/8p0m/2024-11-26-14-13-15/
REMARK  3 active torsions:
REMARK  status: ('A' for Active; 'I' for Inactive)
REMARK    1  A    between atoms: C_3  and  C_17
REMARK    2  A    between atoms: C_4  and  C_8
REMARK    3  A    between atoms: C_17  and  C_18
REMARK                            x       y       z     vdW  Elec       q    Type
REMARK                         _______ _______ _______ _____ _____    ______ ____
ROOT
ATOM      1  C   UNL A   1     -25.076   1.169  30.890  0.00  0.00    +0.026 A 
ATOM      2  C   UNL A   1     -24.785   0.937  31.875  0.00  0.00    +0.140 A 
ATOM      3  C   UNL A   1     -25.245  -0.016  29.965  0.00  0.00    -0.015 A 
ATOM      4  C   UNL A   1     -24.987  -1.122  30.370  0.00  0.00    -0.001 A 
ATOM      5  C   UNL A   1     -24.502  -0.306  32.598  0.00  0.00    +0.030 A 
ATOM      6  C   UNL A   1     -24.606  -1.390  31.740  0.00  0.00    +0.002 A 
ATOM      7  F   UNL A   1     -24.664   2.059  32.797  0.00  0.00    -0.204 F 
ENDROOT
BRANCH   4   8
ATOM      8  C   UNL A   1     -25.106  -2.367  29.490  0.00  0.00    +0.038 A 
ATOM      9  C   UNL A   1     -26.261  -3.284  29.847  0.00  0.00    +0.062 A 
ATOM     10  C   UNL A   1     -26.039  -4.644  29.585  0.00  0.00    +0.041 A 
ATOM     11  C   UNL A   1     -24.914  -5.154  28.989  0.00  0.00    +0.143 A 
ATOM     12  C   UNL A   1     -23.846  -4.248  28.649  0.00  0.00    +0.059 A 
ATOM     13  C   UNL A   1     -23.938  -2.907  28.967  0.00  0.00    +0.143 A 
ATOM     14  F   UNL A   1     -22.941  -2.182  28.739  0.00  0.00    -0.204 F 
ATOM     15 CL   UNL A   1     -27.717  -2.715  30.475  0.00  0.00    -0.082 Cl
ATOM     16  F   UNL A   1     -24.870  -6.358  28.695  0.00  0.00    -0.204 F 
ENDBRANCH   4   8
BRANCH   3  17
ATOM     17  C   UNL A   1     -25.535   0.267  28.490  0.00  0.00    +0.053 C 
BRANCH  17  18
ATOM     18  C   UNL A   1     -24.494   0.873  27.734  0.00  0.00    -0.018 A 
ATOM     19  C   UNL A   1     -24.645   1.032  26.377  0.00  0.00    -0.004 A 
ATOM     20  C   UNL A   1     -23.257   1.214  28.257  0.00  0.00    -0.004 A 
ATOM     21  C   UNL A   1     -22.244   1.719  27.442  0.00  0.00    -0.000 A 
ATOM     22  C   UNL A   1     -22.541   1.991  26.152  0.00  0.00    -0.000 A 
ATOM     23  C   UNL A   1     -23.775   1.602  25.559  0.00  0.00    -0.000 A 
ENDBRANCH  17  18
ENDBRANCH   3  17
TORSDOF 3
ENDMDL
ENDMDL
