REMARK  Name = No_255-gen_results/8p0m/2024-11-26-14-13-15/
REMARK  2 active torsions:
REMARK  status: ('A' for Active; 'I' for Inactive)
REMARK    1  A    between atoms: C_1  and  C_7
REMARK    2  A    between atoms: C_5  and  C_10
REMARK                            x       y       z     vdW  Elec       q    Type
REMARK                         _______ _______ _______ _____ _____    ______ ____
ROOT
ATOM      1  C   UNL A   1     -28.016  -0.814  28.878  0.00  0.00    +0.080 A 
ATOM      2  C   UNL A   1     -27.064  -0.119  28.608  0.00  0.00    +0.007 A 
ATOM      3  C   UNL A   1     -27.001   0.691  27.491  0.00  0.00    +0.000 A 
ATOM      4  C   UNL A   1     -28.137   0.736  26.635  0.00  0.00    +0.006 A 
ATOM      5  C   UNL A   1     -29.236   0.076  27.069  0.00  0.00    +0.068 A 
ATOM      6  C   UNL A   1     -29.218  -0.643  28.175  0.00  0.00    +0.012 A 
ENDROOT
BRANCH   1   7
ATOM      7  C   UNL A   1     -28.227  -1.626  30.102  0.00  0.00    +0.388 C 
ATOM      8  O   UNL A   1     -27.244  -2.242  30.471  0.00  0.00    -0.241 OA
ATOM      9  O   UNL A   1     -29.312  -1.791  30.686  0.00  0.00    -0.241 OA
ENDBRANCH   1   7
BRANCH   5  10
ATOM     10  C   UNL A   1     -30.414   0.170  26.166  0.00  0.00    +0.333 C 
ATOM     11  O   UNL A   1     -30.455   0.281  24.979  0.00  0.00    -0.254 OA
ATOM     12  F   UNL A   1     -31.566  -0.142  26.756  0.00  0.00    -0.159 F 
ENDBRANCH   5  10
TORSDOF 2
