REMARK  Name = No_2550-gen_results/8p0m/2024-11-26-14-13-15/
REMARK  8 active torsions:
REMARK  status: ('A' for Active; 'I' for Inactive)
REMARK    1  A    between atoms: C_2  and  C_8
REMARK    2  A    between atoms: C_4  and  O_18
REMARK    3  A    between atoms: C_13  and  C_14
REMARK    4  A    between atoms: O_18  and  C_19
REMARK    5  A    between atoms: C_23  and  C_25
REMARK    6  A    between atoms: C_25  and  C_26
REMARK    7  A    between atoms: C_28  and  C_29
REMARK    8  A    between atoms: C_29  and  C_30
REMARK                            x       y       z     vdW  Elec       q    Type
REMARK                         _______ _______ _______ _____ _____    ______ ____
ROOT
ATOM      1  O   UNL A   1     -28.255   1.527  25.566  0.00  0.00    -0.453 OA
ENDROOT
BRANCH   1   5
ATOM      2  C   UNL A   1     -28.016  -0.814  28.878  0.00  0.00    +0.001 A 
ATOM      3  C   UNL A   1     -27.064  -0.119  28.608  0.00  0.00    +0.003 A 
ATOM      4  C   UNL A   1     -27.001   0.691  27.491  0.00  0.00    +0.038 A 
ATOM      5  C   UNL A   1     -28.137   0.736  26.635  0.00  0.00    +0.156 A 
ATOM      6  C   UNL A   1     -29.236   0.076  27.069  0.00  0.00    +0.092 A 
ATOM      7  C   UNL A   1     -29.218  -0.643  28.175  0.00  0.00    +0.015 A 
ATOM      8 CL   UNL A   1     -30.612   0.165  26.071  0.00  0.00    -0.079 Cl
BRANCH   3   9
ATOM      9  C   UNL A   1     -25.712  -0.216  29.410  0.00  0.00    +0.004 A 
ATOM     10  C   UNL A   1     -25.070   1.008  29.758  0.00  0.00    +0.000 A 
ATOM     11  C   UNL A   1     -24.471   1.167  30.804  0.00  0.00    +0.000 A 
ATOM     12  C   UNL A   1     -24.007   0.001  31.571  0.00  0.00    +0.000 A 
ATOM     13  C   UNL A   1     -24.547  -1.245  31.181  0.00  0.00    +0.005 A 
ATOM     14  C   UNL A   1     -25.454  -1.374  30.142  0.00  0.00    +0.055 A 
BRANCH  14  15
ATOM     15  C   UNL A   1     -25.926  -2.659  29.834  0.00  0.00    +0.265 C 
ATOM     16  O   UNL A   1     -26.915  -3.225  30.294  0.00  0.00    -0.268 OA
ATOM     17  N   UNL A   1     -25.275  -3.290  28.707  0.00  0.00    -0.200 NA
ATOM     18  C   UNL A   1     -23.990  -2.807  28.302  0.00  0.00    +0.139 C 
ENDBRANCH  14  15
ENDBRANCH   3   9
ENDBRANCH   1   5
BRANCH   1  19
ATOM     19  C   UNL A   1     -28.137   2.845  25.488  0.00  0.00    +0.145 A 
ATOM     20  C   UNL A   1     -29.280   3.591  25.132  0.00  0.00    +0.037 A 
ATOM     21  C   UNL A   1     -29.380   4.930  25.614  0.00  0.00    +0.003 A 
ATOM     22  C   UNL A   1     -28.321   5.551  26.274  0.00  0.00    -0.004 A 
ATOM     23  C   UNL A   1     -27.197   4.789  26.618  0.00  0.00    -0.015 A 
ATOM     24  C   UNL A   1     -27.155   3.468  26.332  0.00  0.00    +0.034 A 
BRANCH  23  25
ATOM     25  C   UNL A   1     -26.114   5.396  27.399  0.00  0.00    +0.044 C 
ATOM     26  C   UNL A   1     -24.737   4.807  27.153  0.00  0.00    +0.009 C 
BRANCH  25  27
ATOM     27  C   UNL A   1     -26.183   6.322  28.244  0.00  0.00    -0.026 C 
ATOM     28  C   UNL A   1     -25.510   6.960  28.950  0.00  0.00    -0.026 C 
BRANCH  28  29
ATOM     29  C   UNL A   1     -25.064   7.682  29.853  0.00  0.00    +0.052 C 
BRANCH  29  30
ATOM     30  C   UNL A   1     -25.512   7.613  31.195  0.00  0.00    -0.018 A 
ATOM     31  C   UNL A   1     -26.402   6.681  31.578  0.00  0.00    -0.004 A 
ATOM     32  C   UNL A   1     -26.773   6.546  32.977  0.00  0.00    -0.000 A 
ATOM     33  C   UNL A   1     -26.137   7.411  33.888  0.00  0.00    -0.000 A 
ATOM     34  C   UNL A   1     -25.200   8.332  33.558  0.00  0.00    -0.000 A 
ATOM     35  C   UNL A   1     -24.831   8.413  32.233  0.00  0.00    -0.004 A 
ENDBRANCH  29  30
ENDBRANCH  28  29
ENDBRANCH  25  27
ENDBRANCH  23  25
ENDBRANCH   1  19
TORSDOF 8
