MODEL 2550
MODEL 1
REMARK VINA RESULT:    -6.295      0.000      0.000
REMARK INTER + INTRA:         -13.328
REMARK INTER:                  -9.238
REMARK INTRA:                  -4.089
REMARK UNBOUND:                -4.089
REMARK  Name = No_2550-gen_results/8p0m/2024-11-26-14-13-15/
REMARK  8 active torsions:
REMARK  status: ('A' for Active; 'I' for Inactive)
REMARK    1  A    between atoms: C_2  and  C_8
REMARK    2  A    between atoms: C_4  and  O_18
REMARK    3  A    between atoms: C_13  and  C_14
REMARK    4  A    between atoms: O_18  and  C_19
REMARK    5  A    between atoms: C_23  and  C_25
REMARK    6  A    between atoms: C_25  and  C_26
REMARK    7  A    between atoms: C_28  and  C_29
REMARK    8  A    between atoms: C_29  and  C_30
REMARK                            x       y       z     vdW  Elec       q    Type
REMARK                         _______ _______ _______ _____ _____    ______ ____
ROOT
ATOM      1  O   UNL A   1      -4.202   0.633  34.966  0.00  0.00    -0.453 OA
ENDROOT
BRANCH   1   5
ATOM      2  C   UNL A   1      -7.837  -1.176  34.807  0.00  0.00    +0.001 A 
ATOM      3  C   UNL A   1      -7.810   0.030  34.892  0.00  0.00    +0.003 A 
ATOM      4  C   UNL A   1      -6.643   0.763  34.993  0.00  0.00    +0.038 A 
ATOM      5  C   UNL A   1      -5.407   0.059  34.957  0.00  0.00    +0.156 A 
ATOM      6  C   UNL A   1      -5.485  -1.266  34.690  0.00  0.00    +0.092 A 
ATOM      7  C   UNL A   1      -6.647  -1.879  34.567  0.00  0.00    +0.015 A 
ATOM      8 CL   UNL A   1      -4.007  -2.104  34.600  0.00  0.00    -0.079 Cl
BRANCH   3   9
ATOM      9  C   UNL A   1      -9.122   0.878  35.089  0.00  0.00    +0.004 A 
ATOM     10  C   UNL A   1      -9.796   1.321  33.914  0.00  0.00    +0.000 A 
ATOM     11  C   UNL A   1     -11.007   1.392  33.832  0.00  0.00    +0.000 A 
ATOM     12  C   UNL A   1     -11.825   1.440  35.053  0.00  0.00    +0.000 A 
ATOM     13  C   UNL A   1     -11.158   1.106  36.253  0.00  0.00    +0.005 A 
ATOM     14  C   UNL A   1      -9.818   0.757  36.291  0.00  0.00    +0.055 A 
BRANCH  14  15
ATOM     15  C   UNL A   1      -9.252   0.447  37.537  0.00  0.00    +0.265 C 
ATOM     16  O   UNL A   1      -8.402   1.084  38.154  0.00  0.00    -0.268 OA
ATOM     17  N   UNL A   1      -9.896  -0.640  38.241  0.00  0.00    -0.200 NA
ATOM     18  C   UNL A   1     -10.700  -1.557  37.493  0.00  0.00    +0.139 C 
ENDBRANCH  14  15
ENDBRANCH   3   9
ENDBRANCH   1   5
BRANCH   1  19
ATOM     19  C   UNL A   1      -3.689   1.506  34.110  0.00  0.00    +0.145 A 
ATOM     20  C   UNL A   1      -2.474   1.173  33.476  0.00  0.00    +0.037 A 
ATOM     21  C   UNL A   1      -2.223   1.724  32.184  0.00  0.00    +0.003 A 
ATOM     22  C   UNL A   1      -3.058   2.690  31.626  0.00  0.00    -0.004 A 
ATOM     23  C   UNL A   1      -4.260   3.003  32.274  0.00  0.00    -0.015 A 
ATOM     24  C   UNL A   1      -4.609   2.359  33.411  0.00  0.00    +0.034 A 
BRANCH  23  25
ATOM     25  C   UNL A   1      -5.200   3.943  31.656  0.00  0.00    +0.044 C 
ATOM     26  C   UNL A   1      -4.561   5.025  30.805  0.00  0.00    +0.009 C 
BRANCH  25  27
ATOM     27  C   UNL A   1      -6.452   3.973  31.749  0.00  0.00    -0.026 C 
ATOM     28  C   UNL A   1      -7.311   4.574  32.259  0.00  0.00    -0.026 C 
BRANCH  28  29
ATOM     29  C   UNL A   1      -8.385   4.948  32.752  0.00  0.00    +0.052 C 
BRANCH  29  30
ATOM     30  C   UNL A   1      -8.756   4.685  34.093  0.00  0.00    -0.018 A 
ATOM     31  C   UNL A   1      -7.832   4.358  35.013  0.00  0.00    -0.004 A 
ATOM     32  C   UNL A   1      -8.206   4.198  36.409  0.00  0.00    -0.000 A 
ATOM     33  C   UNL A   1      -9.556   4.430  36.735  0.00  0.00    -0.000 A 
ATOM     34  C   UNL A   1     -10.513   4.808  35.853  0.00  0.00    -0.000 A 
ATOM     35  C   UNL A   1     -10.128   4.997  34.544  0.00  0.00    -0.004 A 
ENDBRANCH  29  30
ENDBRANCH  28  29
ENDBRANCH  25  27
ENDBRANCH  23  25
ENDBRANCH   1  19
TORSDOF 8
ENDMDL
ENDMDL
