MODEL 2551
MODEL 1
REMARK VINA RESULT:    -6.461      0.000      0.000
REMARK INTER + INTRA:          -7.167
REMARK INTER:                  -6.838
REMARK INTRA:                  -0.329
REMARK UNBOUND:                -0.329
REMARK  Name = No_2551-gen_results/8p0m/2024-11-26-14-13-15/
REMARK  1 active torsions:
REMARK  status: ('A' for Active; 'I' for Inactive)
REMARK    1  A    between atoms: C_3  and  C_7
REMARK                            x       y       z     vdW  Elec       q    Type
REMARK                         _______ _______ _______ _____ _____    ______ ____
ROOT
ATOM      1  C   UNL A   1     -26.555  -3.554  30.010  0.00  0.00    +0.000 A 
ATOM      2  C   UNL A   1     -25.891  -2.577  29.753  0.00  0.00    +0.000 A 
ATOM      3  C   UNL A   1     -24.678  -2.627  29.068  0.00  0.00    +0.000 A 
ATOM      4  C   UNL A   1     -24.136  -3.916  28.684  0.00  0.00    +0.000 A 
ATOM      5  C   UNL A   1     -24.924  -5.017  29.017  0.00  0.00    +0.000 A 
ATOM      6  C   UNL A   1     -26.057  -4.879  29.678  0.00  0.00    +0.000 A 
ENDROOT
BRANCH   3   7
ATOM      7  C   UNL A   1     -23.810  -1.468  28.709  0.00  0.00    +0.000 A 
ATOM      8  C   UNL A   1     -22.656  -1.270  29.271  0.00  0.00    +0.000 A 
ATOM      9  C   UNL A   1     -21.888  -0.230  29.039  0.00  0.00    +0.000 A 
ATOM     10  C   UNL A   1     -22.268   0.840  28.259  0.00  0.00    +0.000 A 
ATOM     11  C   UNL A   1     -24.309  -0.410  27.856  0.00  0.00    +0.000 A 
ATOM     12  C   UNL A   1     -23.508   0.745  27.637  0.00  0.00    +0.000 A 
ENDBRANCH   3   7
TORSDOF 1
ENDMDL
ENDMDL
