REMARK  Name = No_2552-gen_results/8p0m/2024-11-26-14-13-15/
REMARK  13 active torsions:
REMARK  status: ('A' for Active; 'I' for Inactive)
REMARK    1  A    between atoms: C_2  and  C_8
REMARK    2  A    between atoms: C_4  and  C_17
REMARK    3  A    between atoms: C_6  and  O_21
REMARK    4  A    between atoms: N_9  and  C_11
REMARK    5  A    between atoms: C_11  and  C_12
REMARK    6  A    between atoms: C_12  and  C_13
REMARK    7  A    between atoms: O_21  and  C_22
REMARK    8  A    between atoms: C_22  and  C_23
REMARK    9  A    between atoms: N_25  and  C_26
REMARK   10  A    between atoms: C_26  and  C_27
REMARK   11  A    between atoms: C_27  and  C_28
REMARK   12  A    between atoms: C_29  and  C_30
REMARK   13  A    between atoms: C_31  and  C_32
REMARK                            x       y       z     vdW  Elec       q    Type
REMARK                         _______ _______ _______ _____ _____    ______ ____
ROOT
ATOM      1  C   UNL A   1     -28.016  -0.814  28.878  0.00  0.00    +0.044 A 
ATOM      2  C   UNL A   1     -27.064  -0.119  28.608  0.00  0.00    +0.058 A 
ATOM      3  C   UNL A   1     -26.972   0.714  27.506  0.00  0.00    +0.011 A 
ATOM      4  C   UNL A   1     -28.105   0.774  26.642  0.00  0.00    +0.102 A 
ATOM      5  C   UNL A   1     -29.201   0.104  27.053  0.00  0.00    +0.178 A 
ATOM      6  C   UNL A   1     -29.210  -0.603  28.185  0.00  0.00    +0.167 A 
ATOM      7  F   UNL A   1     -30.283   0.214  26.296  0.00  0.00    -0.201 F 
ENDROOT
BRANCH   4   8
ATOM      8  C   UNL A   1     -28.012   1.635  25.459  0.00  0.00    +0.421 C 
ATOM      9  F   UNL A   1     -27.160   1.214  24.575  0.00  0.00    -0.166 F 
ATOM     10  F   UNL A   1     -27.670   2.906  25.715  0.00  0.00    -0.166 F 
ATOM     11  F   UNL A   1     -29.219   1.692  24.808  0.00  0.00    -0.166 F 
ENDBRANCH   4   8
BRANCH   2  12
ATOM     12  C   UNL A   1     -25.713  -0.215  29.410  0.00  0.00    +0.265 C 
ATOM     13  N   UNL A   1     -25.503  -0.553  30.419  0.00  0.00    -0.201 NA
ATOM     14  O   UNL A   1     -24.574  -0.149  28.643  0.00  0.00    -0.268 OA
BRANCH  13  15
ATOM     15  C   UNL A   1     -24.283  -0.678  31.177  0.00  0.00    +0.124 C 
BRANCH  15  16
ATOM     16  C   UNL A   1     -23.467   0.418  31.138  0.00  0.00    +0.127 C 
BRANCH  16  17
ATOM     17  C   UNL A   1     -24.134   1.712  31.262  0.00  0.00    +0.400 C 
ATOM     18  F   UNL A   1     -24.328   1.998  32.456  0.00  0.00    -0.170 F 
ATOM     19  F   UNL A   1     -25.312   1.794  30.559  0.00  0.00    -0.170 F 
ATOM     20  F   UNL A   1     -23.283   2.696  30.710  0.00  0.00    -0.170 F 
ENDBRANCH  16  17
ENDBRANCH  15  16
ENDBRANCH  13  15
ENDBRANCH   2  12
BRANCH   6  21
ATOM     21  O   UNL A   1     -30.298  -1.292  28.534  0.00  0.00    -0.466 OA
BRANCH  21  22
ATOM     22  C   UNL A   1     -31.473  -0.697  28.789  0.00  0.00    +0.257 C 
BRANCH  22  23
ATOM     23  C   UNL A   1     -32.034  -1.330  29.896  0.00  0.00    +0.132 C 
ATOM     24 BR   UNL A   1     -33.204  -1.103  30.508  0.00  0.00    -0.029 Br
ATOM     25  N   UNL A   1     -31.189  -2.343  30.430  0.00  0.00    -0.264 NA
BRANCH  25  26
ATOM     26  C   UNL A   1     -31.602  -3.130  31.567  0.00  0.00    +0.131 C 
BRANCH  26  27
ATOM     27  C   UNL A   1     -31.172  -4.349  31.349  0.00  0.00    +0.052 C 
BRANCH  27  28
ATOM     28  C   UNL A   1     -29.982  -4.620  30.669  0.00  0.00    -0.024 C 
ATOM     29  C   UNL A   1     -28.780  -4.428  31.288  0.00  0.00    -0.004 C 
BRANCH  29  30
ATOM     30  C   UNL A   1     -27.552  -4.468  30.458  0.00  0.00    -0.000 C 
ATOM     31  C   UNL A   1     -27.197  -3.402  29.672  0.00  0.00    -0.001 C 
BRANCH  31  32
ATOM     32  C   UNL A   1     -25.916  -3.501  29.044  0.00  0.00    -0.009 C 
ATOM     33  C   UNL A   1     -25.118  -4.385  29.302  0.00  0.00    -0.044 C 
ATOM     34  C   UNL A   1     -23.809  -4.371  28.602  0.00  0.00    +0.026 C 
ATOM     35  C   UNL A   1     -25.545  -5.633  29.895  0.00  0.00    +0.026 C 
ENDBRANCH  31  32
ENDBRANCH  29  30
ENDBRANCH  27  28
ENDBRANCH  26  27
ENDBRANCH  25  26
ENDBRANCH  22  23
ENDBRANCH  21  22
ENDBRANCH   6  21
TORSDOF 13
