MODEL 2552
MODEL 1
REMARK VINA RESULT:    -5.459      0.000      0.000
REMARK INTER + INTRA:         -13.898
REMARK INTER:                  -9.607
REMARK INTRA:                  -4.291
REMARK UNBOUND:                -4.291
REMARK  Name = No_2552-gen_results/8p0m/2024-11-26-14-13-15/
REMARK  13 active torsions:
REMARK  status: ('A' for Active; 'I' for Inactive)
REMARK    1  A    between atoms: C_2  and  C_8
REMARK    2  A    between atoms: C_4  and  C_17
REMARK    3  A    between atoms: C_6  and  O_21
REMARK    4  A    between atoms: N_9  and  C_11
REMARK    5  A    between atoms: C_11  and  C_12
REMARK    6  A    between atoms: C_12  and  C_13
REMARK    7  A    between atoms: O_21  and  C_22
REMARK    8  A    between atoms: C_22  and  C_23
REMARK    9  A    between atoms: N_25  and  C_26
REMARK   10  A    between atoms: C_26  and  C_27
REMARK   11  A    between atoms: C_27  and  C_28
REMARK   12  A    between atoms: C_29  and  C_30
REMARK   13  A    between atoms: C_31  and  C_32
REMARK                            x       y       z     vdW  Elec       q    Type
REMARK                         _______ _______ _______ _____ _____    ______ ____
ROOT
ATOM      1  C   UNL A   1      -6.432   2.796  12.804  0.00  0.00    +0.044 A 
ATOM      2  C   UNL A   1      -7.026   3.837  12.971  0.00  0.00    +0.058 A 
ATOM      3  C   UNL A   1      -8.395   4.001  12.853  0.00  0.00    +0.011 A 
ATOM      4  C   UNL A   1      -9.163   2.842  12.537  0.00  0.00    +0.102 A 
ATOM      5  C   UNL A   1      -8.489   1.674  12.506  0.00  0.00    +0.178 A 
ATOM      6  C   UNL A   1      -7.173   1.615  12.722  0.00  0.00    +0.167 A 
ATOM      7  F   UNL A   1      -9.205   0.580  12.288  0.00  0.00    -0.201 F 
ENDROOT
BRANCH   4   8
ATOM      8  C   UNL A   1     -10.612   3.007  12.386  0.00  0.00    +0.421 C 
ATOM      9  F   UNL A   1     -11.300   2.467  13.345  0.00  0.00    -0.166 F 
ATOM     10  F   UNL A   1     -11.119   2.506  11.250  0.00  0.00    -0.166 F 
ATOM     11  F   UNL A   1     -10.949   4.337  12.396  0.00  0.00    -0.166 F 
ENDBRANCH   4   8
BRANCH   2  12
ATOM     12  C   UNL A   1      -6.267   5.200  13.181  0.00  0.00    +0.265 C 
ATOM     13  N   UNL A   1      -6.626   6.179  13.478  0.00  0.00    -0.201 NA
ATOM     14  O   UNL A   1      -4.902   5.094  13.302  0.00  0.00    -0.268 OA
BRANCH  13  15
ATOM     15  C   UNL A   1      -5.962   7.439  13.703  0.00  0.00    +0.124 C 
BRANCH  15  16
ATOM     16  C   UNL A   1      -6.076   8.340  12.681  0.00  0.00    +0.127 C 
BRANCH  16  17
ATOM     17  C   UNL A   1      -7.228   9.236  12.748  0.00  0.00    +0.400 C 
ATOM     18  F   UNL A   1      -8.242   8.690  12.279  0.00  0.00    -0.170 F 
ATOM     19  F   UNL A   1      -7.018  10.449  12.137  0.00  0.00    -0.170 F 
ATOM     20  F   UNL A   1      -7.477   9.524  14.109  0.00  0.00    -0.170 F 
ENDBRANCH  16  17
ENDBRANCH  15  16
ENDBRANCH  13  15
ENDBRANCH   2  12
BRANCH   6  21
ATOM     21  O   UNL A   1      -6.533   0.448  12.635  0.00  0.00    -0.466 OA
BRANCH  21  22
ATOM     22  C   UNL A   1      -5.195   0.358  12.675  0.00  0.00    +0.257 C 
BRANCH  22  23
ATOM     23  C   UNL A   1      -4.762  -0.045  11.414  0.00  0.00    +0.132 C 
ATOM     24 BR   UNL A   1      -3.516  -0.193  10.945  0.00  0.00    -0.029 Br
ATOM     25  N   UNL A   1      -5.843  -0.302  10.524  0.00  0.00    -0.264 NA
BRANCH  25  26
ATOM     26  C   UNL A   1      -5.601  -0.752   9.174  0.00  0.00    +0.131 C 
BRANCH  26  27
ATOM     27  C   UNL A   1      -6.348  -0.007   8.396  0.00  0.00    +0.052 C 
BRANCH  27  28
ATOM     28  C   UNL A   1      -7.361   0.821   8.888  0.00  0.00    -0.024 C 
ATOM     29  C   UNL A   1      -8.191   1.476   8.024  0.00  0.00    -0.004 C 
BRANCH  29  30
ATOM     30  C   UNL A   1      -9.068   2.540   8.569  0.00  0.00    -0.000 C 
ATOM     31  C   UNL A   1      -8.555   3.758   8.936  0.00  0.00    -0.001 C 
BRANCH  31  32
ATOM     32  C   UNL A   1      -9.521   4.748   9.297  0.00  0.00    -0.009 C 
ATOM     33  C   UNL A   1      -9.231   5.771   9.893  0.00  0.00    -0.044 C 
ATOM     34  C   UNL A   1     -10.324   6.715  10.235  0.00  0.00    +0.026 C 
ATOM     35  C   UNL A   1      -7.880   6.288   9.886  0.00  0.00    +0.026 C 
ENDBRANCH  31  32
ENDBRANCH  29  30
ENDBRANCH  27  28
ENDBRANCH  26  27
ENDBRANCH  25  26
ENDBRANCH  22  23
ENDBRANCH  21  22
ENDBRANCH   6  21
TORSDOF 13
ENDMDL
ENDMDL
