MODEL 2553
MODEL 1
REMARK VINA RESULT:    -5.754      0.000      0.000
REMARK INTER + INTRA:          -6.356
REMARK INTER:                  -6.091
REMARK INTRA:                  -0.265
REMARK UNBOUND:                -0.265
REMARK  Name = No_2553-gen_results/8p0m/2024-11-26-14-13-15/
REMARK  1 active torsions:
REMARK  status: ('A' for Active; 'I' for Inactive)
REMARK    1  A    between atoms: C_5  and  C_7
REMARK                            x       y       z     vdW  Elec       q    Type
REMARK                         _______ _______ _______ _____ _____    ______ ____
ROOT
ATOM      1  C   UNL A   1     -26.372  -2.182  29.721  0.00  0.00    +0.011 A 
ATOM      2  C   UNL A   1     -26.048  -3.347  29.704  0.00  0.00    +0.058 A 
ATOM      3  C   UNL A   1     -24.803  -3.823  29.328  0.00  0.00    +0.011 A 
ATOM      4  C   UNL A   1     -23.822  -2.855  28.963  0.00  0.00    +0.002 A 
ATOM      5  C   UNL A   1     -24.169  -1.563  29.137  0.00  0.00    +0.018 A 
ATOM      6  C   UNL A   1     -25.374  -1.214  29.591  0.00  0.00    +0.002 A 
ATOM      7 CL   UNL A   1     -27.272  -4.668  29.985  0.00  0.00    -0.082 Cl
ENDROOT
BRANCH   5   8
ATOM      8  C   UNL A   1     -23.114  -0.589  28.794  0.00  0.00    +0.081 A 
ATOM      9  N   UNL A   1     -21.918  -0.787  28.966  0.00  0.00    -0.244 NA
ATOM     10  C   UNL A   1     -23.512   0.586  28.019  0.00  0.00    +0.019 A 
ATOM     11  C   UNL A   1     -22.525   1.354  27.499  0.00  0.00    +0.003 A 
ATOM     12  C   UNL A   1     -20.885  -0.011  28.531  0.00  0.00    +0.099 A 
ATOM     13  C   UNL A   1     -21.219   1.102  27.799  0.00  0.00    +0.021 A 
ENDBRANCH   5   8
TORSDOF 1
ENDMDL
ENDMDL
