REMARK  Name = No_2553-gen_results/8p0m/2024-11-26-14-13-15/
REMARK  1 active torsions:
REMARK  status: ('A' for Active; 'I' for Inactive)
REMARK    1  A    between atoms: C_5  and  C_7
REMARK                            x       y       z     vdW  Elec       q    Type
REMARK                         _______ _______ _______ _____ _____    ______ ____
ROOT
ATOM      1  C   UNL A   1     -28.016  -0.814  28.878  0.00  0.00    +0.011 A 
ATOM      2  C   UNL A   1     -27.064  -0.119  28.608  0.00  0.00    +0.058 A 
ATOM      3  C   UNL A   1     -26.972   0.714  27.506  0.00  0.00    +0.011 A 
ATOM      4  C   UNL A   1     -28.105   0.774  26.642  0.00  0.00    +0.002 A 
ATOM      5  C   UNL A   1     -29.201   0.104  27.053  0.00  0.00    +0.018 A 
ATOM      6  C   UNL A   1     -29.210  -0.603  28.185  0.00  0.00    +0.002 A 
ATOM      7 CL   UNL A   1     -25.507  -0.251  29.546  0.00  0.00    -0.082 Cl
ENDROOT
BRANCH   5   8
ATOM      8  C   UNL A   1     -30.370   0.226  26.160  0.00  0.00    +0.081 A 
ATOM      9  N   UNL A   1     -30.299   0.234  24.938  0.00  0.00    -0.244 NA
ATOM     10  C   UNL A   1     -31.695   0.123  26.771  0.00  0.00    +0.019 A 
ATOM     11  C   UNL A   1     -32.757  -0.006  25.941  0.00  0.00    +0.003 A 
ATOM     12  C   UNL A   1     -31.336   0.182  24.053  0.00  0.00    +0.099 A 
ATOM     13  C   UNL A   1     -32.596   0.084  24.590  0.00  0.00    +0.021 A 
ENDBRANCH   5   8
TORSDOF 1
