REMARK  Name = No_2554-gen_results/8p0m/2024-11-26-14-13-15/
REMARK  2 active torsions:
REMARK  status: ('A' for Active; 'I' for Inactive)
REMARK    1  A    between atoms: C_1  and  C_2
REMARK    2  A    between atoms: C_15  and  C_16
REMARK                            x       y       z     vdW  Elec       q    Type
REMARK                         _______ _______ _______ _____ _____    ______ ____
ROOT
ATOM      1  C   UNL A   1     -27.064  -0.119  28.608  0.00  0.00    +0.071 A 
ATOM      2  C   UNL A   1     -25.792  -0.430  29.076  0.00  0.00    +0.004 A 
ATOM      3  C   UNL A   1     -24.546   0.349  28.823  0.00  0.00    +0.009 A 
ATOM      4  C   UNL A   1     -24.659   1.420  27.888  0.00  0.00    +0.046 A 
ATOM      5  C   UNL A   1     -25.947   1.681  27.379  0.00  0.00    +0.004 A 
ATOM      6  C   UNL A   1     -27.044   0.974  27.687  0.00  0.00    +0.004 A 
ATOM      7  C   UNL A   1     -23.473   2.179  27.632  0.00  0.00    +0.222 A 
ATOM      8  N   UNL A   1     -22.257   1.753  28.039  0.00  0.00    -0.216 NA
ATOM      9  F   UNL A   1     -23.596   3.224  26.959  0.00  0.00    -0.183 F 
ATOM     10  C   UNL A   1     -22.014   0.802  28.877  0.00  0.00    +0.105 A 
ATOM     11  C   UNL A   1     -23.178  -0.084  29.233  0.00  0.00    +0.091 A 
ENDROOT
BRANCH   1  12
ATOM     12  C   UNL A   1     -28.016  -0.814  28.878  0.00  0.00    +0.419 C 
ATOM     13  F   UNL A   1     -27.923  -2.032  29.100  0.00  0.00    -0.166 F 
ATOM     14  F   UNL A   1     -29.049  -0.816  27.878  0.00  0.00    -0.166 F 
ATOM     15  F   UNL A   1     -28.634  -0.256  30.006  0.00  0.00    -0.166 F 
ENDBRANCH   1  12
BRANCH  11  16
ATOM     16  C   UNL A   1     -22.947  -1.247  30.054  0.00  0.00    +0.420 C 
ATOM     17  F   UNL A   1     -23.861  -1.385  30.749  0.00  0.00    -0.166 F 
ATOM     18  F   UNL A   1     -21.889  -0.949  30.869  0.00  0.00    -0.166 F 
ATOM     19  F   UNL A   1     -22.588  -2.204  29.203  0.00  0.00    -0.166 F 
ENDBRANCH  11  16
TORSDOF 2
