REMARK  Name = No_2555-gen_results/8p0m/2024-11-26-14-13-15/
REMARK  3 active torsions:
REMARK  status: ('A' for Active; 'I' for Inactive)
REMARK    1  A    between atoms: C_6  and  O_7
REMARK    2  A    between atoms: O_7  and  C_8
REMARK    3  A    between atoms: C_22  and  C_23
REMARK                            x       y       z     vdW  Elec       q    Type
REMARK                         _______ _______ _______ _____ _____    ______ ____
ROOT
ATOM      1  C   UNL A   1     -29.182  -2.843  31.523  0.00  0.00    +0.142 A 
ATOM      2  C   UNL A   1     -29.780  -4.116  31.799  0.00  0.00    +0.018 A 
ATOM      3  C   UNL A   1     -30.120  -4.352  33.168  0.00  0.00    +0.017 A 
ATOM      4  C   UNL A   1     -29.972  -3.333  34.136  0.00  0.00    +0.009 A 
ATOM      5  C   UNL A   1     -29.406  -2.128  33.716  0.00  0.00    +0.003 A 
ATOM      6  C   UNL A   1     -28.997  -1.861  32.441  0.00  0.00    +0.037 A 
ATOM      7  C   UNL A   1     -30.731  -5.656  33.544  0.00  0.00    +0.081 A 
ATOM      8  N   UNL A   1     -30.652  -6.250  34.370  0.00  0.00    -0.244 NA
ATOM      9  C   UNL A   1     -31.521  -6.238  32.366  0.00  0.00    +0.015 C 
ATOM     10  C   UNL A   1     -31.903  -5.634  31.306  0.00  0.00    -0.020 C 
ATOM     11  C   UNL A   1     -30.787  -4.610  30.837  0.00  0.00    +0.056 C 
ATOM     12  C   UNL A   1     -30.199  -5.648  35.557  0.00  0.00    +0.105 A 
ATOM     13  C   UNL A   1     -29.793  -4.240  35.539  0.00  0.00    +0.099 A 
ENDROOT
BRANCH  13  14
ATOM     14  C   UNL A   1     -29.343  -3.383  36.640  0.00  0.00    +0.389 C 
ATOM     15  O   UNL A   1     -29.956  -2.485  37.023  0.00  0.00    -0.240 OA
ATOM     16  O   UNL A   1     -28.118  -3.844  37.106  0.00  0.00    -0.240 OA
ENDBRANCH  13  14
BRANCH   1  17
ATOM     17  O   UNL A   1     -28.847  -2.729  30.206  0.00  0.00    -0.454 OA
BRANCH  17  23
ATOM     18  C   UNL A   1     -28.016  -0.814  28.878  0.00  0.00    +0.049 A 
ATOM     19  C   UNL A   1     -27.064  -0.119  28.608  0.00  0.00    +0.061 A 
ATOM     20  C   UNL A   1     -25.792  -0.430  29.076  0.00  0.00    +0.023 A 
ATOM     21  C   UNL A   1     -25.568  -1.241  29.757  0.00  0.00    +0.061 A 
ATOM     22  C   UNL A   1     -26.611  -2.184  30.244  0.00  0.00    +0.049 A 
ATOM     23  C   UNL A   1     -27.819  -1.919  29.803  0.00  0.00    +0.147 A 
ATOM     24 CL   UNL A   1     -27.316   1.232  27.497  0.00  0.00    -0.082 Cl
ATOM     25 CL   UNL A   1     -23.915  -1.679  30.341  0.00  0.00    -0.082 Cl
ENDBRANCH  17  23
ENDBRANCH   1  17
TORSDOF 3
