MODEL 2556
MODEL 1
REMARK VINA RESULT:    -6.779      0.000      0.000
REMARK INTER + INTRA:          -8.452
REMARK INTER:                  -7.968
REMARK INTRA:                  -0.484
REMARK UNBOUND:                -0.484
REMARK  Name = No_2556-gen_results/8p0m/2024-11-26-14-13-15/
REMARK  3 active torsions:
REMARK  status: ('A' for Active; 'I' for Inactive)
REMARK    1  A    between atoms: C_2  and  C_5
REMARK    2  A    between atoms: C_3  and  C_4
REMARK    3  A    between atoms: C_4  and  C_6
REMARK                            x       y       z     vdW  Elec       q    Type
REMARK                         _______ _______ _______ _____ _____    ______ ____
ROOT
ATOM      1  C   UNL A   1     -24.684  -0.379  27.691  0.00  0.00    -0.006 A 
ATOM      2  C   UNL A   1     -24.415   0.172  26.833  0.00  0.00    +0.010 A 
ATOM      3  C   UNL A   1     -23.549  -0.709  28.553  0.00  0.00    -0.018 A 
ATOM      4  C   UNL A   1     -23.566   1.366  27.006  0.00  0.00    -0.002 A 
ATOM      5  C   UNL A   1     -22.495   1.371  27.871  0.00  0.00    -0.001 A 
ATOM      6  C   UNL A   1     -22.471   0.301  28.654  0.00  0.00    -0.004 A 
ENDROOT
BRANCH   2   7
ATOM      7  C   UNL A   1     -25.351   0.346  25.742  0.00  0.00    +0.209 C 
ATOM      8  O   UNL A   1     -24.990   0.036  24.627  0.00  0.00    -0.215 OA
ENDBRANCH   2   7
BRANCH   3   9
ATOM      9  C   UNL A   1     -23.477  -1.856  29.265  0.00  0.00    +0.053 C 
BRANCH   9  10
ATOM     10  C   UNL A   1     -24.196  -2.665  29.361  0.00  0.00    -0.018 A 
ATOM     11  C   UNL A   1     -23.936  -3.944  28.846  0.00  0.00    -0.004 A 
ATOM     12  C   UNL A   1     -24.961  -5.008  28.928  0.00  0.00    -0.000 A 
ATOM     13  C   UNL A   1     -26.122  -4.673  29.555  0.00  0.00    -0.000 A 
ATOM     14  C   UNL A   1     -26.501  -3.478  30.076  0.00  0.00    -0.000 A 
ATOM     15  C   UNL A   1     -25.553  -2.483  30.046  0.00  0.00    -0.004 A 
ENDBRANCH   9  10
ENDBRANCH   3   9
TORSDOF 3
ENDMDL
ENDMDL
