REMARK  Name = No_2556-gen_results/8p0m/2024-11-26-14-13-15/
REMARK  3 active torsions:
REMARK  status: ('A' for Active; 'I' for Inactive)
REMARK    1  A    between atoms: C_2  and  C_5
REMARK    2  A    between atoms: C_3  and  C_4
REMARK    3  A    between atoms: C_4  and  C_6
REMARK                            x       y       z     vdW  Elec       q    Type
REMARK                         _______ _______ _______ _____ _____    ______ ____
ROOT
ATOM      1  C   UNL A   1     -28.016  -0.814  28.878  0.00  0.00    -0.006 A 
ATOM      2  C   UNL A   1     -28.469  -0.785  29.829  0.00  0.00    +0.010 A 
ATOM      3  C   UNL A   1     -27.087   0.290  28.638  0.00  0.00    -0.018 A 
ATOM      4  C   UNL A   1     -27.604  -0.605  31.011  0.00  0.00    -0.002 A 
ATOM      5  C   UNL A   1     -26.554   0.286  31.008  0.00  0.00    -0.001 A 
ATOM      6  C   UNL A   1     -26.296   0.762  29.798  0.00  0.00    -0.004 A 
ENDROOT
BRANCH   2   7
ATOM      7  C   UNL A   1     -29.607  -1.627  30.134  0.00  0.00    +0.209 C 
ATOM      8  O   UNL A   1     -30.690  -1.302  29.698  0.00  0.00    -0.215 OA
ENDBRANCH   2   7
BRANCH   3   9
ATOM      9  C   UNL A   1     -26.910   0.849  27.420  0.00  0.00    +0.053 C 
BRANCH   9  10
ATOM     10  C   UNL A   1     -27.642   1.143  26.673  0.00  0.00    -0.018 A 
ATOM     11  C   UNL A   1     -29.020   1.086  26.932  0.00  0.00    -0.004 A 
ATOM     12  C   UNL A   1     -29.997   1.424  25.873  0.00  0.00    -0.000 A 
ATOM     13  C   UNL A   1     -29.473   1.820  24.680  0.00  0.00    -0.000 A 
ATOM     14  C   UNL A   1     -28.172   1.901  24.300  0.00  0.00    -0.000 A 
ATOM     15  C   UNL A   1     -27.244   1.627  25.276  0.00  0.00    -0.004 A 
ENDBRANCH   9  10
ENDBRANCH   3   9
TORSDOF 3
