MODEL 2558
MODEL 1
REMARK VINA RESULT:    -6.841      0.000      0.000
REMARK INTER + INTRA:         -11.496
REMARK INTER:                 -10.441
REMARK INTRA:                  -1.055
REMARK UNBOUND:                -1.055
REMARK  Name = No_2558-gen_results/8p0m/2024-11-26-14-13-15/
REMARK  9 active torsions:
REMARK  status: ('A' for Active; 'I' for Inactive)
REMARK    1  A    between atoms: C_8  and  C_14
REMARK    2  A    between atoms: C_14  and  C_15
REMARK    3  A    between atoms: C_15  and  C_16
REMARK    4  A    between atoms: C_16  and  C_17
REMARK    5  A    between atoms: C_17  and  C_18
REMARK    6  A    between atoms: C_21  and  O_25
REMARK    7  A    between atoms: O_25  and  C_26
REMARK    8  A    between atoms: C_26  and  C_27
REMARK    9  A    between atoms: C_27  and  C_28
REMARK                            x       y       z     vdW  Elec       q    Type
REMARK                         _______ _______ _______ _____ _____    ______ ____
ROOT
ATOM      1  C   UNL A   1      -8.362 -23.650  21.845  0.00  0.00    +0.010 C 
ENDROOT
BRANCH   1   9
ATOM      2  C   UNL A   1      -6.603 -27.620  24.373  0.00  0.00    +0.014 A 
ATOM      3  C   UNL A   1      -6.910 -28.520  24.827  0.00  0.00    +0.058 A 
ATOM      4  C   UNL A   1      -7.706 -26.845  23.805  0.00  0.00    +0.034 A 
ATOM      5  C   UNL A   1      -7.543 -25.501  23.208  0.00  0.00    +0.175 C 
ATOM      6  C   UNL A   1      -8.188 -29.188  25.029  0.00  0.00    +0.011 A 
ATOM      7  C   UNL A   1      -9.253 -28.493  24.494  0.00  0.00    -0.001 A 
ATOM      8  C   UNL A   1      -9.047 -27.293  23.922  0.00  0.00    +0.015 A 
ATOM      9  C   UNL A   1      -8.636 -25.032  22.455  0.00  0.00    +0.095 C 
ATOM     10  C   UNL A   1      -9.922 -25.476  22.618  0.00  0.00    +0.196 C 
ATOM     11  C   UNL A   1     -10.127 -26.695  23.232  0.00  0.00    +0.214 C 
ATOM     12  F   UNL A   1     -11.359 -27.150  23.308  0.00  0.00    -0.230 F 
ATOM     13 CL   UNL A   1      -5.574 -29.520  25.683  0.00  0.00    -0.082 Cl
ATOM     14  O   UNL A   1     -10.944 -24.787  21.985  0.00  0.00    -0.219 OA
ATOM     15  O   UNL A   1      -6.387 -25.049  23.141  0.00  0.00    -0.291 OA
ENDBRANCH   1   9
BRANCH   1  16
ATOM     16  C   UNL A   1      -8.440 -22.621  22.555  0.00  0.00    +0.001 C 
BRANCH  16  17
ATOM     17  C   UNL A   1      -9.355 -21.570  22.281  0.00  0.00    +0.005 C 
BRANCH  17  18
ATOM     18  C   UNL A   1     -10.583 -21.347  23.085  0.00  0.00    +0.028 C 
BRANCH  18  19
ATOM     19  C   UNL A   1     -11.794 -21.211  22.437  0.00  0.00    -0.000 A 
ATOM     20  C   UNL A   1     -12.949 -21.014  23.166  0.00  0.00    +0.095 A 
ATOM     21  C   UNL A   1     -11.826 -21.249  21.010  0.00  0.00    +0.036 A 
ATOM     22  C   UNL A   1     -13.161 -21.104  20.420  0.00  0.00    +0.157 A 
ATOM     23  N   UNL A   1     -14.151 -20.935  22.531  0.00  0.00    -0.239 NA
ATOM     24  C   UNL A   1     -14.215 -20.936  21.228  0.00  0.00    +0.136 A 
BRANCH  22  25
ATOM     25  O   UNL A   1     -13.209 -21.184  19.069  0.00  0.00    -0.473 OA
BRANCH  25  26
ATOM     26  C   UNL A   1     -13.428 -19.958  18.396  0.00  0.00    +0.217 C 
BRANCH  26  27
ATOM     27  C   UNL A   1     -13.045 -20.129  16.917  0.00  0.00    +0.161 C 
BRANCH  27  28
ATOM     28  C   UNL A   1     -11.584 -20.122  16.797  0.00  0.00    +0.369 C 
ATOM     29  O   UNL A   1     -11.027 -19.018  16.691  0.00  0.00    -0.245 OA
ATOM     30  O   UNL A   1     -11.071 -21.265  16.760  0.00  0.00    -0.245 OA
ENDBRANCH  27  28
ENDBRANCH  26  27
ENDBRANCH  25  26
ENDBRANCH  22  25
ENDBRANCH  18  19
ENDBRANCH  17  18
ENDBRANCH  16  17
ENDBRANCH   1  16
TORSDOF 9
ENDMDL
ENDMDL
