REMARK  Name = No_2559-gen_results/8p0m/2024-11-26-14-13-15/
REMARK  6 active torsions:
REMARK  status: ('A' for Active; 'I' for Inactive)
REMARK    1  A    between atoms: C_2  and  C_7
REMARK    2  A    between atoms: C_4  and  C_15
REMARK    3  A    between atoms: C_7  and  C_8
REMARK    4  A    between atoms: C_15  and  C_16
REMARK    5  A    between atoms: C_15  and  C_17
REMARK    6  A    between atoms: C_18  and  C_19
REMARK                            x       y       z     vdW  Elec       q    Type
REMARK                         _______ _______ _______ _____ _____    ______ ____
ROOT
ATOM      1  C   UNL A   1     -28.016  -0.814  28.878  0.00  0.00    +0.102 A 
ATOM      2  C   UNL A   1     -28.469  -0.785  29.829  0.00  0.00    +0.058 A 
ATOM      3  N   UNL A   1     -26.608  -0.945  28.857  0.00  0.00    -0.248 NA
ATOM      4  C   UNL A   1     -25.910  -0.300  29.328  0.00  0.00    +0.064 A 
ATOM      5  C   UNL A   1     -26.330   0.187  30.760  0.00  0.00    +0.015 A 
ATOM      6  C   UNL A   1     -27.785   0.085  31.002  0.00  0.00    +0.006 A 
ENDROOT
BRANCH   2   7
ATOM      7  C   UNL A   1     -29.981  -0.889  30.214  0.00  0.00    +0.197 C 
ATOM      8  O   UNL A   1     -30.755  -0.030  29.920  0.00  0.00    -0.286 OA
BRANCH   7   9
ATOM      9  C   UNL A   1     -30.280  -2.110  30.780  0.00  0.00    +0.039 A 
ATOM     10  C   UNL A   1     -29.429  -2.854  31.357  0.00  0.00    +0.003 A 
ATOM     11  C   UNL A   1     -29.723  -4.271  31.794  0.00  0.00    +0.000 A 
ATOM     12  C   UNL A   1     -30.986  -4.704  31.591  0.00  0.00    +0.000 A 
ATOM     13  C   UNL A   1     -31.933  -3.891  30.957  0.00  0.00    +0.000 A 
ATOM     14  C   UNL A   1     -31.587  -2.674  30.555  0.00  0.00    +0.003 A 
ENDBRANCH   7   9
ENDBRANCH   2   7
BRANCH   4  15
ATOM     15  C   UNL A   1     -24.416  -0.257  29.232  0.00  0.00    +0.078 C 
BRANCH  15  16
ATOM     16  C   UNL A   1     -23.412  -0.996  29.690  0.00  0.00    +0.105 C 
ATOM     17 CL   UNL A   1     -23.700  -2.434  30.484  0.00  0.00    -0.113 Cl
ENDBRANCH  15  16
BRANCH  15  18
ATOM     18  C   UNL A   1     -23.913   1.087  28.685  0.00  0.00    -0.019 C 
ATOM     19  C   UNL A   1     -23.007   1.214  28.248  0.00  0.00    -0.004 C 
BRANCH  19  20
ATOM     20  C   UNL A   1     -21.728   0.487  28.620  0.00  0.00    -0.000 C 
ATOM     21  C   UNL A   1     -22.026  -0.698  29.317  0.00  0.00    -0.000 C 
ENDBRANCH  19  20
ENDBRANCH  15  18
ENDBRANCH   4  15
TORSDOF 6
