MODEL 2559
MODEL 1
REMARK VINA RESULT:    -6.085      0.000      0.000
REMARK INTER + INTRA:          -9.119
REMARK INTER:                  -8.220
REMARK INTRA:                  -0.899
REMARK UNBOUND:                -0.899
REMARK  Name = No_2559-gen_results/8p0m/2024-11-26-14-13-15/
REMARK  6 active torsions:
REMARK  status: ('A' for Active; 'I' for Inactive)
REMARK    1  A    between atoms: C_2  and  C_7
REMARK    2  A    between atoms: C_4  and  C_15
REMARK    3  A    between atoms: C_7  and  C_8
REMARK    4  A    between atoms: C_15  and  C_16
REMARK    5  A    between atoms: C_15  and  C_17
REMARK    6  A    between atoms: C_18  and  C_19
REMARK                            x       y       z     vdW  Elec       q    Type
REMARK                         _______ _______ _______ _____ _____    ______ ____
ROOT
ATOM      1  C   UNL A   1      -8.339   0.734  37.170  0.00  0.00    +0.102 A 
ATOM      2  C   UNL A   1      -8.793   0.405  36.278  0.00  0.00    +0.058 A 
ATOM      3  N   UNL A   1      -8.971   0.349  38.375  0.00  0.00    -0.248 NA
ATOM      4  C   UNL A   1      -9.978   0.545  38.647  0.00  0.00    +0.064 A 
ATOM      5  C   UNL A   1     -11.015   0.378  37.480  0.00  0.00    +0.015 A 
ATOM      6  C   UNL A   1     -10.398   0.468  36.140  0.00  0.00    +0.006 A 
ENDROOT
BRANCH   2   7
ATOM      7  C   UNL A   1      -8.246   0.438  34.814  0.00  0.00    +0.197 C 
ATOM      8  O   UNL A   1      -8.744   1.135  33.983  0.00  0.00    -0.286 OA
BRANCH   7   9
ATOM      9  C   UNL A   1      -7.092  -0.305  34.683  0.00  0.00    +0.039 A 
ATOM     10  C   UNL A   1      -7.071  -1.563  34.519  0.00  0.00    +0.003 A 
ATOM     11  C   UNL A   1      -5.806  -2.389  34.579  0.00  0.00    +0.000 A 
ATOM     12  C   UNL A   1      -4.657  -1.702  34.761  0.00  0.00    +0.000 A 
ATOM     13  C   UNL A   1      -4.669  -0.314  34.941  0.00  0.00    +0.000 A 
ATOM     14  C   UNL A   1      -5.825   0.339  34.926  0.00  0.00    +0.003 A 
ENDBRANCH   7   9
ENDBRANCH   2   7
BRANCH   4  15
ATOM     15  C   UNL A   1     -10.688   0.327  39.947  0.00  0.00    +0.078 C 
BRANCH  15  16
ATOM     16  C   UNL A   1     -11.420   1.073  40.768  0.00  0.00    +0.105 C 
ATOM     17 CL   UNL A   1     -12.958   1.558  40.342  0.00  0.00    -0.113 Cl
ENDBRANCH  15  16
BRANCH  15  18
ATOM     18  C   UNL A   1     -10.275  -0.992  40.615  0.00  0.00    -0.019 C 
ATOM     19  C   UNL A   1     -10.693  -1.890  40.396  0.00  0.00    -0.004 C 
BRANCH  19  20
ATOM     20  C   UNL A   1     -12.142  -2.129  40.016  0.00  0.00    -0.000 C 
ATOM     21  C   UNL A   1     -12.219  -2.753  38.757  0.00  0.00    -0.000 C 
ENDBRANCH  19  20
ENDBRANCH  15  18
ENDBRANCH   4  15
TORSDOF 6
ENDMDL
ENDMDL
