MODEL 255
MODEL 1
REMARK VINA RESULT:    -5.685      0.000      0.000
REMARK INTER + INTRA:          -6.491
REMARK INTER:                  -6.349
REMARK INTRA:                  -0.141
REMARK UNBOUND:                -0.141
REMARK  Name = No_255-gen_results/8p0m/2024-11-26-14-13-15/
REMARK  2 active torsions:
REMARK  status: ('A' for Active; 'I' for Inactive)
REMARK    1  A    between atoms: C_1  and  C_7
REMARK    2  A    between atoms: C_5  and  C_10
REMARK                            x       y       z     vdW  Elec       q    Type
REMARK                         _______ _______ _______ _____ _____    ______ ____
ROOT
ATOM      1  C   UNL A   1     -28.109 -11.409  32.355  0.00  0.00    +0.080 A 
ATOM      2  C   UNL A   1     -28.880 -10.582  32.785  0.00  0.00    +0.007 A 
ATOM      3  C   UNL A   1     -29.804  -9.918  32.001  0.00  0.00    +0.000 A 
ATOM      4  C   UNL A   1     -29.874 -10.257  30.621  0.00  0.00    +0.006 A 
ATOM      5  C   UNL A   1     -29.113 -11.303  30.225  0.00  0.00    +0.068 A 
ATOM      6  C   UNL A   1     -28.285 -11.908  31.056  0.00  0.00    +0.012 A 
ENDROOT
BRANCH   1   7
ATOM      7  C   UNL A   1     -27.164 -12.254  33.126  0.00  0.00    +0.388 C 
ATOM      8  O   UNL A   1     -26.382 -12.886  32.440  0.00  0.00    -0.241 OA
ATOM      9  O   UNL A   1     -27.185 -12.430  34.357  0.00  0.00    -0.241 OA
ENDBRANCH   1   7
BRANCH   5  10
ATOM     10  C   UNL A   1     -29.234 -11.650  28.784  0.00  0.00    +0.333 C 
ATOM     11  O   UNL A   1     -29.136 -12.711  28.247  0.00  0.00    -0.254 OA
ATOM     12  F   UNL A   1     -29.746 -10.672  28.040  0.00  0.00    -0.159 F 
ENDBRANCH   5  10
TORSDOF 2
ENDMDL
ENDMDL
