REMARK  Name = No_256-gen_results/8p0m/2024-11-26-14-13-15/
REMARK  2 active torsions:
REMARK  status: ('A' for Active; 'I' for Inactive)
REMARK    1  A    between atoms: N_1  and  C_2
REMARK    2  A    between atoms: N_1  and  C_3
REMARK                            x       y       z     vdW  Elec       q    Type
REMARK                         _______ _______ _______ _____ _____    ______ ____
ROOT
ATOM      1  C   UNL A   1     -26.695  -1.322  29.024  0.00  0.00    +0.067 A 
ATOM      2  C   UNL A   1     -25.651  -1.103  28.165  0.00  0.00    +0.016 A 
ATOM      3  C   UNL A   1     -24.302  -1.289  28.615  0.00  0.00    +0.001 A 
ATOM      4  C   UNL A   1     -24.097  -1.751  29.912  0.00  0.00    +0.000 A 
ATOM      5  C   UNL A   1     -25.123  -1.964  30.782  0.00  0.00    +0.001 A 
ATOM      6  C   UNL A   1     -26.387  -1.759  30.351  0.00  0.00    +0.016 A 
ENDROOT
BRANCH   1   7
ATOM      7  N   UNL A   1     -28.054  -1.050  28.725  0.00  0.00    -0.217 NA
BRANCH   7   8
ATOM      8  C   UNL A   1     -28.654  -0.567  29.508  0.00  0.00    +0.221 C 
ATOM      9  N   UNL A   1     -28.482  -0.852  30.866  0.00  0.00    -0.106 NA
ENDBRANCH   7   8
ENDBRANCH   1   7
TORSDOF 2
