REMARK  Name = No_2560-gen_results/8p0m/2024-11-26-14-13-15/
REMARK  3 active torsions:
REMARK  status: ('A' for Active; 'I' for Inactive)
REMARK    1  A    between atoms: C_3  and  P_9
REMARK    2  A    between atoms: P_9  and  O_10
REMARK    3  A    between atoms: P_9  and  O_12
REMARK                            x       y       z     vdW  Elec       q    Type
REMARK                         _______ _______ _______ _____ _____    ______ ____
ROOT
ATOM      1  C   UNL A   1     -28.016  -0.814  28.878  0.00  0.00    +0.009 A 
ATOM      2  C   UNL A   1     -27.064  -0.119  28.608  0.00  0.00    +0.042 A 
ATOM      3  C   UNL A   1     -26.929   1.171  29.008  0.00  0.00    +0.093 A 
ATOM      4  C   UNL A   1     -27.956   1.741  29.784  0.00  0.00    +0.038 A 
ATOM      5  C   UNL A   1     -29.057  -0.327  29.747  0.00  0.00    +0.030 A 
ATOM      6  C   UNL A   1     -28.983   0.972  30.152  0.00  0.00    +0.140 A 
ATOM      7 BR   UNL A   1     -25.547  -0.632  27.481  0.00  0.00    -0.049 Br
ATOM      8  F   UNL A   1     -29.963   1.414  30.951  0.00  0.00    -0.204 F 
ENDROOT
BRANCH   3   9
ATOM      9  P   UNL A   1     -25.520   2.250  28.487  0.00  0.00    +0.426 P 
ATOM     10  O   UNL A   1     -25.618   2.341  26.953  0.00  0.00    -0.248 OA
BRANCH   9  11
ATOM     11  O   UNL A   1     -25.757   3.591  29.030  0.00  0.00    -0.100 OA
ATOM     12  F   UNL A   1     -25.480   3.827  30.152  0.00  0.00    -0.039 F 
ENDBRANCH   9  11
BRANCH   9  13
ATOM     13  O   UNL A   1     -24.247   1.660  28.976  0.00  0.00    -0.100 OA
ATOM     14  F   UNL A   1     -24.232   1.024  29.960  0.00  0.00    -0.039 F 
ENDBRANCH   9  13
ENDBRANCH   3   9
TORSDOF 3
