MODEL 2560
MODEL 1
REMARK VINA RESULT:    -5.738      0.000      0.000
REMARK INTER + INTRA:          -6.251
REMARK INTER:                  -6.745
REMARK INTRA:                   0.493
REMARK UNBOUND:                 0.493
REMARK  Name = No_2560-gen_results/8p0m/2024-11-26-14-13-15/
REMARK  3 active torsions:
REMARK  status: ('A' for Active; 'I' for Inactive)
REMARK    1  A    between atoms: C_3  and  P_9
REMARK    2  A    between atoms: P_9  and  O_10
REMARK    3  A    between atoms: P_9  and  O_12
REMARK                            x       y       z     vdW  Elec       q    Type
REMARK                         _______ _______ _______ _____ _____    ______ ____
ROOT
ATOM      1  C   UNL A   1     -26.429  -3.223  30.058  0.00  0.00    +0.009 A 
ATOM      2  C   UNL A   1     -25.649  -2.303  29.971  0.00  0.00    +0.042 A 
ATOM      3  C   UNL A   1     -24.401  -2.415  29.449  0.00  0.00    +0.093 A 
ATOM      4  C   UNL A   1     -23.983  -3.674  28.979  0.00  0.00    +0.038 A 
ATOM      5  C   UNL A   1     -26.104  -4.515  29.512  0.00  0.00    +0.030 A 
ATOM      6  C   UNL A   1     -24.852  -4.687  29.003  0.00  0.00    +0.140 A 
ATOM      7 BR   UNL A   1     -25.942  -0.479  30.620  0.00  0.00    -0.049 Br
ATOM      8  F   UNL A   1     -24.560  -5.897  28.507  0.00  0.00    -0.204 F 
ENDROOT
BRANCH   3   9
ATOM      9  P   UNL A   1     -23.184  -1.022  29.430  0.00  0.00    +0.426 P 
ATOM     10  O   UNL A   1     -22.985  -0.631  30.906  0.00  0.00    -0.248 OA
BRANCH   9  11
ATOM     11  O   UNL A   1     -21.909  -1.548  28.932  0.00  0.00    -0.100 OA
ATOM     12  F   UNL A   1     -21.025  -0.807  28.686  0.00  0.00    -0.039 F 
ENDBRANCH   9  11
BRANCH   9  13
ATOM     13  O   UNL A   1     -23.711   0.076  28.580  0.00  0.00    -0.100 OA
ATOM     14  F   UNL A   1     -23.450   0.116  27.439  0.00  0.00    -0.039 F 
ENDBRANCH   9  13
ENDBRANCH   3   9
TORSDOF 3
ENDMDL
ENDMDL
