REMARK  Name = No_2561-gen_results/8p0m/2024-11-26-14-13-15/
REMARK  0 active torsions:
REMARK  status: ('A' for Active; 'I' for Inactive)
REMARK                            x       y       z     vdW  Elec       q    Type
REMARK                         _______ _______ _______ _____ _____    ______ ____
ROOT
ATOM      1  C   UNL A   1     -28.016  -0.814  28.878  0.00  0.00    +0.030 A 
ATOM      2  C   UNL A   1     -27.064  -0.119  28.608  0.00  0.00    +0.005 A 
ATOM      3  C   UNL A   1     -25.792  -0.430  29.076  0.00  0.00    +0.037 A 
ATOM      4  C   UNL A   1     -25.576  -1.565  29.936  0.00  0.00    +0.141 A 
ATOM      5  C   UNL A   1     -26.735  -2.300  30.217  0.00  0.00    +0.067 A 
ATOM      6  C   UNL A   1     -27.918  -1.954  29.763  0.00  0.00    +0.143 A 
ATOM      7  C   UNL A   1     -26.897   1.102  27.705  0.00  0.00    +0.000 A 
ATOM      8  C   UNL A   1     -27.706   1.429  26.966  0.00  0.00    +0.000 A 
ATOM      9  C   UNL A   1     -27.576   2.494  26.029  0.00  0.00    +0.000 A 
ATOM     10  C   UNL A   1     -26.386   3.277  26.045  0.00  0.00    +0.008 A 
ATOM     11  C   UNL A   1     -25.375   2.911  26.927  0.00  0.00    +0.091 A 
ATOM     12  C   UNL A   1     -25.571   1.855  27.748  0.00  0.00    +0.008 A 
ATOM     13  F   UNL A   1     -28.966  -2.678  30.103  0.00  0.00    -0.204 F 
ATOM     14  C   UNL A   1     -24.152   3.714  26.923  0.00  0.00    +0.421 C 
ATOM     15  N   UNL A   1     -24.308   4.896  26.725  0.00  0.00    +0.198 NA
ATOM     16  N   UNL A   1     -22.999   3.064  27.048  0.00  0.00    +0.036 NA
ATOM     17  C   UNL A   1     -22.615   1.804  27.014  0.00  0.00    +0.354 C 
ATOM     18  C   UNL A   1     -21.387   1.520  27.706  0.00  0.00    +0.140 C 
ATOM     19  O   UNL A   1     -23.375   0.934  26.659  0.00  0.00    -0.243 OA
ATOM     20  C   UNL A   1     -21.337   0.640  28.894  0.00  0.00    +0.128 C 
ATOM     21  N   UNL A   1     -22.413   0.527  29.579  0.00  0.00    -0.202 NA
ATOM     22  O   UNL A   1     -24.332  -1.810  30.220  0.00  0.00    -0.466 OA
ATOM     23  C   UNL A   1     -23.803  -1.226  31.367  0.00  0.00    +0.291 C 
ATOM     24  C   UNL A   1     -22.805  -0.621  30.405  0.00  0.00    +0.286 C 
ATOM     25  O   UNL A   1     -21.639  -1.349  30.452  0.00  0.00    -0.269 OA
ENDROOT
TORSDOF 0
