MODEL 2561
MODEL 1
REMARK VINA RESULT:    -7.360      0.000      0.000
REMARK INTER + INTRA:          -7.360
REMARK INTER:                  -7.360
REMARK INTRA:                   0.000
REMARK UNBOUND:                 0.000
REMARK  Name = No_2561-gen_results/8p0m/2024-11-26-14-13-15/
REMARK  0 active torsions:
REMARK  status: ('A' for Active; 'I' for Inactive)
REMARK                            x       y       z     vdW  Elec       q    Type
REMARK                         _______ _______ _______ _____ _____    ______ ____
ROOT
ATOM      1  C   UNL A   1     -15.183   3.366  35.846  0.00  0.00    +0.030 A 
ATOM      2  C   UNL A   1     -14.093   2.859  35.974  0.00  0.00    +0.005 A 
ATOM      3  C   UNL A   1     -13.539   2.654  37.233  0.00  0.00    +0.037 A 
ATOM      4  C   UNL A   1     -14.228   3.083  38.423  0.00  0.00    +0.141 A 
ATOM      5  C   UNL A   1     -15.471   3.681  38.182  0.00  0.00    +0.067 A 
ATOM      6  C   UNL A   1     -15.942   3.867  36.971  0.00  0.00    +0.143 A 
ATOM      7  C   UNL A   1     -13.114   2.244  34.975  0.00  0.00    +0.000 A 
ATOM      8  C   UNL A   1     -13.410   2.014  33.894  0.00  0.00    +0.000 A 
ATOM      9  C   UNL A   1     -12.581   1.353  32.943  0.00  0.00    +0.000 A 
ATOM     10  C   UNL A   1     -11.249   1.011  33.316  0.00  0.00    +0.008 A 
ATOM     11  C   UNL A   1     -10.850   1.272  34.623  0.00  0.00    +0.091 A 
ATOM     12  C   UNL A   1     -11.723   1.861  35.470  0.00  0.00    +0.008 A 
ATOM     13  F   UNL A   1     -17.105   4.472  36.827  0.00  0.00    -0.204 F 
ATOM     14  C   UNL A   1      -9.485   0.902  34.998  0.00  0.00    +0.421 C 
ATOM     15  N   UNL A   1      -8.654   1.038  34.132  0.00  0.00    +0.198 NA
ATOM     16  N   UNL A   1      -9.309   0.379  36.207  0.00  0.00    +0.036 NA
ATOM     17  C   UNL A   1     -10.093  -0.076  37.165  0.00  0.00    +0.354 C 
ATOM     18  C   UNL A   1      -9.520  -0.059  38.483  0.00  0.00    +0.140 C 
ATOM     19  O   UNL A   1     -11.275  -0.236  36.974  0.00  0.00    -0.243 OA
ATOM     20  C   UNL A   1     -10.068   0.781  39.570  0.00  0.00    +0.128 C 
ATOM     21  N   UNL A   1     -10.722   1.826  39.223  0.00  0.00    -0.202 NA
ATOM     22  O   UNL A   1     -13.657   2.742  39.540  0.00  0.00    -0.466 OA
ATOM     23  C   UNL A   1     -12.756   3.639  40.106  0.00  0.00    +0.291 C 
ATOM     24  C   UNL A   1     -11.784   2.486  39.992  0.00  0.00    +0.286 C 
ATOM     25  O   UNL A   1     -11.671   1.872  41.218  0.00  0.00    -0.269 OA
ENDROOT
TORSDOF 0
ENDMDL
ENDMDL
