REMARK  Name = No_2562-gen_results/8p0m/2024-11-26-14-13-15/
REMARK  2 active torsions:
REMARK  status: ('A' for Active; 'I' for Inactive)
REMARK    1  A    between atoms: C_6  and  C_12
REMARK    2  A    between atoms: C_10  and  C_15
REMARK                            x       y       z     vdW  Elec       q    Type
REMARK                         _______ _______ _______ _____ _____    ______ ____
ROOT
ATOM      1  C   UNL A   1     -28.016  -0.814  28.878  0.00  0.00    +0.007 A 
ATOM      2  C   UNL A   1     -27.064  -0.119  28.608  0.00  0.00    +0.000 A 
ATOM      3  C   UNL A   1     -25.792  -0.430  29.076  0.00  0.00    -0.000 A 
ATOM      4  C   UNL A   1     -25.576  -1.565  29.936  0.00  0.00    +0.000 A 
ATOM      5  C   UNL A   1     -26.735  -2.300  30.217  0.00  0.00    +0.007 A 
ATOM      6  C   UNL A   1     -27.918  -1.954  29.763  0.00  0.00    +0.080 A 
ATOM      7  C   UNL A   1     -27.106   1.102  27.759  0.00  0.00    +0.002 A 
ATOM      8  C   UNL A   1     -26.122   1.482  27.023  0.00  0.00    +0.029 A 
ATOM      9  C   UNL A   1     -24.714   1.130  27.489  0.00  0.00    +0.138 A 
ATOM     10  C   UNL A   1     -24.572   0.097  28.407  0.00  0.00    +0.024 A 
ATOM     11  F   UNL A   1     -23.669   1.702  26.949  0.00  0.00    -0.204 F 
ENDROOT
BRANCH   6  12
ATOM     12  C   UNL A   1     -29.071  -2.745  30.257  0.00  0.00    +0.388 C 
ATOM     13  O   UNL A   1     -30.110  -2.433  30.147  0.00  0.00    -0.241 OA
ATOM     14  O   UNL A   1     -28.762  -3.916  30.819  0.00  0.00    -0.241 OA
ENDBRANCH   6  12
BRANCH  10  15
ATOM     15  C   UNL A   1     -23.194  -0.250  28.808  0.00  0.00    +0.138 C 
ATOM     16  N   UNL A   1     -22.263   0.647  28.795  0.00  0.00    -0.126 NA
ENDBRANCH  10  15
TORSDOF 2
