MODEL 2562
MODEL 1
REMARK VINA RESULT:    -6.571      0.000      0.000
REMARK INTER + INTRA:          -7.510
REMARK INTER:                  -7.340
REMARK INTRA:                  -0.171
REMARK UNBOUND:                -0.171
REMARK  Name = No_2562-gen_results/8p0m/2024-11-26-14-13-15/
REMARK  2 active torsions:
REMARK  status: ('A' for Active; 'I' for Inactive)
REMARK    1  A    between atoms: C_6  and  C_12
REMARK    2  A    between atoms: C_10  and  C_15
REMARK                            x       y       z     vdW  Elec       q    Type
REMARK                         _______ _______ _______ _____ _____    ______ ____
ROOT
ATOM      1  C   UNL A   1     -28.106 -11.867  31.258  0.00  0.00    +0.007 A 
ATOM      2  C   UNL A   1     -28.946 -11.547  30.449  0.00  0.00    +0.000 A 
ATOM      3  C   UNL A   1     -29.884 -10.563  30.739  0.00  0.00    -0.000 A 
ATOM      4  C   UNL A   1     -29.914  -9.925  32.030  0.00  0.00    +0.000 A 
ATOM      5  C   UNL A   1     -28.922 -10.372  32.913  0.00  0.00    +0.007 A 
ATOM      6  C   UNL A   1     -28.069 -11.318  32.596  0.00  0.00    +0.080 A 
ATOM      7  C   UNL A   1     -29.081 -12.117  29.081  0.00  0.00    +0.002 A 
ATOM      8  C   UNL A   1     -29.526 -11.444  28.079  0.00  0.00    +0.029 A 
ATOM      9  C   UNL A   1     -30.532 -10.335  28.364  0.00  0.00    +0.138 A 
ATOM     10  C   UNL A   1     -30.597  -9.832  29.657  0.00  0.00    +0.024 A 
ATOM     11  F   UNL A   1     -31.223  -9.795  27.393  0.00  0.00    -0.204 F 
ENDROOT
BRANCH   6  12
ATOM     12  C   UNL A   1     -27.168 -11.784  33.678  0.00  0.00    +0.388 C 
ATOM     13  O   UNL A   1     -26.741 -12.787  33.720  0.00  0.00    -0.241 OA
ATOM     14  O   UNL A   1     -26.863 -10.870  34.601  0.00  0.00    -0.241 OA
ENDBRANCH   6  12
BRANCH  10  15
ATOM     15  C   UNL A   1     -31.551  -8.730  29.893  0.00  0.00    +0.138 C 
ATOM     16  N   UNL A   1     -31.224  -7.510  29.615  0.00  0.00    -0.126 NA
ENDBRANCH  10  15
TORSDOF 2
ENDMDL
ENDMDL
