MODEL 2563
MODEL 1
REMARK VINA RESULT:    -7.148      0.000      0.000
REMARK INTER + INTRA:          -8.471
REMARK INTER:                  -7.984
REMARK INTRA:                  -0.486
REMARK UNBOUND:                -0.486
REMARK  Name = No_2563-gen_results/8p0m/2024-11-26-14-13-15/
REMARK  2 active torsions:
REMARK  status: ('A' for Active; 'I' for Inactive)
REMARK    1  A    between atoms: C_1  and  C_2
REMARK    2  A    between atoms: C_5  and  C_13
REMARK                            x       y       z     vdW  Elec       q    Type
REMARK                         _______ _______ _______ _____ _____    ______ ____
ROOT
ATOM      1  C   UNL A   1     -24.084  -1.657  28.824  0.00  0.00    +0.018 A 
ATOM      2  C   UNL A   1     -22.862  -1.115  29.186  0.00  0.00    +0.001 A 
ATOM      3  C   UNL A   1     -22.265   0.083  28.647  0.00  0.00    +0.004 A 
ATOM      4  C   UNL A   1     -22.966   0.795  27.644  0.00  0.00    +0.071 A 
ATOM      5  C   UNL A   1     -24.252   0.274  27.271  0.00  0.00    +0.004 A 
ATOM      6  C   UNL A   1     -24.811  -0.849  27.814  0.00  0.00    +0.001 A 
ENDROOT
BRANCH   1   7
ATOM      7  C   UNL A   1     -24.596  -2.625  29.338  0.00  0.00    +0.081 A 
ATOM      8  N   UNL A   1     -26.007  -2.658  29.539  0.00  0.00    -0.244 NA
ATOM      9  C   UNL A   1     -26.657  -3.771  29.998  0.00  0.00    +0.099 A 
ATOM     10  C   UNL A   1     -26.265  -4.975  29.575  0.00  0.00    +0.021 A 
ATOM     11  C   UNL A   1     -24.891  -5.052  29.139  0.00  0.00    +0.003 A 
ATOM     12  C   UNL A   1     -24.184  -3.903  28.874  0.00  0.00    +0.019 A 
ENDBRANCH   1   7
BRANCH   4  13
ATOM     13  C   UNL A   1     -22.437   1.992  27.053  0.00  0.00    +0.419 C 
ATOM     14  F   UNL A   1     -23.115   2.999  27.301  0.00  0.00    -0.166 F 
ATOM     15  F   UNL A   1     -22.267   1.878  25.746  0.00  0.00    -0.166 F 
ATOM     16  F   UNL A   1     -21.168   2.239  27.565  0.00  0.00    -0.166 F 
ENDBRANCH   4  13
TORSDOF 2
ENDMDL
ENDMDL
