REMARK  Name = No_2563-gen_results/8p0m/2024-11-26-14-13-15/
REMARK  2 active torsions:
REMARK  status: ('A' for Active; 'I' for Inactive)
REMARK    1  A    between atoms: C_1  and  C_2
REMARK    2  A    between atoms: C_5  and  C_13
REMARK                            x       y       z     vdW  Elec       q    Type
REMARK                         _______ _______ _______ _____ _____    ______ ____
ROOT
ATOM      1  C   UNL A   1     -27.064  -0.119  28.608  0.00  0.00    +0.018 A 
ATOM      2  C   UNL A   1     -26.972   0.714  27.506  0.00  0.00    +0.001 A 
ATOM      3  C   UNL A   1     -25.820   1.491  27.116  0.00  0.00    +0.004 A 
ATOM      4  C   UNL A   1     -24.656   1.424  27.918  0.00  0.00    +0.071 A 
ATOM      5  C   UNL A   1     -24.711   0.542  29.051  0.00  0.00    +0.004 A 
ATOM      6  C   UNL A   1     -25.804  -0.206  29.388  0.00  0.00    +0.001 A 
ENDROOT
BRANCH   1   7
ATOM      7  C   UNL A   1     -28.016  -0.814  28.878  0.00  0.00    +0.081 A 
ATOM      8  N   UNL A   1     -27.973  -1.664  30.022  0.00  0.00    -0.244 NA
ATOM      9  C   UNL A   1     -29.060  -2.376  30.448  0.00  0.00    +0.099 A 
ATOM     10  C   UNL A   1     -30.271  -1.816  30.387  0.00  0.00    +0.021 A 
ATOM     11  C   UNL A   1     -30.414  -0.777  29.395  0.00  0.00    +0.003 A 
ATOM     12  C   UNL A   1     -29.300  -0.209  28.824  0.00  0.00    +0.019 A 
ENDBRANCH   1   7
BRANCH   4  13
ATOM     13  C   UNL A   1     -23.471   2.171  27.601  0.00  0.00    +0.419 C 
ATOM     14  F   UNL A   1     -22.569   2.034  28.439  0.00  0.00    -0.166 F 
ATOM     15  F   UNL A   1     -23.719   3.458  27.417  0.00  0.00    -0.166 F 
ATOM     16  F   UNL A   1     -22.953   1.724  26.390  0.00  0.00    -0.166 F 
ENDBRANCH   4  13
TORSDOF 2
