MODEL 2564
MODEL 1
REMARK VINA RESULT:    -5.449      0.000      0.000
REMARK INTER + INTRA:          -5.851
REMARK INTER:                  -5.768
REMARK INTRA:                  -0.083
REMARK UNBOUND:                -0.083
REMARK  Name = No_2564-gen_results/8p0m/2024-11-26-14-13-15/
REMARK  1 active torsions:
REMARK  status: ('A' for Active; 'I' for Inactive)
REMARK    1  A    between atoms: C_4  and  C_9
REMARK                            x       y       z     vdW  Elec       q    Type
REMARK                         _______ _______ _______ _____ _____    ______ ____
ROOT
ATOM      1  C   UNL A   1     -10.442  -9.246  18.627  0.00  0.00    +0.036 C 
ATOM      2  C   UNL A   1     -10.439 -10.237  18.270  0.00  0.00    +0.182 C 
ATOM      3  C   UNL A   1      -9.557  -8.983  19.825  0.00  0.00    +0.008 C 
ATOM      4  C   UNL A   1      -8.236  -9.398  19.762  0.00  0.00    +0.070 C 
ATOM      5  C   UNL A   1      -9.103 -10.917  17.802  0.00  0.00    +0.182 C 
ATOM      6  C   UNL A   1      -8.104 -10.753  18.923  0.00  0.00    +0.041 C 
ATOM      7  O   UNL A   1      -9.103 -12.260  17.497  0.00  0.00    -0.220 OA
ATOM      8  O   UNL A   1     -11.253 -10.523  16.976  0.00  0.00    -0.220 OA
ENDROOT
BRANCH   4   9
ATOM      9  C   UNL A   1      -7.164  -8.738  20.294  0.00  0.00    +0.319 C 
ATOM     10  F   UNL A   1      -6.627  -8.063  19.272  0.00  0.00    -0.198 F 
ATOM     11  F   UNL A   1      -6.241  -9.596  20.633  0.00  0.00    -0.198 F 
ENDBRANCH   4   9
TORSDOF 1
ENDMDL
ENDMDL
