REMARK  Name = No_2565-gen_results/8p0m/2024-11-26-14-13-15/
REMARK  1 active torsions:
REMARK  status: ('A' for Active; 'I' for Inactive)
REMARK    1  A    between atoms: C_5  and  C_11
REMARK                            x       y       z     vdW  Elec       q    Type
REMARK                         _______ _______ _______ _____ _____    ______ ____
ROOT
ATOM      1  C   UNL A   1     -28.016  -0.814  28.878  0.00  0.00    -0.000 A 
ATOM      2  C   UNL A   1     -27.064  -0.119  28.608  0.00  0.00    -0.000 A 
ATOM      3  C   UNL A   1     -25.765  -0.390  29.036  0.00  0.00    -0.000 A 
ATOM      4  C   UNL A   1     -24.552   0.406  28.765  0.00  0.00    -0.003 A 
ATOM      5  C   UNL A   1     -24.696   1.448  27.799  0.00  0.00    -0.003 A 
ATOM      6  C   UNL A   1     -25.976   1.725  27.308  0.00  0.00    -0.003 A 
ATOM      7  C   UNL A   1     -27.072   1.013  27.654  0.00  0.00    -0.000 A 
ATOM      8  C   UNL A   1     -27.965  -1.622  30.136  0.00  0.00    -0.000 A 
ATOM      9  C   UNL A   1     -26.674  -2.151  30.497  0.00  0.00    -0.000 A 
ATOM     10  C   UNL A   1     -25.553  -1.413  30.082  0.00  0.00    -0.000 A 
ENDROOT
BRANCH   5  11
ATOM     11  C   UNL A   1     -23.481   2.232  27.459  0.00  0.00    +0.136 C 
ATOM     12  N   UNL A   1     -22.400   1.532  27.072  0.00  0.00    -0.126 NA
ENDBRANCH   5  11
TORSDOF 1
