MODEL 2565
MODEL 1
REMARK VINA RESULT:    -5.902      0.000      0.000
REMARK INTER + INTRA:          -6.282
REMARK INTER:                  -6.247
REMARK INTRA:                  -0.036
REMARK UNBOUND:                -0.036
REMARK  Name = No_2565-gen_results/8p0m/2024-11-26-14-13-15/
REMARK  1 active torsions:
REMARK  status: ('A' for Active; 'I' for Inactive)
REMARK    1  A    between atoms: C_5  and  C_11
REMARK                            x       y       z     vdW  Elec       q    Type
REMARK                         _______ _______ _______ _____ _____    ______ ____
ROOT
ATOM      1  C   UNL A   1     -30.746  -9.746  29.646  0.00  0.00    -0.000 A 
ATOM      2  C   UNL A   1     -30.017 -10.310  30.429  0.00  0.00    -0.000 A 
ATOM      3  C   UNL A   1     -29.071 -11.263  30.053  0.00  0.00    -0.000 A 
ATOM      4  C   UNL A   1     -28.152 -12.005  30.937  0.00  0.00    -0.003 A 
ATOM      5  C   UNL A   1     -28.091 -11.552  32.290  0.00  0.00    -0.003 A 
ATOM      6  C   UNL A   1     -28.992 -10.564  32.700  0.00  0.00    -0.003 A 
ATOM      7  C   UNL A   1     -29.873  -9.972  31.863  0.00  0.00    -0.000 A 
ATOM      8  C   UNL A   1     -31.090 -10.449  28.372  0.00  0.00    -0.000 A 
ATOM      9  C   UNL A   1     -30.048 -11.258  27.793  0.00  0.00    -0.000 A 
ATOM     10  C   UNL A   1     -29.120 -11.821  28.685  0.00  0.00    -0.000 A 
ENDROOT
BRANCH   5  11
ATOM     11  C   UNL A   1     -27.134 -12.240  33.195  0.00  0.00    +0.136 C 
ATOM     12  N   UNL A   1     -27.493 -12.345  34.486  0.00  0.00    -0.126 NA
ENDBRANCH   5  11
TORSDOF 1
ENDMDL
ENDMDL
