REMARK  Name = No_2566-gen_results/8p0m/2024-11-26-14-13-15/
REMARK  7 active torsions:
REMARK  status: ('A' for Active; 'I' for Inactive)
REMARK    1  A    between atoms: C_5  and  C_8
REMARK    2  A    between atoms: C_9  and  C_10
REMARK    3  A    between atoms: C_12  and  C_16
REMARK    4  A    between atoms: C_16  and  N_17
REMARK    5  A    between atoms: N_17  and  C_18
REMARK    6  A    between atoms: C_21  and  C_22
REMARK    7  A    between atoms: C_23  and  C_24
REMARK                            x       y       z     vdW  Elec       q    Type
REMARK                         _______ _______ _______ _____ _____    ______ ____
ROOT
ATOM      1  C   UNL A   1     -29.142   2.078  32.358  0.00  0.00    -0.000 A 
ATOM      2  C   UNL A   1     -29.708   3.084  31.871  0.00  0.00    -0.003 A 
ATOM      3  C   UNL A   1     -28.864   4.317  32.007  0.00  0.00    -0.001 A 
ATOM      4  C   UNL A   1     -28.129   2.398  33.340  0.00  0.00    -0.000 A 
ATOM      5  C   UNL A   1     -27.312   3.465  33.425  0.00  0.00    -0.000 A 
ATOM      6  C   UNL A   1     -27.774   4.551  32.694  0.00  0.00    -0.003 A 
ENDROOT
BRANCH   1   8
ATOM      7  C   UNL A   1     -30.027  -0.028  31.761  0.00  0.00    +0.000 C 
ATOM      8  C   UNL A   1     -29.989   0.952  32.573  0.00  0.00    -0.000 C 
BRANCH   7  13
ATOM      9  C   UNL A   1     -28.016  -0.814  28.878  0.00  0.00    +0.011 A 
ATOM     10  C   UNL A   1     -28.469  -0.785  29.829  0.00  0.00    +0.001 A 
ATOM     11  C   UNL A   1     -28.196   0.348  28.055  0.00  0.00    +0.058 A 
ATOM     12  C   UNL A   1     -29.019   1.350  28.378  0.00  0.00    +0.011 A 
ATOM     13  C   UNL A   1     -29.411   0.180  30.378  0.00  0.00    +0.000 A 
ATOM     14  C   UNL A   1     -29.606   1.250  29.619  0.00  0.00    +0.001 A 
ATOM     15 CL   UNL A   1     -27.347   0.376  26.515  0.00  0.00    -0.082 Cl
ENDBRANCH   7  13
ENDBRANCH   1   8
BRANCH   3  16
ATOM     16  C   UNL A   1     -29.401   5.550  31.114  0.00  0.00    +0.140 C 
BRANCH  16  17
ATOM     17  N   UNL A   1     -28.874   5.789  30.086  0.00  0.00    -0.215 NA
BRANCH  17  18
ATOM     18  C   UNL A   1     -27.594   5.743  29.888  0.00  0.00    +0.148 A 
ATOM     19  C   UNL A   1     -27.063   5.856  28.482  0.00  0.00    +0.036 A 
ATOM     20  C   UNL A   1     -26.638   4.795  27.978  0.00  0.00    +0.004 A 
ATOM     21  C   UNL A   1     -25.910   4.134  28.226  0.00  0.00    +0.019 A 
ATOM     22  C   UNL A   1     -25.937   3.892  29.823  0.00  0.00    +0.100 A 
ATOM     23  N   UNL A   1     -26.760   4.839  30.458  0.00  0.00    -0.228 NA
BRANCH  21  24
ATOM     24  C   UNL A   1     -25.278   2.963  27.634  0.00  0.00    +0.002 C 
ATOM     25  C   UNL A   1     -24.383   2.101  28.268  0.00  0.00    +0.000 C 
BRANCH  25  26
ATOM     26  C   UNL A   1     -24.434   2.106  29.677  0.00  0.00    +0.000 C 
ATOM     27  C   UNL A   1     -25.218   2.971  30.430  0.00  0.00    +0.000 C 
ENDBRANCH  25  26
ENDBRANCH  21  24
ENDBRANCH  17  18
ENDBRANCH  16  17
ENDBRANCH   3  16
TORSDOF 7
