MODEL 2566
MODEL 1
REMARK VINA RESULT:    -5.497      0.000      0.000
REMARK INTER + INTRA:         -11.438
REMARK INTER:                  -7.746
REMARK INTRA:                  -3.691
REMARK UNBOUND:                -3.691
REMARK  Name = No_2566-gen_results/8p0m/2024-11-26-14-13-15/
REMARK  7 active torsions:
REMARK  status: ('A' for Active; 'I' for Inactive)
REMARK    1  A    between atoms: C_5  and  C_8
REMARK    2  A    between atoms: C_9  and  C_10
REMARK    3  A    between atoms: C_12  and  C_16
REMARK    4  A    between atoms: C_16  and  N_17
REMARK    5  A    between atoms: N_17  and  C_18
REMARK    6  A    between atoms: C_21  and  C_22
REMARK    7  A    between atoms: C_23  and  C_24
REMARK                            x       y       z     vdW  Elec       q    Type
REMARK                         _______ _______ _______ _____ _____    ______ ____
ROOT
ATOM      1  C   UNL A   1     -32.283 -15.254   9.632  0.00  0.00    -0.000 A 
ATOM      2  C   UNL A   1     -31.900 -15.246  10.824  0.00  0.00    -0.003 A 
ATOM      3  C   UNL A   1     -30.413 -15.077  10.930  0.00  0.00    -0.001 A 
ATOM      4  C   UNL A   1     -31.245 -15.611   8.689  0.00  0.00    -0.000 A 
ATOM      5  C   UNL A   1     -29.917 -15.392   8.739  0.00  0.00    -0.000 A 
ATOM      6  C   UNL A   1     -29.467 -15.133  10.027  0.00  0.00    -0.003 A 
ENDROOT
BRANCH   1   8
ATOM      7  C   UNL A   1     -34.489 -15.047   8.816  0.00  0.00    +0.000 C 
ATOM      8  C   UNL A   1     -33.608 -15.736   9.424  0.00  0.00    -0.000 C 
BRANCH   7  13
ATOM      9  C   UNL A   1     -34.497 -11.538   9.630  0.00  0.00    +0.011 A 
ATOM     10  C   UNL A   1     -34.667 -12.578   9.593  0.00  0.00    +0.001 A 
ATOM     11  C   UNL A   1     -33.879 -10.956   8.473  0.00  0.00    +0.058 A 
ATOM     12  C   UNL A   1     -33.386 -11.683   7.466  0.00  0.00    +0.011 A 
ATOM     13  C   UNL A   1     -34.206 -13.558   8.620  0.00  0.00    +0.000 A 
ATOM     14  C   UNL A   1     -33.612 -13.038   7.555  0.00  0.00    +0.001 A 
ATOM     15 CL   UNL A   1     -33.697  -9.207   8.459  0.00  0.00    -0.082 Cl
ENDBRANCH   7  13
ENDBRANCH   1   8
BRANCH   3  16
ATOM     16  C   UNL A   1     -29.923 -14.736  12.430  0.00  0.00    +0.140 C 
BRANCH  16  17
ATOM     17  N   UNL A   1     -30.422 -13.837  13.009  0.00  0.00    -0.215 NA
BRANCH  17  18
ATOM     18  C   UNL A   1     -30.226 -12.586  12.732  0.00  0.00    +0.148 A 
ATOM     19  C   UNL A   1     -31.322 -11.801  12.058  0.00  0.00    +0.036 A 
ATOM     20  C   UNL A   1     -31.138 -11.544  10.850  0.00  0.00    +0.004 A 
ATOM     21  C   UNL A   1     -30.426 -11.039  10.333  0.00  0.00    +0.019 A 
ATOM     22  C   UNL A   1     -28.974 -11.404  10.940  0.00  0.00    +0.100 A 
ATOM     23  N   UNL A   1     -29.101 -12.092  12.160  0.00  0.00    -0.228 NA
BRANCH  21  24
ATOM     24  C   UNL A   1     -30.209 -10.592   8.964  0.00  0.00    +0.002 C 
ATOM     25  C   UNL A   1     -30.181  -9.269   8.524  0.00  0.00    +0.000 C 
BRANCH  25  26
ATOM     26  C   UNL A   1     -29.908  -8.307   9.518  0.00  0.00    +0.000 C 
ATOM     27  C   UNL A   1     -30.820  -7.356   9.961  0.00  0.00    +0.000 C 
ENDBRANCH  25  26
ENDBRANCH  21  24
ENDBRANCH  17  18
ENDBRANCH  16  17
ENDBRANCH   3  16
TORSDOF 7
ENDMDL
ENDMDL
