MODEL 2568
MODEL 1
REMARK VINA RESULT:    -4.088      0.000      0.000
REMARK INTER + INTRA:          -6.261
REMARK INTER:                  -6.001
REMARK INTRA:                  -0.260
REMARK UNBOUND:                -0.260
REMARK  Name = No_2568-gen_results/8p0m/2024-11-26-14-13-15/
REMARK  8 active torsions:
REMARK  status: ('A' for Active; 'I' for Inactive)
REMARK    1  A    between atoms: P_1  and  O_2
REMARK    2  A    between atoms: P_1  and  O_4
REMARK    3  A    between atoms: P_1  and  O_5
REMARK    4  A    between atoms: O_4  and  C_7
REMARK    5  A    between atoms: C_7  and  C_9
REMARK    6  A    between atoms: C_9  and  O_10
REMARK    7  A    between atoms: O_10  and  C_11
REMARK    8  A    between atoms: C_11  and  C_12
REMARK                            x       y       z     vdW  Elec       q    Type
REMARK                         _______ _______ _______ _____ _____    ______ ____
ROOT
ATOM      1  O   UNL A   1     -23.290  -0.338  28.156  0.00  0.00    -0.268 OA
ENDROOT
BRANCH   1   2
ATOM      2  P   UNL A   1     -23.117   1.168  27.703  0.00  0.00    +0.525 P 
ATOM      3  O   UNL A   1     -23.555   2.018  28.822  0.00  0.00    -0.223 OA
BRANCH   2   4
ATOM      4  O   UNL A   1     -23.578   1.388  26.689  0.00  0.00    -0.173 OA
ATOM      5 CL   UNL A   1     -23.438   2.392  25.769  0.00  0.00    +0.072 Cl
ENDBRANCH   2   4
BRANCH   2   6
ATOM      6  O   UNL A   1     -21.464   1.294  27.659  0.00  0.00    -0.082 OA
ATOM      7  F   UNL A   1     -20.802   2.079  27.498  0.00  0.00    -0.037 F 
ENDBRANCH   2   6
ENDBRANCH   1   2
BRANCH   1   8
ATOM      8  C   UNL A   1     -23.302  -0.803  29.493  0.00  0.00    +0.186 C 
BRANCH   8   9
ATOM      9  C   UNL A   1     -23.832  -2.255  29.489  0.00  0.00    +0.175 C 
BRANCH   9  10
ATOM     10  O   UNL A   1     -23.475  -3.059  28.697  0.00  0.00    -0.343 OA
BRANCH  10  11
ATOM     11  C   UNL A   1     -24.254  -4.379  28.808  0.00  0.00    +0.214 C 
BRANCH  11  12
ATOM     12  C   UNL A   1     -25.522  -3.994  29.429  0.00  0.00    +0.240 C 
ATOM     13  O   UNL A   1     -26.384  -4.644  29.623  0.00  0.00    -0.285 OA
ENDBRANCH  11  12
ENDBRANCH  10  11
ENDBRANCH   9  10
ENDBRANCH   8   9
ENDBRANCH   1   8
TORSDOF 8
ENDMDL
ENDMDL
