MODEL 2569
MODEL 1
REMARK VINA RESULT:    -6.182      0.000      0.000
REMARK INTER + INTRA:          -8.769
REMARK INTER:                  -7.989
REMARK INTRA:                  -0.780
REMARK UNBOUND:                -0.780
REMARK  Name = No_2569-gen_results/8p0m/2024-11-26-14-13-15/
REMARK  5 active torsions:
REMARK  status: ('A' for Active; 'I' for Inactive)
REMARK    1  A    between atoms: C_3  and  C_7
REMARK    2  A    between atoms: C_6  and  C_13
REMARK    3  A    between atoms: C_13  and  N_14
REMARK    4  A    between atoms: C_15  and  C_16
REMARK    5  A    between atoms: C_17  and  C_18
REMARK                            x       y       z     vdW  Elec       q    Type
REMARK                         _______ _______ _______ _____ _____    ______ ____
ROOT
ATOM      1  C   UNL A   1     -25.571   2.814  25.910  0.00  0.00    -0.002 A 
ATOM      2  C   UNL A   1     -26.617   2.487  25.399  0.00  0.00    -0.000 A 
ATOM      3  C   UNL A   1     -26.848   1.225  24.854  0.00  0.00    -0.000 A 
ATOM      4  C   UNL A   1     -25.770   0.256  24.835  0.00  0.00    -0.000 A 
ATOM      5  C   UNL A   1     -24.576   0.681  25.416  0.00  0.00    -0.002 A 
ATOM      6  C   UNL A   1     -24.440   1.900  25.900  0.00  0.00    +0.002 A 
ENDROOT
BRANCH   3   7
ATOM      7  C   UNL A   1     -28.039   0.536  24.272  0.00  0.00    -0.000 A 
ATOM      8  C   UNL A   1     -29.228   1.210  24.206  0.00  0.00    -0.000 A 
ATOM      9  C   UNL A   1     -30.376   0.565  23.765  0.00  0.00    +0.000 A 
ATOM     10  C   UNL A   1     -30.368  -0.772  23.312  0.00  0.00    +0.000 A 
ATOM     11  C   UNL A   1     -28.272  -0.888  24.044  0.00  0.00    -0.000 A 
ATOM     12  C   UNL A   1     -29.328  -1.497  23.518  0.00  0.00    +0.000 A 
ENDBRANCH   3   7
BRANCH   6  13
ATOM     13  C   UNL A   1     -23.108   2.320  26.440  0.00  0.00    +0.152 C 
BRANCH  13  14
ATOM     14  N   UNL A   1     -22.451   1.413  27.036  0.00  0.00    -0.264 NA
ATOM     15  C   UNL A   1     -22.512   1.175  28.217  0.00  0.00    +0.093 C 
BRANCH  15  16
ATOM     16  C   UNL A   1     -21.663   0.064  28.800  0.00  0.00    +0.020 C 
ATOM     17  C   UNL A   1     -22.262  -1.058  29.305  0.00  0.00    +0.002 C 
BRANCH  17  18
ATOM     18  C   UNL A   1     -23.626  -1.375  28.969  0.00  0.00    +0.000 C 
ATOM     19  C   UNL A   1     -23.976  -2.742  28.924  0.00  0.00    +0.000 C 
ENDBRANCH  17  18
ENDBRANCH  15  16
ENDBRANCH  13  14
ENDBRANCH   6  13
TORSDOF 5
ENDMDL
ENDMDL
