MODEL 256
MODEL 1
REMARK VINA RESULT:    -4.812      0.000      0.000
REMARK INTER + INTRA:          -5.466
REMARK INTER:                  -5.375
REMARK INTRA:                  -0.091
REMARK UNBOUND:                -0.091
REMARK  Name = No_256-gen_results/8p0m/2024-11-26-14-13-15/
REMARK  2 active torsions:
REMARK  status: ('A' for Active; 'I' for Inactive)
REMARK    1  A    between atoms: N_1  and  C_2
REMARK    2  A    between atoms: N_1  and  C_3
REMARK                            x       y       z     vdW  Elec       q    Type
REMARK                         _______ _______ _______ _____ _____    ______ ____
ROOT
ATOM      1  C   UNL A   1     -24.029  -3.062  29.035  0.00  0.00    +0.067 A 
ATOM      2  C   UNL A   1     -23.948  -4.391  28.715  0.00  0.00    +0.016 A 
ATOM      3  C   UNL A   1     -25.036  -5.271  29.029  0.00  0.00    +0.001 A 
ATOM      4  C   UNL A   1     -26.180  -4.726  29.604  0.00  0.00    +0.000 A 
ATOM      5  C   UNL A   1     -26.273  -3.410  29.939  0.00  0.00    +0.001 A 
ATOM      6  C   UNL A   1     -25.230  -2.598  29.660  0.00  0.00    +0.016 A 
ENDROOT
BRANCH   1   7
ATOM      7  N   UNL A   1     -22.969  -2.132  28.886  0.00  0.00    -0.217 NA
BRANCH   7   8
ATOM      8  C   UNL A   1     -23.128  -1.121  29.284  0.00  0.00    +0.221 C 
ATOM      9  N   UNL A   1     -22.147  -0.440  30.011  0.00  0.00    -0.106 NA
ENDBRANCH   7   8
ENDBRANCH   1   7
TORSDOF 2
ENDMDL
ENDMDL
