REMARK  Name = No_257-gen_results/8p0m/2024-11-26-14-13-15/
REMARK  1 active torsions:
REMARK  status: ('A' for Active; 'I' for Inactive)
REMARK    1  A    between atoms: C_5  and  N_20
REMARK                            x       y       z     vdW  Elec       q    Type
REMARK                         _______ _______ _______ _____ _____    ______ ____
ROOT
ATOM      1  C   UNL A   1     -28.016  -0.814  28.878  0.00  0.00    +0.004 A 
ATOM      2  C   UNL A   1     -27.064  -0.119  28.608  0.00  0.00    +0.035 A 
ATOM      3  C   UNL A   1     -26.972   0.714  27.506  0.00  0.00    +0.004 A 
ATOM      4  C   UNL A   1     -28.105   0.774  26.642  0.00  0.00    +0.015 A 
ATOM      5  C   UNL A   1     -29.204   0.118  27.048  0.00  0.00    +0.048 A 
ATOM      6  C   UNL A   1     -29.213  -0.609  28.128  0.00  0.00    +0.015 A 
ATOM      7  C   UNL A   1     -25.711   1.452  27.138  0.00  0.00    -0.003 A 
ATOM      8  C   UNL A   1     -24.605   0.925  27.690  0.00  0.00    -0.009 A 
ATOM      9  C   UNL A   1     -24.594   0.094  28.822  0.00  0.00    +0.106 C 
ATOM     10  C   UNL A   1     -25.708  -0.453  29.247  0.00  0.00    +0.178 C 
ATOM     11  C   UNL A   1     -23.270   1.692  27.412  0.00  0.00    +0.051 A 
ATOM     12  C   UNL A   1     -23.274   2.819  26.655  0.00  0.00    +0.004 A 
ATOM     13  C   UNL A   1     -24.550   3.207  25.978  0.00  0.00    +0.000 A 
ATOM     14  C   UNL A   1     -25.727   2.502  26.282  0.00  0.00    -0.000 A 
ATOM     15  C   UNL A   1     -22.004   1.320  28.066  0.00  0.00    +0.265 C 
ATOM     16  O   UNL A   1     -20.949   1.907  27.888  0.00  0.00    -0.268 OA
ATOM     17  N   UNL A   1     -21.998   0.265  28.978  0.00  0.00    -0.201 NA
ATOM     18  C   UNL A   1     -23.312  -0.370  29.461  0.00  0.00    +0.128 C 
ATOM     19  O   UNL A   1     -25.755  -1.292  30.238  0.00  0.00    -0.291 OA
ENDROOT
BRANCH   5  20
ATOM     20  N   UNL A   1     -30.245   0.405  26.142  0.00  0.00    -0.307 N 
ATOM     21  C   UNL A   1     -31.444   0.225  26.491  0.00  0.00    +0.091 C 
ATOM     22  C   UNL A   1     -30.012   0.644  24.771  0.00  0.00    +0.091 C 
ATOM     23  C   UNL A   1     -32.338   0.585  26.210  0.00  0.00    +0.021 C 
ATOM     24  C   UNL A   1     -31.110   1.201  24.064  0.00  0.00    +0.021 C 
ATOM     25  C   UNL A   1     -32.389   1.072  24.707  0.00  0.00    +0.004 C 
ENDBRANCH   5  20
TORSDOF 1
