MODEL 2570
MODEL 1
REMARK VINA RESULT:    -5.313      0.000      0.000
REMARK INTER + INTRA:          -5.775
REMARK INTER:                  -5.623
REMARK INTRA:                  -0.152
REMARK UNBOUND:                -0.152
REMARK  Name = No_2570-gen_results/8p0m/2024-11-26-14-13-15/
REMARK  1 active torsions:
REMARK  status: ('A' for Active; 'I' for Inactive)
REMARK    1  A    between atoms: C_4  and  C_7
REMARK                            x       y       z     vdW  Elec       q    Type
REMARK                         _______ _______ _______ _____ _____    ______ ____
ROOT
ATOM      1  C   UNL A   1     -26.588  -3.999  29.839  0.00  0.00    -0.000 A 
ATOM      2  C   UNL A   1     -26.051  -4.873  29.601  0.00  0.00    -0.000 A 
ATOM      3  C   UNL A   1     -25.856  -2.698  29.594  0.00  0.00    -0.000 A 
ATOM      4  C   UNL A   1     -24.602  -2.723  28.948  0.00  0.00    -0.000 A 
ATOM      5  C   UNL A   1     -24.779  -5.169  28.903  0.00  0.00    -0.000 A 
ATOM      6  C   UNL A   1     -24.080  -3.997  28.655  0.00  0.00    -0.000 A 
ENDROOT
BRANCH   4   7
ATOM      7  C   UNL A   1     -23.859  -1.533  28.708  0.00  0.00    -0.005 C 
ATOM      8  C   UNL A   1     -22.735  -1.282  29.236  0.00  0.00    -0.026 C 
ATOM      9  C   UNL A   1     -21.915  -0.112  28.872  0.00  0.00    +0.031 C 
ENDBRANCH   4   7
TORSDOF 1
ENDMDL
ENDMDL
