MODEL 2571
MODEL 1
REMARK VINA RESULT:    -8.136      0.000      0.000
REMARK INTER + INTRA:         -10.925
REMARK INTER:                 -10.038
REMARK INTRA:                  -0.887
REMARK UNBOUND:                -0.887
REMARK  Name = No_2571-gen_results/8p0m/2024-11-26-14-13-15/
REMARK  4 active torsions:
REMARK  status: ('A' for Active; 'I' for Inactive)
REMARK    1  A    between atoms: C_2  and  C_15
REMARK    2  A    between atoms: C_4  and  C_7
REMARK    3  A    between atoms: C_7  and  C_8
REMARK    4  A    between atoms: N_17  and  C_18
REMARK                            x       y       z     vdW  Elec       q    Type
REMARK                         _______ _______ _______ _____ _____    ______ ____
ROOT
ATOM      1  C   UNL A   1      -6.282   0.348  35.498  0.00  0.00    +0.016 A 
ATOM      2  C   UNL A   1      -7.015  -0.310  35.123  0.00  0.00    +0.056 A 
ATOM      3  C   UNL A   1      -4.892  -0.133  35.477  0.00  0.00    +0.054 A 
ATOM      4  C   UNL A   1      -4.561  -1.368  34.847  0.00  0.00    -0.007 A 
ATOM      5  C   UNL A   1      -5.616  -2.090  34.348  0.00  0.00    -0.003 A 
ATOM      6  C   UNL A   1      -6.877  -1.612  34.417  0.00  0.00    +0.004 A 
ATOM      7 CL   UNL A   1      -3.587   0.740  36.214  0.00  0.00    -0.083 Cl
ENDROOT
BRANCH   2   8
ATOM      8  C   UNL A   1      -8.527   0.185  35.132  0.00  0.00    +0.269 C 
ATOM      9  O   UNL A   1      -9.107  -0.300  35.990  0.00  0.00    -0.268 OA
ATOM     10  N   UNL A   1      -9.001   1.038  34.221  0.00  0.00    -0.175 NA
BRANCH  10  11
ATOM     11  C   UNL A   1     -10.374   1.480  34.292  0.00  0.00    +0.074 A 
ATOM     12  C   UNL A   1     -11.175   1.159  33.738  0.00  0.00    +0.017 A 
ATOM     13  C   UNL A   1     -12.530   1.616  33.839  0.00  0.00    +0.001 A 
ATOM     14  C   UNL A   1     -12.761   2.643  34.789  0.00  0.00    +0.000 A 
ATOM     15  C   UNL A   1     -11.689   3.101  35.499  0.00  0.00    +0.001 A 
ATOM     16  C   UNL A   1     -10.478   2.572  35.355  0.00  0.00    +0.017 A 
ATOM     17  C   UNL A   1     -11.930   4.169  36.518  0.00  0.00    +0.000 A 
ATOM     18  C   UNL A   1     -12.930   4.489  36.996  0.00  0.00    +0.000 A 
ATOM     19  C   UNL A   1     -14.158   3.756  36.749  0.00  0.00    +0.000 A 
ATOM     20  C   UNL A   1     -14.091   2.956  35.488  0.00  0.00    +0.000 A 
ENDBRANCH  10  11
ENDBRANCH   2   8
BRANCH   4  21
ATOM     21  C   UNL A   1      -3.203  -1.847  34.800  0.00  0.00    +0.053 C 
BRANCH  21  22
ATOM     22  C   UNL A   1      -2.544  -1.675  33.566  0.00  0.00    -0.018 A 
ATOM     23  C   UNL A   1      -1.794  -2.521  32.913  0.00  0.00    -0.004 A 
ATOM     24  C   UNL A   1      -0.973  -2.161  31.817  0.00  0.00    -0.000 A 
ATOM     25  C   UNL A   1      -0.885  -0.780  31.579  0.00  0.00    -0.000 A 
ATOM     26  C   UNL A   1      -2.318  -0.290  33.044  0.00  0.00    -0.004 A 
ATOM     27  C   UNL A   1      -1.619   0.091  32.082  0.00  0.00    -0.000 A 
ENDBRANCH  21  22
ENDBRANCH   4  21
TORSDOF 4
ENDMDL
ENDMDL
