REMARK  Name = No_2571-gen_results/8p0m/2024-11-26-14-13-15/
REMARK  4 active torsions:
REMARK  status: ('A' for Active; 'I' for Inactive)
REMARK    1  A    between atoms: C_2  and  C_15
REMARK    2  A    between atoms: C_4  and  C_7
REMARK    3  A    between atoms: C_7  and  C_8
REMARK    4  A    between atoms: N_17  and  C_18
REMARK                            x       y       z     vdW  Elec       q    Type
REMARK                         _______ _______ _______ _____ _____    ______ ____
ROOT
ATOM      1  C   UNL A   1     -28.016  -0.814  28.878  0.00  0.00    +0.016 A 
ATOM      2  C   UNL A   1     -28.469  -0.785  29.829  0.00  0.00    +0.056 A 
ATOM      3  C   UNL A   1     -26.546  -0.876  28.850  0.00  0.00    +0.054 A 
ATOM      4  C   UNL A   1     -25.804  -1.032  30.057  0.00  0.00    -0.007 A 
ATOM      5  C   UNL A   1     -26.537  -1.039  31.217  0.00  0.00    -0.003 A 
ATOM      6  C   UNL A   1     -27.884  -0.953  31.186  0.00  0.00    +0.004 A 
ATOM      7 CL   UNL A   1     -25.631  -0.752  27.382  0.00  0.00    -0.083 Cl
ENDROOT
BRANCH   2   8
ATOM      8  C   UNL A   1     -30.058  -0.719  29.889  0.00  0.00    +0.269 C 
ATOM      9  O   UNL A   1     -30.478  -0.206  28.957  0.00  0.00    -0.268 OA
ATOM     10  N   UNL A   1     -30.750  -1.198  30.925  0.00  0.00    -0.175 NA
BRANCH  10  11
ATOM     11  C   UNL A   1     -32.193  -1.142  30.916  0.00  0.00    +0.074 A 
ATOM     12  C   UNL A   1     -32.852  -1.627  31.535  0.00  0.00    +0.017 A 
ATOM     13  C   UNL A   1     -34.283  -1.544  31.504  0.00  0.00    +0.001 A 
ATOM     14  C   UNL A   1     -34.826  -0.725  30.482  0.00  0.00    +0.000 A 
ATOM     15  C   UNL A   1     -33.953  -0.111  29.631  0.00  0.00    +0.001 A 
ATOM     16  C   UNL A   1     -32.637  -0.223  29.780  0.00  0.00    +0.017 A 
ATOM     17  C   UNL A   1     -34.520   0.771  28.565  0.00  0.00    +0.000 A 
ATOM     18  C   UNL A   1     -35.575   1.235  28.506  0.00  0.00    +0.000 A 
ATOM     19  C   UNL A   1     -36.517   1.119  29.603  0.00  0.00    +0.000 A 
ATOM     20  C   UNL A   1     -36.196  -0.032  30.501  0.00  0.00    +0.000 A 
ENDBRANCH  10  11
ENDBRANCH   2   8
BRANCH   4  21
ATOM     21  C   UNL A   1     -24.366  -1.113  30.048  0.00  0.00    +0.053 C 
BRANCH  21  22
ATOM     22  C   UNL A   1     -23.692   0.119  29.919  0.00  0.00    -0.018 A 
ATOM     23  C   UNL A   1     -23.986   1.274  30.452  0.00  0.00    -0.004 A 
ATOM     24  C   UNL A   1     -23.398   2.498  30.051  0.00  0.00    -0.000 A 
ATOM     25  C   UNL A   1     -22.587   2.412  28.908  0.00  0.00    -0.000 A 
ATOM     26  C   UNL A   1     -22.737   0.314  28.782  0.00  0.00    -0.004 A 
ATOM     27  C   UNL A   1     -22.178   1.358  28.386  0.00  0.00    -0.000 A 
ENDBRANCH  21  22
ENDBRANCH   4  21
TORSDOF 4
