REMARK  Name = No_2572-gen_results/8p0m/2024-11-26-14-13-15/
REMARK  1 active torsions:
REMARK  status: ('A' for Active; 'I' for Inactive)
REMARK    1  A    between atoms: C_3  and  C_9
REMARK                            x       y       z     vdW  Elec       q    Type
REMARK                         _______ _______ _______ _____ _____    ______ ____
ROOT
ATOM      1  N   UNL A   1     -28.054  -1.050  28.725  0.00  0.00    -0.230 NA
ATOM      2  C   UNL A   1     -26.966  -0.472  28.771  0.00  0.00    +0.138 A 
ATOM      3  C   UNL A   1     -25.853  -0.925  29.379  0.00  0.00    +0.031 A 
ATOM      4  C   UNL A   1     -25.907  -2.234  30.032  0.00  0.00    +0.034 A 
ATOM      5  C   UNL A   1     -27.134  -2.828  29.995  0.00  0.00    +0.159 A 
ATOM      6  C   UNL A   1     -28.175  -2.246  29.440  0.00  0.00    +0.129 A 
ATOM      7 CL   UNL A   1     -26.793   1.093  28.014  0.00  0.00    -0.061 Cl
ATOM      8  F   UNL A   1     -27.241  -4.050  30.577  0.00  0.00    -0.203 F 
ENDROOT
BRANCH   3   9
ATOM      9  C   UNL A   1     -24.463  -0.268  29.340  0.00  0.00    +0.002 C 
ATOM     10  C   UNL A   1     -24.110   0.567  28.441  0.00  0.00    +0.000 C 
ENDBRANCH   3   9
TORSDOF 1
