MODEL 2572
MODEL 1
REMARK VINA RESULT:    -4.706      0.000      0.000
REMARK INTER + INTRA:          -5.034
REMARK INTER:                  -4.981
REMARK INTRA:                  -0.053
REMARK UNBOUND:                -0.053
REMARK  Name = No_2572-gen_results/8p0m/2024-11-26-14-13-15/
REMARK  1 active torsions:
REMARK  status: ('A' for Active; 'I' for Inactive)
REMARK    1  A    between atoms: C_3  and  C_9
REMARK                            x       y       z     vdW  Elec       q    Type
REMARK                         _______ _______ _______ _____ _____    ______ ____
ROOT
ATOM      1  N   UNL A   1     -26.686  -3.325  30.157  0.00  0.00    -0.230 NA
ATOM      2  C   UNL A   1     -25.789  -2.479  30.151  0.00  0.00    +0.138 A 
ATOM      3  C   UNL A   1     -24.541  -2.650  29.675  0.00  0.00    +0.031 A 
ATOM      4  C   UNL A   1     -24.200  -3.944  29.081  0.00  0.00    +0.034 A 
ATOM      5  C   UNL A   1     -25.202  -4.867  29.138  0.00  0.00    +0.159 A 
ATOM      6  C   UNL A   1     -26.359  -4.608  29.707  0.00  0.00    +0.129 A 
ATOM      7 CL   UNL A   1     -26.097  -0.898  30.829  0.00  0.00    -0.061 Cl
ATOM      8  F   UNL A   1     -24.946  -6.084  28.592  0.00  0.00    -0.203 F 
ENDROOT
BRANCH   3   9
ATOM      9  C   UNL A   1     -23.456  -1.567  29.557  0.00  0.00    +0.002 C 
ATOM     10  C   UNL A   1     -23.398  -0.739  28.587  0.00  0.00    +0.000 C 
ENDBRANCH   3   9
TORSDOF 1
ENDMDL
ENDMDL
