MODEL 2573
MODEL 1
REMARK VINA RESULT:    -7.299      0.000      0.000
REMARK INTER + INTRA:         -10.216
REMARK INTER:                  -9.433
REMARK INTRA:                  -0.784
REMARK UNBOUND:                -0.784
REMARK  Name = No_2573-gen_results/8p0m/2024-11-26-14-13-15/
REMARK  5 active torsions:
REMARK  status: ('A' for Active; 'I' for Inactive)
REMARK    1  A    between atoms: C_3  and  C_4
REMARK    2  A    between atoms: C_4  and  C_9
REMARK    3  A    between atoms: C_7  and  C_17
REMARK    4  A    between atoms: C_9  and  C_11
REMARK    5  A    between atoms: C_12  and  O_20
REMARK                            x       y       z     vdW  Elec       q    Type
REMARK                         _______ _______ _______ _____ _____    ______ ____
ROOT
ATOM      1  C   UNL A   1     -24.468  -0.341  29.715  0.00  0.00    +0.222 C 
ATOM      2 CL   UNL A   1     -25.523   0.428  30.286  0.00  0.00    -0.076 Cl
ATOM      3  F   UNL A   1     -24.144  -1.287  30.773  0.00  0.00    -0.218 F 
ENDROOT
BRANCH   1   6
ATOM      4  C   UNL A   1     -21.948  -0.602  29.307  0.00  0.00    -0.000 A 
ATOM      5  C   UNL A   1     -21.105  -0.247  28.783  0.00  0.00    -0.000 A 
ATOM      6  C   UNL A   1     -23.167   0.090  29.139  0.00  0.00    +0.028 A 
ATOM      7  C   UNL A   1     -20.938   0.898  27.872  0.00  0.00    +0.000 A 
ATOM      8  C   UNL A   1     -22.105   1.632  27.660  0.00  0.00    +0.006 A 
ATOM      9  C   UNL A   1     -23.260   1.224  28.247  0.00  0.00    +0.079 A 
BRANCH   9  10
ATOM     10  C   UNL A   1     -24.457   2.022  27.950  0.00  0.00    +0.388 C 
ATOM     11  O   UNL A   1     -24.666   3.057  28.462  0.00  0.00    -0.241 OA
ATOM     12  O   UNL A   1     -25.098   1.691  26.777  0.00  0.00    -0.241 OA
ENDBRANCH   9  10
ENDBRANCH   1   6
BRANCH   1  13
ATOM     13  C   UNL A   1     -25.241  -1.262  28.646  0.00  0.00    +0.082 C 
BRANCH  13  14
ATOM     14  C   UNL A   1     -25.173  -2.636  28.902  0.00  0.00    +0.016 A 
ATOM     15  C   UNL A   1     -26.283  -3.310  29.521  0.00  0.00    +0.135 A 
ATOM     16  C   UNL A   1     -26.123  -4.704  29.691  0.00  0.00    +0.037 A 
ATOM     17  C   UNL A   1     -25.036  -5.360  29.160  0.00  0.00    +0.003 A 
ATOM     18  C   UNL A   1     -23.985  -4.678  28.559  0.00  0.00    -0.000 A 
ATOM     19  C   UNL A   1     -24.066  -3.313  28.469  0.00  0.00    -0.001 A 
BRANCH  15  20
ATOM     20  O   UNL A   1     -27.272  -2.715  30.005  0.00  0.00    -0.472 OA
ATOM     21  C   UNL A   1     -28.158  -3.264  30.755  0.00  0.00    +0.253 C 
ENDBRANCH  15  20
ENDBRANCH  13  14
ENDBRANCH   1  13
TORSDOF 5
ENDMDL
ENDMDL
