REMARK  Name = No_2573-gen_results/8p0m/2024-11-26-14-13-15/
REMARK  5 active torsions:
REMARK  status: ('A' for Active; 'I' for Inactive)
REMARK    1  A    between atoms: C_3  and  C_4
REMARK    2  A    between atoms: C_4  and  C_9
REMARK    3  A    between atoms: C_7  and  C_17
REMARK    4  A    between atoms: C_9  and  C_11
REMARK    5  A    between atoms: C_12  and  O_20
REMARK                            x       y       z     vdW  Elec       q    Type
REMARK                         _______ _______ _______ _____ _____    ______ ____
ROOT
ATOM      1  C   UNL A   1     -26.335   0.290  27.284  0.00  0.00    +0.222 C 
ATOM      2 CL   UNL A   1     -25.726   1.398  26.627  0.00  0.00    -0.076 Cl
ATOM      3  F   UNL A   1     -27.175  -0.285  26.244  0.00  0.00    -0.218 F 
ENDROOT
BRANCH   1   6
ATOM      4  C   UNL A   1     -28.016  -0.814  28.878  0.00  0.00    -0.000 A 
ATOM      5  C   UNL A   1     -28.469  -0.785  29.829  0.00  0.00    -0.000 A 
ATOM      6  C   UNL A   1     -27.136   0.236  28.535  0.00  0.00    +0.028 A 
ATOM      7  C   UNL A   1     -28.369   0.196  30.924  0.00  0.00    +0.000 A 
ATOM      8  C   UNL A   1     -27.516   1.266  30.654  0.00  0.00    +0.006 A 
ATOM      9  C   UNL A   1     -26.841   1.294  29.476  0.00  0.00    +0.079 A 
BRANCH   9  10
ATOM     10  C   UNL A   1     -25.932   2.430  29.274  0.00  0.00    +0.388 C 
ATOM     11  O   UNL A   1     -26.222   3.359  28.617  0.00  0.00    -0.241 OA
ATOM     12  O   UNL A   1     -24.913   2.529  30.195  0.00  0.00    -0.241 OA
ENDBRANCH   9  10
ENDBRANCH   1   6
BRANCH   1  13
ATOM     13  C   UNL A   1     -25.127  -0.768  27.384  0.00  0.00    +0.082 C 
BRANCH  13  14
ATOM     14  C   UNL A   1     -24.002  -0.305  28.075  0.00  0.00    +0.016 A 
ATOM     15  C   UNL A   1     -23.363  -1.142  29.055  0.00  0.00    +0.135 A 
ATOM     16  C   UNL A   1     -22.209  -0.591  29.658  0.00  0.00    +0.037 A 
ATOM     17  C   UNL A   1     -21.679   0.598  29.213  0.00  0.00    +0.003 A 
ATOM     18  C   UNL A   1     -22.318   1.378  28.256  0.00  0.00    -0.000 A 
ATOM     19  C   UNL A   1     -23.494   0.915  27.724  0.00  0.00    -0.001 A 
BRANCH  15  20
ATOM     20  O   UNL A   1     -23.843  -2.224  29.461  0.00  0.00    -0.472 OA
ATOM     21  C   UNL A   1     -24.012  -3.267  28.731  0.00  0.00    +0.253 C 
ENDBRANCH  15  20
ENDBRANCH  13  14
ENDBRANCH   1  13
TORSDOF 5
