MODEL 2574
MODEL 1
REMARK VINA RESULT:    -7.154      0.000      0.000
REMARK INTER + INTRA:          -9.890
REMARK INTER:                  -9.245
REMARK INTRA:                  -0.645
REMARK UNBOUND:                -0.645
REMARK  Name = No_2574-gen_results/8p0m/2024-11-26-14-13-15/
REMARK  5 active torsions:
REMARK  status: ('A' for Active; 'I' for Inactive)
REMARK    1  A    between atoms: C_1  and  C_2
REMARK    2  A    between atoms: C_1  and  C_8
REMARK    3  A    between atoms: C_9  and  C_10
REMARK    4  A    between atoms: C_11  and  C_12
REMARK    5  A    between atoms: C_13  and  C_14
REMARK                            x       y       z     vdW  Elec       q    Type
REMARK                         _______ _______ _______ _____ _____    ______ ____
ROOT
ATOM      1  C   UNL A   1     -23.285   0.723  28.755  0.00  0.00    +0.195 C 
ATOM      2  C   UNL A   1     -23.658   1.933  28.064  0.00  0.00    +0.042 C 
ATOM      3  O   UNL A   1     -22.974   1.638  29.086  0.00  0.00    -0.287 OA
ENDROOT
BRANCH   1   5
ATOM      4  C   UNL A   1     -25.001  -0.522  29.757  0.00  0.00    -0.018 C 
ATOM      5  C   UNL A   1     -24.080   0.419  29.856  0.00  0.00    +0.038 C 
BRANCH   4   6
ATOM      6  C   UNL A   1     -25.105  -1.359  28.491  0.00  0.00    +0.052 C 
BRANCH   6   7
ATOM      7  C   UNL A   1     -25.024  -2.554  28.660  0.00  0.00    -0.018 A 
ATOM      8  C   UNL A   1     -24.051  -3.347  28.312  0.00  0.00    -0.004 A 
ATOM      9  C   UNL A   1     -23.987  -4.811  28.543  0.00  0.00    -0.000 A 
ATOM     10  C   UNL A   1     -25.077  -5.387  29.255  0.00  0.00    -0.000 A 
ATOM     11  C   UNL A   1     -26.082  -4.516  29.690  0.00  0.00    -0.000 A 
ATOM     12  C   UNL A   1     -26.073  -3.180  29.450  0.00  0.00    -0.004 A 
ENDBRANCH   6   7
ENDBRANCH   4   6
ENDBRANCH   1   5
BRANCH   2  13
ATOM     13  C   UNL A   1     -22.899   2.254  26.892  0.00  0.00    +0.003 C 
ATOM     14  C   UNL A   1     -23.378   1.986  25.676  0.00  0.00    +0.000 C 
BRANCH  14  15
ATOM     15  C   UNL A   1     -24.563   1.350  25.593  0.00  0.00    +0.000 A 
ATOM     16  C   UNL A   1     -24.832   0.314  25.126  0.00  0.00    +0.000 A 
ATOM     17  C   UNL A   1     -26.139  -0.303  24.879  0.00  0.00    +0.000 A 
ATOM     18  C   UNL A   1     -27.228   0.469  25.288  0.00  0.00    +0.000 A 
ATOM     19  C   UNL A   1     -27.026   1.742  25.839  0.00  0.00    +0.000 A 
ATOM     20  C   UNL A   1     -25.791   2.229  25.891  0.00  0.00    +0.000 A 
ENDBRANCH  14  15
ENDBRANCH   2  13
TORSDOF 5
ENDMDL
ENDMDL
