REMARK  Name = No_2574-gen_results/8p0m/2024-11-26-14-13-15/
REMARK  5 active torsions:
REMARK  status: ('A' for Active; 'I' for Inactive)
REMARK    1  A    between atoms: C_1  and  C_2
REMARK    2  A    between atoms: C_1  and  C_8
REMARK    3  A    between atoms: C_9  and  C_10
REMARK    4  A    between atoms: C_11  and  C_12
REMARK    5  A    between atoms: C_13  and  C_14
REMARK                            x       y       z     vdW  Elec       q    Type
REMARK                         _______ _______ _______ _____ _____    ______ ____
ROOT
ATOM      1  C   UNL A   1     -30.180  -2.269  29.835  0.00  0.00    +0.195 C 
ATOM      2  C   UNL A   1     -31.361  -2.920  30.347  0.00  0.00    +0.042 C 
ATOM      3  O   UNL A   1     -31.111  -1.884  29.666  0.00  0.00    -0.287 OA
ENDROOT
BRANCH   1   5
ATOM      4  C   UNL A   1     -28.650  -0.538  30.233  0.00  0.00    -0.018 C 
ATOM      5  C   UNL A   1     -29.714  -1.218  30.619  0.00  0.00    +0.038 C 
BRANCH   4   6
ATOM      6  C   UNL A   1     -28.016  -0.814  28.878  0.00  0.00    +0.052 C 
BRANCH   6   7
ATOM      7  C   UNL A   1     -27.064  -0.119  28.608  0.00  0.00    -0.018 A 
ATOM      8  C   UNL A   1     -26.876   1.133  28.913  0.00  0.00    -0.004 A 
ATOM      9  C   UNL A   1     -25.688   1.952  28.567  0.00  0.00    -0.000 A 
ATOM     10  C   UNL A   1     -24.639   1.283  27.875  0.00  0.00    -0.000 A 
ATOM     11  C   UNL A   1     -24.818  -0.080  27.617  0.00  0.00    -0.000 A 
ATOM     12  C   UNL A   1     -25.931  -0.772  27.970  0.00  0.00    -0.004 A 
ENDBRANCH   6   7
ENDBRANCH   4   6
ENDBRANCH   1   5
BRANCH   2  13
ATOM     13  C   UNL A   1     -31.843  -4.042  29.599  0.00  0.00    +0.003 C 
ATOM     14  C   UNL A   1     -32.453  -3.867  28.426  0.00  0.00    +0.000 C 
BRANCH  14  15
ATOM     15  C   UNL A   1     -32.653  -2.603  28.003  0.00  0.00    +0.000 A 
ATOM     16  C   UNL A   1     -33.181  -2.204  27.041  0.00  0.00    +0.000 A 
ATOM     17  C   UNL A   1     -33.250  -0.846  26.492  0.00  0.00    +0.000 A 
ATOM     18  C   UNL A   1     -32.594   0.119  27.258  0.00  0.00    +0.000 A 
ATOM     19  C   UNL A   1     -31.904  -0.248  28.421  0.00  0.00    +0.000 A 
ATOM     20  C   UNL A   1     -31.819  -1.536  28.735  0.00  0.00    +0.000 A 
ENDBRANCH  14  15
ENDBRANCH   2  13
TORSDOF 5
