MODEL 2575
MODEL 1
REMARK VINA RESULT:    -6.474      0.000      0.000
REMARK INTER + INTRA:          -7.656
REMARK INTER:                  -7.231
REMARK INTRA:                  -0.425
REMARK UNBOUND:                -0.425
REMARK  Name = No_2575-gen_results/8p0m/2024-11-26-14-13-15/
REMARK  2 active torsions:
REMARK  status: ('A' for Active; 'I' for Inactive)
REMARK    1  A    between atoms: C_1  and  C_2
REMARK    2  A    between atoms: C_1  and  C_8
REMARK                            x       y       z     vdW  Elec       q    Type
REMARK                         _______ _______ _______ _____ _____    ______ ____
ROOT
ATOM      1  C   UNL A   1     -24.784   1.800  25.653  0.00  0.00    -0.013 A 
ATOM      2  C   UNL A   1     -25.981   2.443  25.357  0.00  0.00    -0.004 A 
ATOM      3  C   UNL A   1     -27.242   1.790  24.900  0.00  0.00    +0.003 A 
ATOM      4  C   UNL A   1     -27.149   0.399  24.597  0.00  0.00    +0.019 A 
ATOM      5  C   UNL A   1     -25.909  -0.221  24.848  0.00  0.00    +0.001 A 
ATOM      6  C   UNL A   1     -24.822   0.413  25.311  0.00  0.00    -0.004 A 
ATOM      7  C   UNL A   1     -28.339  -0.239  24.044  0.00  0.00    +0.099 A 
ATOM      8  N   UNL A   1     -29.453   0.495  23.797  0.00  0.00    -0.242 NA
ATOM      9  C   UNL A   1     -29.489   1.861  24.077  0.00  0.00    +0.099 A 
ATOM     10  C   UNL A   1     -28.417   2.519  24.610  0.00  0.00    +0.021 A 
ENDROOT
BRANCH   1  11
ATOM     11  C   UNL A   1     -23.817   2.422  26.026  0.00  0.00    +0.112 C 
BRANCH  11  12
ATOM     12  C   UNL A   1     -23.519   2.240  27.499  0.00  0.00    +0.230 C 
ATOM     13  N   UNL A   1     -22.865   1.506  27.943  0.00  0.00    -0.279 N 
ATOM     14  C   UNL A   1     -21.738   1.280  27.850  0.00  0.00    +0.093 C 
ATOM     15  C   UNL A   1     -20.977   0.625  28.054  0.00  0.00    +0.022 C 
ATOM     16  C   UNL A   1     -21.417  -0.500  28.998  0.00  0.00    +0.004 C 
ATOM     17  C   UNL A   1     -22.744  -0.455  29.434  0.00  0.00    +0.022 C 
ATOM     18  C   UNL A   1     -23.582   0.505  28.867  0.00  0.00    +0.093 C 
ATOM     19  O   UNL A   1     -24.280   3.004  28.182  0.00  0.00    -0.275 OA
ENDBRANCH  11  12
ENDBRANCH   1  11
TORSDOF 2
ENDMDL
ENDMDL
