REMARK  Name = No_2576-gen_results/8p0m/2024-11-26-14-13-15/
REMARK  4 active torsions:
REMARK  status: ('A' for Active; 'I' for Inactive)
REMARK    1  A    between atoms: C_1  and  C_3
REMARK    2  A    between atoms: C_2  and  C_5
REMARK    3  A    between atoms: C_3  and  C_4
REMARK    4  A    between atoms: C_4  and  C_7
REMARK                            x       y       z     vdW  Elec       q    Type
REMARK                         _______ _______ _______ _____ _____    ______ ____
ROOT
ATOM      1  C   UNL A   1     -27.136   0.236  28.535  0.00  0.00    +0.026 C 
ATOM      2  C   UNL A   1     -26.974   1.185  29.486  0.00  0.00    +0.005 C 
ENDROOT
BRANCH   1   3
ATOM      3  C   UNL A   1     -28.016  -0.814  28.878  0.00  0.00    -0.026 C 
ATOM      4  C   UNL A   1     -28.469  -0.785  29.829  0.00  0.00    -0.005 C 
BRANCH   4   5
ATOM      5  C   UNL A   1     -28.369   0.196  30.924  0.00  0.00    -0.000 C 
ATOM      6  C   UNL A   1     -29.053   0.173  32.168  0.00  0.00    -0.000 C 
ENDBRANCH   4   5
ENDBRANCH   1   3
BRANCH   1   7
ATOM      7  C   UNL A   1     -26.335   0.290  27.284  0.00  0.00    +0.030 C 
BRANCH   7   8
ATOM      8  C   UNL A   1     -25.602   0.838  26.647  0.00  0.00    -0.026 C 
ATOM      9  C   UNL A   1     -24.752   0.339  25.646  0.00  0.00    -0.005 C 
ENDBRANCH   7   8
ENDBRANCH   1   7
TORSDOF 4
