MODEL 2576
MODEL 1
REMARK VINA RESULT:    -4.442      0.000      0.000
REMARK INTER + INTRA:          -5.639
REMARK INTER:                  -5.481
REMARK INTRA:                  -0.157
REMARK UNBOUND:                -0.157
REMARK  Name = No_2576-gen_results/8p0m/2024-11-26-14-13-15/
REMARK  4 active torsions:
REMARK  status: ('A' for Active; 'I' for Inactive)
REMARK    1  A    between atoms: C_1  and  C_3
REMARK    2  A    between atoms: C_2  and  C_5
REMARK    3  A    between atoms: C_3  and  C_4
REMARK    4  A    between atoms: C_4  and  C_7
REMARK                            x       y       z     vdW  Elec       q    Type
REMARK                         _______ _______ _______ _____ _____    ______ ____
ROOT
ATOM      1  C   UNL A   1     -23.922  -1.673  28.766  0.00  0.00    +0.026 C 
ATOM      2  C   UNL A   1     -24.822  -0.815  28.233  0.00  0.00    +0.005 C 
ENDROOT
BRANCH   1   3
ATOM      3  C   UNL A   1     -22.639  -1.130  28.998  0.00  0.00    -0.026 C 
ATOM      4  C   UNL A   1     -22.438  -0.731  29.952  0.00  0.00    -0.005 C 
BRANCH   4   5
ATOM      5  C   UNL A   1     -23.275  -0.635  31.161  0.00  0.00    -0.000 C 
ATOM      6  C   UNL A   1     -23.037  -1.236  32.425  0.00  0.00    -0.000 C 
ENDBRANCH   4   5
ENDBRANCH   1   3
BRANCH   1   7
ATOM      7  C   UNL A   1     -24.283  -3.100  28.970  0.00  0.00    +0.030 C 
BRANCH   7   8
ATOM      8  C   UNL A   1     -24.097  -4.173  28.727  0.00  0.00    -0.026 C 
ATOM      9  C   UNL A   1     -24.875  -5.300  29.040  0.00  0.00    -0.005 C 
ENDBRANCH   7   8
ENDBRANCH   1   7
TORSDOF 4
ENDMDL
ENDMDL
