MODEL 2577
MODEL 1
REMARK VINA RESULT:    -6.902      0.000      0.000
REMARK INTER + INTRA:          -8.677
REMARK INTER:                  -8.113
REMARK INTRA:                  -0.564
REMARK UNBOUND:                -0.564
REMARK  Name = No_2577-gen_results/8p0m/2024-11-26-14-13-15/
REMARK  3 active torsions:
REMARK  status: ('A' for Active; 'I' for Inactive)
REMARK    1  A    between atoms: C_3  and  C_8
REMARK    2  A    between atoms: C_6  and  O_7
REMARK    3  A    between atoms: O_7  and  C_14
REMARK                            x       y       z     vdW  Elec       q    Type
REMARK                         _______ _______ _______ _____ _____    ______ ____
ROOT
ATOM      1  C   UNL A   1     -24.606   0.494  25.046  0.00  0.00    +0.037 A 
ATOM      2  C   UNL A   1     -25.632   0.089  24.550  0.00  0.00    +0.003 A 
ATOM      3  C   UNL A   1     -26.859   0.738  24.677  0.00  0.00    +0.000 A 
ATOM      4  C   UNL A   1     -26.943   1.935  25.492  0.00  0.00    +0.003 A 
ATOM      5  C   UNL A   1     -25.709   2.343  26.046  0.00  0.00    +0.037 A 
ATOM      6  C   UNL A   1     -24.604   1.661  25.876  0.00  0.00    +0.145 A 
ENDROOT
BRANCH   3   7
ATOM      7  C   UNL A   1     -28.168   0.300  24.093  0.00  0.00    +0.000 A 
ATOM      8  C   UNL A   1     -29.115   1.188  23.825  0.00  0.00    +0.000 A 
ATOM      9  C   UNL A   1     -30.398   0.747  23.343  0.00  0.00    +0.000 A 
ATOM     10  C   UNL A   1     -30.719  -0.585  23.245  0.00  0.00    +0.000 A 
ATOM     11  C   UNL A   1     -28.523  -1.077  24.032  0.00  0.00    +0.000 A 
ATOM     12  C   UNL A   1     -29.795  -1.512  23.581  0.00  0.00    +0.000 A 
ENDBRANCH   3   7
BRANCH   6  13
ATOM     13  O   UNL A   1     -23.481   2.121  26.502  0.00  0.00    -0.454 OA
BRANCH  13  14
ATOM     14  C   UNL A   1     -22.837   1.305  27.426  0.00  0.00    +0.145 A 
ATOM     15  C   UNL A   1     -21.575   1.451  27.585  0.00  0.00    +0.037 A 
ATOM     16  C   UNL A   1     -20.940   0.480  28.155  0.00  0.00    +0.003 A 
ATOM     17  C   UNL A   1     -21.571  -0.398  29.090  0.00  0.00    +0.000 A 
ATOM     18  C   UNL A   1     -22.957  -0.510  29.016  0.00  0.00    +0.003 A 
ATOM     19  C   UNL A   1     -23.662   0.370  28.125  0.00  0.00    +0.037 A 
ENDBRANCH  13  14
ENDBRANCH   6  13
TORSDOF 3
ENDMDL
ENDMDL
