REMARK  Name = No_2577-gen_results/8p0m/2024-11-26-14-13-15/
REMARK  3 active torsions:
REMARK  status: ('A' for Active; 'I' for Inactive)
REMARK    1  A    between atoms: C_3  and  C_8
REMARK    2  A    between atoms: C_6  and  O_7
REMARK    3  A    between atoms: O_7  and  C_14
REMARK                            x       y       z     vdW  Elec       q    Type
REMARK                         _______ _______ _______ _____ _____    ______ ____
ROOT
ATOM      1  C   UNL A   1     -28.016  -0.814  28.878  0.00  0.00    +0.037 A 
ATOM      2  C   UNL A   1     -27.064  -0.119  28.608  0.00  0.00    +0.003 A 
ATOM      3  C   UNL A   1     -25.765  -0.390  29.036  0.00  0.00    +0.000 A 
ATOM      4  C   UNL A   1     -25.530  -1.530  29.901  0.00  0.00    +0.003 A 
ATOM      5  C   UNL A   1     -26.689  -2.289  30.181  0.00  0.00    +0.037 A 
ATOM      6  C   UNL A   1     -27.873  -1.951  29.737  0.00  0.00    +0.145 A 
ENDROOT
BRANCH   3   7
ATOM      7  C   UNL A   1     -24.539   0.421  28.742  0.00  0.00    +0.000 A 
ATOM      8  C   UNL A   1     -24.526   1.274  27.727  0.00  0.00    +0.000 A 
ATOM      9  C   UNL A   1     -23.317   1.986  27.403  0.00  0.00    +0.000 A 
ATOM     10  C   UNL A   1     -22.131   1.737  28.050  0.00  0.00    +0.000 A 
ATOM     11  C   UNL A   1     -23.298   0.137  29.377  0.00  0.00    +0.000 A 
ATOM     12  C   UNL A   1     -22.101   0.819  29.041  0.00  0.00    +0.000 A 
ENDBRANCH   3   7
BRANCH   6  13
ATOM     13  O   UNL A   1     -28.930  -2.730  30.115  0.00  0.00    -0.454 OA
BRANCH  13  14
ATOM     14  C   UNL A   1     -29.310  -2.754  31.453  0.00  0.00    +0.145 A 
ATOM     15  C   UNL A   1     -29.842  -1.700  31.948  0.00  0.00    +0.037 A 
ATOM     16  C   UNL A   1     -29.858  -1.602  33.237  0.00  0.00    +0.003 A 
ATOM     17  C   UNL A   1     -29.883  -2.750  34.088  0.00  0.00    +0.000 A 
ATOM     18  C   UNL A   1     -29.404  -3.944  33.553  0.00  0.00    +0.003 A 
ATOM     19  C   UNL A   1     -29.071  -3.975  32.155  0.00  0.00    +0.037 A 
ENDBRANCH  13  14
ENDBRANCH   6  13
TORSDOF 3
