MODEL 2578
MODEL 1
REMARK VINA RESULT:    -3.757      0.000      0.000
REMARK INTER + INTRA:          -4.569
REMARK INTER:                  -4.416
REMARK INTRA:                  -0.153
REMARK UNBOUND:                -0.153
REMARK  Name = No_2578-gen_results/8p0m/2024-11-26-14-13-15/
REMARK  3 active torsions:
REMARK  status: ('A' for Active; 'I' for Inactive)
REMARK    1  A    between atoms: C_2  and  C_3
REMARK    2  A    between atoms: C_3  and  C_4
REMARK    3  A    between atoms: C_5  and  C_6
REMARK                            x       y       z     vdW  Elec       q    Type
REMARK                         _______ _______ _______ _____ _____    ______ ____
ROOT
ATOM      1  C   UNL A   1     -24.159  -1.722  28.791  0.00  0.00    -0.082 C 
ATOM      2  C   UNL A   1     -22.863  -1.511  29.191  0.00  0.00    -0.063 C 
ENDROOT
BRANCH   2   3
ATOM      3  C   UNL A   1     -22.228  -0.271  29.012  0.00  0.00    +0.049 C 
ATOM      4  C   UNL A   1     -22.810   0.663  28.077  0.00  0.00    +0.009 C 
ENDBRANCH   2   3
BRANCH   1   5
ATOM      5  C   UNL A   1     -24.858  -2.984  28.848  0.00  0.00    +0.102 C 
BRANCH   5   7
ATOM      6  C   UNL A   1     -24.885  -5.284  28.969  0.00  0.00    -0.004 C 
ATOM      7  C   UNL A   1     -24.279  -4.241  28.894  0.00  0.00    -0.012 C 
ENDBRANCH   5   7
ENDBRANCH   1   5
TORSDOF 3
ENDMDL
ENDMDL
