MODEL 2579
MODEL 1
REMARK VINA RESULT:    -3.509      0.000      0.000
REMARK INTER + INTRA:          -3.769
REMARK INTER:                  -3.714
REMARK INTRA:                  -0.055
REMARK UNBOUND:                -0.055
REMARK  Name = No_2579-gen_results/8p0m/2024-11-26-14-13-15/
REMARK  1 active torsions:
REMARK  status: ('A' for Active; 'I' for Inactive)
REMARK    1  A    between atoms: C_3  and  C_4
REMARK                            x       y       z     vdW  Elec       q    Type
REMARK                         _______ _______ _______ _____ _____    ______ ____
ROOT
ATOM      1 CL   UNL A   1      -8.980 -10.480  17.469  0.00  0.00    -0.081 Cl
ATOM      2  C   UNL A   1      -9.852  -9.818  18.278  0.00  0.00    +0.068 C 
ATOM      3  C   UNL A   1      -9.455  -9.364  19.497  0.00  0.00    +0.012 C 
ENDROOT
BRANCH   3   4
ATOM      4  C   UNL A   1      -8.086  -9.608  19.970  0.00  0.00    +0.001 C 
ATOM      5  C   UNL A   1      -7.239  -8.466  19.851  0.00  0.00    +0.000 C 
ENDBRANCH   3   4
TORSDOF 1
ENDMDL
ENDMDL
