MODEL 257
MODEL 1
REMARK VINA RESULT:    -7.393      0.000      0.000
REMARK INTER + INTRA:          -8.290
REMARK INTER:                  -7.825
REMARK INTRA:                  -0.465
REMARK UNBOUND:                -0.465
REMARK  Name = No_257-gen_results/8p0m/2024-11-26-14-13-15/
REMARK  1 active torsions:
REMARK  status: ('A' for Active; 'I' for Inactive)
REMARK    1  A    between atoms: C_5  and  N_20
REMARK                            x       y       z     vdW  Elec       q    Type
REMARK                         _______ _______ _______ _____ _____    ______ ____
ROOT
ATOM      1  C   UNL A   1     -14.655   3.225  35.408  0.00  0.00    +0.004 A 
ATOM      2  C   UNL A   1     -13.727   2.503  35.693  0.00  0.00    +0.035 A 
ATOM      3  C   UNL A   1     -13.318   2.202  36.981  0.00  0.00    +0.004 A 
ATOM      4  C   UNL A   1     -14.073   2.768  38.050  0.00  0.00    +0.015 A 
ATOM      5  C   UNL A   1     -15.188   3.434  37.710  0.00  0.00    +0.048 A 
ATOM      6  C   UNL A   1     -15.521   3.631  36.466  0.00  0.00    +0.015 A 
ATOM      7  C   UNL A   1     -12.072   1.411  37.283  0.00  0.00    -0.003 A 
ATOM      8  C   UNL A   1     -11.195   1.390  36.265  0.00  0.00    -0.009 A 
ATOM      9  C   UNL A   1     -11.519   1.653  34.924  0.00  0.00    +0.106 C 
ATOM     10  C   UNL A   1     -12.663   2.218  34.623  0.00  0.00    +0.178 C 
ATOM     11  C   UNL A   1      -9.914   0.519  36.484  0.00  0.00    +0.051 A 
ATOM     12  C   UNL A   1      -9.740  -0.160  37.646  0.00  0.00    +0.004 A 
ATOM     13  C   UNL A   1     -10.720   0.073  38.751  0.00  0.00    +0.000 A 
ATOM     14  C   UNL A   1     -11.868   0.842  38.495  0.00  0.00    -0.000 A 
ATOM     15  C   UNL A   1      -8.936   0.283  35.409  0.00  0.00    +0.265 C 
ATOM     16  O   UNL A   1      -7.936  -0.405  35.538  0.00  0.00    -0.268 OA
ATOM     17  N   UNL A   1      -9.168   0.835  34.149  0.00  0.00    -0.201 NA
ATOM     18  C   UNL A   1     -10.513   1.500  33.814  0.00  0.00    +0.128 C 
ATOM     19  O   UNL A   1     -12.991   2.560  33.413  0.00  0.00    -0.291 OA
ENDROOT
BRANCH   5  20
ATOM     20  N   UNL A   1     -15.861   3.797  38.894  0.00  0.00    -0.307 N 
ATOM     21  C   UNL A   1     -16.847   3.114  39.287  0.00  0.00    +0.091 C 
ATOM     22  C   UNL A   1     -15.651   5.036  39.536  0.00  0.00    +0.091 C 
ATOM     23  C   UNL A   1     -17.306   2.950  40.164  0.00  0.00    +0.021 C 
ATOM     24  C   UNL A   1     -16.171   5.125  40.854  0.00  0.00    +0.021 C 
ATOM     25  C   UNL A   1     -17.158   4.137  41.197  0.00  0.00    +0.004 C 
ENDBRANCH   5  20
TORSDOF 1
ENDMDL
ENDMDL
