REMARK  Name = No_258-gen_results/8p0m/2024-11-26-14-13-15/
REMARK  10 active torsions:
REMARK  status: ('A' for Active; 'I' for Inactive)
REMARK    1  A    between atoms: C_3  and  C_4
REMARK    2  A    between atoms: C_4  and  C_5
REMARK    3  A    between atoms: C_4  and  C_9
REMARK    4  A    between atoms: C_7  and  C_29
REMARK    5  A    between atoms: C_9  and  C_10
REMARK    6  A    between atoms: C_16  and  C_18
REMARK    7  A    between atoms: C_22  and  C_25
REMARK    8  A    between atoms: C_29  and  N_30
REMARK    9  A    between atoms: C_31  and  C_33
REMARK   10  A    between atoms: C_33  and  C_34
REMARK                            x       y       z     vdW  Elec       q    Type
REMARK                         _______ _______ _______ _____ _____    ______ ____
ROOT
ATOM      1  C   UNL A   1     -27.442   0.510  26.795  0.00  0.00    +0.045 C 
ENDROOT
BRANCH   1   4
ATOM      2  C   UNL A   1     -28.016  -0.814  28.878  0.00  0.00    -0.004 A 
ATOM      3  C   UNL A   1     -28.469  -0.785  29.829  0.00  0.00    -0.001 A 
ATOM      4  C   UNL A   1     -28.196   0.348  28.055  0.00  0.00    -0.019 A 
ATOM      5  C   UNL A   1     -29.496   0.109  30.345  0.00  0.00    -0.003 A 
ATOM      6  C   UNL A   1     -29.728   1.187  29.569  0.00  0.00    -0.001 A 
ATOM      7  C   UNL A   1     -29.042   1.367  28.372  0.00  0.00    -0.006 A 
BRANCH   6   8
ATOM      8  C   UNL A   1     -30.736   2.262  30.009  0.00  0.00    +0.141 C 
BRANCH   8   9
ATOM      9  N   UNL A   1     -30.725   2.676  31.128  0.00  0.00    -0.200 NA
ATOM     10  C   UNL A   1     -30.961   3.727  31.648  0.00  0.00    +0.246 C 
ATOM     11  O   UNL A   1     -31.020   3.980  32.874  0.00  0.00    -0.273 OA
BRANCH  10  12
ATOM     12  C   UNL A   1     -31.312   4.933  30.707  0.00  0.00    +0.113 C 
BRANCH  12  13
ATOM     13  C   UNL A   1     -30.901   6.021  31.188  0.00  0.00    -0.017 C 
ATOM     14  C   UNL A   1     -31.331   7.071  30.439  0.00  0.00    -0.004 C 
ENDBRANCH  12  13
ENDBRANCH  10  12
ENDBRANCH   8   9
ENDBRANCH   6   8
ENDBRANCH   1   4
BRANCH   1  15
ATOM     15  C   UNL A   1     -27.843   1.333  25.806  0.00  0.00    -0.044 C 
ATOM     16  C   UNL A   1     -28.490   0.768  24.775  0.00  0.00    -0.029 C 
ATOM     17  C   UNL A   1     -27.779   2.774  25.890  0.00  0.00    +0.026 C 
ATOM     18  C   UNL A   1     -27.561   0.112  23.812  0.00  0.00    +0.030 C 
BRANCH  16  19
ATOM     19  C   UNL A   1     -29.614   0.838  24.652  0.00  0.00    -0.005 A 
ATOM     20  C   UNL A   1     -30.331   0.326  23.530  0.00  0.00    -0.000 A 
ATOM     21  C   UNL A   1     -31.742   0.400  23.494  0.00  0.00    -0.000 A 
ATOM     22  C   UNL A   1     -32.447   1.105  24.448  0.00  0.00    +0.004 A 
ATOM     23  C   UNL A   1     -31.819   1.704  25.475  0.00  0.00    +0.071 A 
ATOM     24  C   UNL A   1     -30.507   1.594  25.648  0.00  0.00    +0.004 A 
BRANCH  23  25
ATOM     25  C   UNL A   1     -32.713   2.391  26.485  0.00  0.00    +0.419 C 
ATOM     26  F   UNL A   1     -32.174   3.291  27.168  0.00  0.00    -0.166 F 
ATOM     27  F   UNL A   1     -33.201   1.462  27.358  0.00  0.00    -0.166 F 
ATOM     28  F   UNL A   1     -33.725   2.975  25.831  0.00  0.00    -0.166 F 
ENDBRANCH  23  25
ENDBRANCH  16  19
ENDBRANCH   1  15
BRANCH   1  29
ATOM     29  C   UNL A   1     -26.128  -0.067  26.626  0.00  0.00    +0.035 C 
BRANCH  29  30
ATOM     30  C   UNL A   1     -25.006   0.693  27.166  0.00  0.00    -0.021 A 
ATOM     31  C   UNL A   1     -24.161   0.333  28.191  0.00  0.00    -0.004 A 
ATOM     32  C   UNL A   1     -23.014   1.101  28.471  0.00  0.00    -0.000 A 
ATOM     33  C   UNL A   1     -22.449   1.730  27.697  0.00  0.00    -0.000 A 
ATOM     34  C   UNL A   1     -24.580   1.848  26.351  0.00  0.00    -0.004 A 
ATOM     35  C   UNL A   1     -23.255   2.300  26.567  0.00  0.00    -0.000 A 
ENDBRANCH  29  30
ENDBRANCH   1  29
TORSDOF 10
