MODEL 2580
MODEL 1
REMARK VINA RESULT:    -5.979      0.000      0.000
REMARK INTER + INTRA:          -6.924
REMARK INTER:                  -6.678
REMARK INTRA:                  -0.246
REMARK UNBOUND:                -0.246
REMARK  Name = No_2580-gen_results/8p0m/2024-11-26-14-13-15/
REMARK  2 active torsions:
REMARK  status: ('A' for Active; 'I' for Inactive)
REMARK    1  A    between atoms: C_3  and  C_12
REMARK    2  A    between atoms: C_12  and  C_13
REMARK                            x       y       z     vdW  Elec       q    Type
REMARK                         _______ _______ _______ _____ _____    ______ ____
ROOT
ATOM      1  O   UNL A   1     -24.767   0.786  30.512  0.00  0.00    -0.273 OA
ATOM      2  C   UNL A   1     -24.439  -0.226  30.070  0.00  0.00    +0.247 C 
ATOM      3  C   UNL A   1     -23.616  -0.687  29.534  0.00  0.00    +0.087 C 
ATOM      4  N   UNL A   1     -25.524  -1.304  30.273  0.00  0.00    -0.161 NA
ATOM      5  C   UNL A   1     -23.237  -1.992  28.999  0.00  0.00    +0.039 C 
ATOM      6  C   UNL A   1     -25.396  -2.584  29.840  0.00  0.00    +0.150 A 
ATOM      7  C   UNL A   1     -24.240  -2.977  29.192  0.00  0.00    +0.012 A 
ATOM      8  N   UNL A   1     -26.371  -3.463  30.042  0.00  0.00    -0.228 NA
ATOM      9  C   UNL A   1     -26.197  -4.797  29.666  0.00  0.00    +0.100 A 
ATOM     10  C   UNL A   1     -25.069  -5.183  28.992  0.00  0.00    +0.021 A 
ATOM     11  C   UNL A   1     -24.107  -4.328  28.746  0.00  0.00    +0.000 A 
ENDROOT
BRANCH   3  12
ATOM     12  C   UNL A   1     -22.381   0.350  29.303  0.00  0.00    +0.035 C 
BRANCH  12  13
ATOM     13  C   UNL A   1     -21.967   0.636  28.190  0.00  0.00    -0.026 C 
ATOM     14  C   UNL A   1     -22.329   1.803  27.560  0.00  0.00    -0.005 C 
ENDBRANCH  12  13
ENDBRANCH   3  12
TORSDOF 2
ENDMDL
ENDMDL
