MODEL 2581
MODEL 1
REMARK VINA RESULT:    -4.262      0.000      0.000
REMARK INTER + INTRA:          -4.262
REMARK INTER:                  -4.262
REMARK INTRA:                   0.000
REMARK UNBOUND:                 0.000
REMARK  Name = No_2581-gen_results/8p0m/2024-11-26-14-13-15/
REMARK  0 active torsions:
REMARK  status: ('A' for Active; 'I' for Inactive)
REMARK                            x       y       z     vdW  Elec       q    Type
REMARK                         _______ _______ _______ _____ _____    ______ ____
ROOT
ATOM      1  C   UNL A   1     -26.374  -3.827  29.776  0.00  0.00    +0.000 A 
ATOM      2  C   UNL A   1     -26.089  -4.829  29.621  0.00  0.00    +0.000 A 
ATOM      3  C   UNL A   1     -25.384  -2.798  29.421  0.00  0.00    +0.000 A 
ATOM      4  C   UNL A   1     -24.167  -3.156  28.771  0.00  0.00    +0.000 A 
ATOM      5  C   UNL A   1     -24.933  -5.457  28.923  0.00  0.00    +0.000 A 
ATOM      6  C   UNL A   1     -23.988  -4.534  28.587  0.00  0.00    +0.000 A 
ENDROOT
TORSDOF 0
ENDMDL
ENDMDL
