MODEL 2582
MODEL 1
REMARK VINA RESULT:    -6.439      0.000      0.000
REMARK INTER + INTRA:          -7.718
REMARK INTER:                  -7.192
REMARK INTRA:                  -0.527
REMARK UNBOUND:                -0.527
REMARK  Name = No_2582-gen_results/8p0m/2024-11-26-14-13-15/
REMARK  2 active torsions:
REMARK  status: ('A' for Active; 'I' for Inactive)
REMARK    1  A    between atoms: C_2  and  N_8
REMARK    2  A    between atoms: C_12  and  C_13
REMARK                            x       y       z     vdW  Elec       q    Type
REMARK                         _______ _______ _______ _____ _____    ______ ____
ROOT
ATOM      1  N   UNL A   1     -23.809  -0.039  29.508  0.00  0.00    -0.305 N 
ATOM      2  C   UNL A   1     -23.945   0.679  30.641  0.00  0.00    +0.080 A 
ATOM      3  C   UNL A   1     -24.035  -0.044  31.825  0.00  0.00    +0.021 A 
ATOM      4  C   UNL A   1     -23.967  -1.411  31.534  0.00  0.00    +0.019 A 
ATOM      5  C   UNL A   1     -23.813  -1.402  29.894  0.00  0.00    +0.064 A 
ENDROOT
BRANCH   1   7
ATOM      6  C   UNL A   1     -24.380   0.554  27.197  0.00  0.00    +0.020 A 
ATOM      7  C   UNL A   1     -23.713   0.645  28.202  0.00  0.00    +0.064 A 
ATOM      8  C   UNL A   1     -22.496   1.296  28.255  0.00  0.00    +0.020 A 
ATOM      9  C   UNL A   1     -22.025   1.926  27.069  0.00  0.00    +0.031 A 
ATOM     10  C   UNL A   1     -22.882   1.943  26.022  0.00  0.00    +0.140 A 
ATOM     11  C   UNL A   1     -24.048   1.327  26.074  0.00  0.00    +0.031 A 
ATOM     12  F   UNL A   1     -22.652   2.640  24.895  0.00  0.00    -0.204 F 
ENDBRANCH   1   7
BRANCH   5  13
ATOM     13  C   UNL A   1     -23.771  -2.559  29.159  0.00  0.00    +0.013 C 
ATOM     14  C   UNL A   1     -24.345  -3.666  29.300  0.00  0.00    -0.024 C 
ATOM     15  C   UNL A   1     -24.107  -4.842  28.440  0.00  0.00    +0.031 C 
ENDBRANCH   5  13
TORSDOF 2
ENDMDL
ENDMDL
