REMARK  Name = No_2582-gen_results/8p0m/2024-11-26-14-13-15/
REMARK  2 active torsions:
REMARK  status: ('A' for Active; 'I' for Inactive)
REMARK    1  A    between atoms: C_2  and  N_8
REMARK    2  A    between atoms: C_12  and  C_13
REMARK                            x       y       z     vdW  Elec       q    Type
REMARK                         _______ _______ _______ _____ _____    ______ ____
ROOT
ATOM      1  N   UNL A   1     -25.692  -0.080  29.155  0.00  0.00    -0.305 N 
ATOM      2  C   UNL A   1     -25.337  -0.912  30.156  0.00  0.00    +0.080 A 
ATOM      3  C   UNL A   1     -24.026  -0.814  30.606  0.00  0.00    +0.021 A 
ATOM      4  C   UNL A   1     -23.358   0.169  29.866  0.00  0.00    +0.019 A 
ATOM      5  C   UNL A   1     -24.539   0.680  28.838  0.00  0.00    +0.064 A 
ENDROOT
BRANCH   1   7
ATOM      6  C   UNL A   1     -28.016  -0.814  28.878  0.00  0.00    +0.020 A 
ATOM      7  C   UNL A   1     -27.064  -0.119  28.608  0.00  0.00    +0.064 A 
ATOM      8  C   UNL A   1     -27.001   0.691  27.491  0.00  0.00    +0.020 A 
ATOM      9  C   UNL A   1     -28.137   0.736  26.635  0.00  0.00    +0.031 A 
ATOM     10  C   UNL A   1     -29.236   0.076  27.069  0.00  0.00    +0.140 A 
ATOM     11  C   UNL A   1     -29.218  -0.643  28.175  0.00  0.00    +0.031 A 
ATOM     12  F   UNL A   1     -30.432   0.161  26.459  0.00  0.00    -0.204 F 
ENDBRANCH   1   7
BRANCH   5  13
ATOM     13  C   UNL A   1     -24.306   1.621  27.868  0.00  0.00    +0.013 C 
ATOM     14  C   UNL A   1     -23.667   1.574  26.788  0.00  0.00    -0.024 C 
ATOM     15  C   UNL A   1     -23.451   2.732  25.899  0.00  0.00    +0.031 C 
ENDBRANCH   5  13
TORSDOF 2
