REMARK  Name = No_2583-gen_results/8p0m/2024-11-26-14-13-15/
REMARK  4 active torsions:
REMARK  status: ('A' for Active; 'I' for Inactive)
REMARK    1  A    between atoms: C_8  and  C_9
REMARK    2  A    between atoms: C_12  and  C_15
REMARK    3  A    between atoms: C_15  and  C_16
REMARK    4  A    between atoms: C_24  and  C_26
REMARK                            x       y       z     vdW  Elec       q    Type
REMARK                         _______ _______ _______ _____ _____    ______ ____
ROOT
ATOM      1  C   UNL A   1     -28.016  -0.814  28.878  0.00  0.00    -0.000 A 
ATOM      2  C   UNL A   1     -27.064  -0.119  28.608  0.00  0.00    -0.000 A 
ATOM      3  C   UNL A   1     -25.792  -0.430  29.076  0.00  0.00    -0.000 A 
ATOM      4  C   UNL A   1     -25.576  -1.565  29.936  0.00  0.00    -0.000 A 
ATOM      5  C   UNL A   1     -26.735  -2.300  30.217  0.00  0.00    -0.000 A 
ATOM      6  C   UNL A   1     -27.918  -1.954  29.763  0.00  0.00    -0.000 A 
ATOM      7  C   UNL A   1     -26.897   1.102  27.705  0.00  0.00    -0.000 C 
ATOM      8  C   UNL A   1     -27.706   1.429  26.966  0.00  0.00    -0.000 C 
ATOM      9  C   UNL A   1     -24.621   0.348  28.631  0.00  0.00    +0.000 C 
ATOM     10  C   UNL A   1     -25.271   1.341  27.733  0.00  0.00    -0.000 C 
ENDROOT
BRANCH   8  11
ATOM     11  C   UNL A   1     -28.966   0.634  26.843  0.00  0.00    -0.000 A 
ATOM     12  C   UNL A   1     -29.943   1.315  26.714  0.00  0.00    -0.000 A 
ATOM     13  C   UNL A   1     -31.283   0.646  26.738  0.00  0.00    -0.004 A 
ATOM     14  C   UNL A   1     -31.209  -0.705  26.610  0.00  0.00    -0.019 A 
ATOM     15  C   UNL A   1     -30.074  -1.352  26.383  0.00  0.00    -0.004 A 
ATOM     16  C   UNL A   1     -28.863  -0.725  26.606  0.00  0.00    -0.000 A 
BRANCH  14  17
ATOM     17  C   UNL A   1     -32.508  -1.516  26.355  0.00  0.00    +0.038 C 
ATOM     18  C   UNL A   1     -33.600  -0.593  25.962  0.00  0.00    +0.009 C 
ATOM     19  C   UNL A   1     -32.261  -2.571  25.278  0.00  0.00    +0.009 C 
BRANCH  17  20
ATOM     20  C   UNL A   1     -32.887  -2.197  27.623  0.00  0.00    -0.019 A 
ATOM     21  C   UNL A   1     -33.331  -3.324  27.546  0.00  0.00    -0.004 A 
ATOM     22  C   UNL A   1     -33.560  -4.138  28.739  0.00  0.00    -0.000 A 
ATOM     23  C   UNL A   1     -33.292  -3.554  30.000  0.00  0.00    -0.000 A 
ATOM     24  C   UNL A   1     -32.790  -2.272  30.039  0.00  0.00    -0.000 A 
ATOM     25  C   UNL A   1     -32.511  -1.620  28.877  0.00  0.00    -0.004 A 
ENDBRANCH  17  20
ENDBRANCH  14  17
ENDBRANCH   8  11
BRANCH   9  26
ATOM     26  C   UNL A   1     -23.292   0.373  28.972  0.00  0.00    +0.031 C 
ATOM     27  C   UNL A   1     -22.699  -0.684  29.524  0.00  0.00    +0.100 C 
ATOM     28  N   UNL A   1     -21.254  -0.541  29.518  0.00  0.00    -0.145 NA
ATOM     29  C   UNL A   1     -22.205   0.958  28.054  0.00  0.00    +0.210 C 
ATOM     30  N   UNL A   1     -22.461   2.019  27.264  0.00  0.00    -0.107 NA
ATOM     31  N   UNL A   1     -21.020   0.537  28.563  0.00  0.00    -0.088 NA
ENDBRANCH   9  26
TORSDOF 4
