MODEL 2583
MODEL 1
REMARK VINA RESULT:    -8.984      0.000      0.000
REMARK INTER + INTRA:         -11.899
REMARK INTER:                 -11.085
REMARK INTRA:                  -0.814
REMARK UNBOUND:                -0.814
REMARK  Name = No_2583-gen_results/8p0m/2024-11-26-14-13-15/
REMARK  4 active torsions:
REMARK  status: ('A' for Active; 'I' for Inactive)
REMARK    1  A    between atoms: C_8  and  C_9
REMARK    2  A    between atoms: C_12  and  C_15
REMARK    3  A    between atoms: C_15  and  C_16
REMARK    4  A    between atoms: C_24  and  C_26
REMARK                            x       y       z     vdW  Elec       q    Type
REMARK                         _______ _______ _______ _____ _____    ______ ____
ROOT
ATOM      1  C   UNL A   1     -30.694 -14.216  28.471  0.00  0.00    -0.000 A 
ATOM      2  C   UNL A   1     -30.106 -13.443  29.191  0.00  0.00    -0.000 A 
ATOM      3  C   UNL A   1     -29.706 -13.816  30.470  0.00  0.00    -0.000 A 
ATOM      4  C   UNL A   1     -30.022 -15.119  30.995  0.00  0.00    -0.000 A 
ATOM      5  C   UNL A   1     -30.725 -15.941  30.104  0.00  0.00    -0.000 A 
ATOM      6  C   UNL A   1     -31.094 -15.535  28.910  0.00  0.00    -0.000 A 
ATOM      7  C   UNL A   1     -29.563 -12.032  28.971  0.00  0.00    -0.000 C 
ATOM      8  C   UNL A   1     -29.492 -11.562  27.931  0.00  0.00    -0.000 C 
ATOM      9  C   UNL A   1     -28.875 -12.912  31.286  0.00  0.00    +0.000 C 
ATOM     10  C   UNL A   1     -28.738 -11.751  30.365  0.00  0.00    -0.000 C 
ENDROOT
BRANCH   8  11
ATOM     11  C   UNL A   1     -29.913 -12.345  26.730  0.00  0.00    -0.000 A 
ATOM     12  C   UNL A   1     -30.846 -11.862  26.155  0.00  0.00    -0.000 A 
ATOM     13  C   UNL A   1     -31.463 -12.634  25.029  0.00  0.00    -0.004 A 
ATOM     14  C   UNL A   1     -30.692 -13.670  24.605  0.00  0.00    -0.019 A 
ATOM     15  C   UNL A   1     -29.474 -13.908  25.072  0.00  0.00    -0.004 A 
ATOM     16  C   UNL A   1     -29.060 -13.325  26.254  0.00  0.00    -0.000 A 
BRANCH  14  17
ATOM     17  C   UNL A   1     -31.062 -14.401  23.286  0.00  0.00    +0.038 C 
ATOM     18  C   UNL A   1     -30.593 -15.806  23.350  0.00  0.00    +0.009 C 
ATOM     19  C   UNL A   1     -32.571 -14.331  23.056  0.00  0.00    +0.009 C 
BRANCH  17  20
ATOM     20  C   UNL A   1     -30.368 -13.713  22.163  0.00  0.00    -0.019 A 
ATOM     21  C   UNL A   1     -30.834 -12.663  21.772  0.00  0.00    -0.004 A 
ATOM     22  C   UNL A   1     -30.126 -11.827  20.803  0.00  0.00    -0.000 A 
ATOM     23  C   UNL A   1     -28.894 -12.303  20.294  0.00  0.00    -0.000 A 
ATOM     24  C   UNL A   1     -28.405 -13.501  20.765  0.00  0.00    -0.000 A 
ATOM     25  C   UNL A   1     -29.078 -14.168  21.742  0.00  0.00    -0.004 A 
ENDBRANCH  17  20
ENDBRANCH  14  17
ENDBRANCH   8  11
BRANCH   9  26
ATOM     26  C   UNL A   1     -28.418 -12.925  32.580  0.00  0.00    +0.031 C 
ATOM     27  C   UNL A   1     -27.270 -12.339  32.915  0.00  0.00    +0.100 C 
ATOM     28  N   UNL A   1     -27.140 -12.216  34.356  0.00  0.00    -0.145 NA
ATOM     29  C   UNL A   1     -29.328 -12.654  33.790  0.00  0.00    +0.210 C 
ATOM     30  N   UNL A   1     -30.617 -13.046  33.791  0.00  0.00    -0.107 NA
ATOM     31  N   UNL A   1     -28.497 -12.444  34.842  0.00  0.00    -0.088 NA
ENDBRANCH   9  26
TORSDOF 4
ENDMDL
ENDMDL
