REMARK  Name = No_2584-gen_results/8p0m/2024-11-26-14-13-15/
REMARK  2 active torsions:
REMARK  status: ('A' for Active; 'I' for Inactive)
REMARK    1  A    between atoms: C_2  and  C_3
REMARK    2  A    between atoms: C_2  and  N_4
REMARK                            x       y       z     vdW  Elec       q    Type
REMARK                         _______ _______ _______ _____ _____    ______ ____
ROOT
ATOM      1  C   UNL A   1     -26.402  -0.062  28.622  0.00  0.00    +0.055 A 
ATOM      2  C   UNL A   1     -26.777   1.057  27.790  0.00  0.00    +0.005 A 
ATOM      3  C   UNL A   1     -25.913   1.979  27.218  0.00  0.00    +0.000 A 
ATOM      4  C   UNL A   1     -24.524   2.031  27.699  0.00  0.00    +0.000 A 
ATOM      5  C   UNL A   1     -24.106   1.048  28.558  0.00  0.00    +0.000 A 
ATOM      6  C   UNL A   1     -24.906   0.067  28.986  0.00  0.00    +0.005 A 
ENDROOT
BRANCH   1   8
ATOM      7  O   UNL A   1     -28.123  -1.335  28.487  0.00  0.00    -0.268 OA
ATOM      8  C   UNL A   1     -27.064  -0.824  28.869  0.00  0.00    +0.269 C 
BRANCH   8   9
ATOM      9  N   UNL A   1     -26.381  -1.799  29.962  0.00  0.00    -0.173 NA
ATOM     10  C   UNL A   1     -25.275  -1.556  30.596  0.00  0.00    +0.107 C 
ENDBRANCH   8   9
ENDBRANCH   1   8
TORSDOF 2
