MODEL 2584
MODEL 1
REMARK VINA RESULT:    -4.912      0.000      0.000
REMARK INTER + INTRA:          -5.582
REMARK INTER:                  -5.486
REMARK INTRA:                  -0.096
REMARK UNBOUND:                -0.096
REMARK  Name = No_2584-gen_results/8p0m/2024-11-26-14-13-15/
REMARK  2 active torsions:
REMARK  status: ('A' for Active; 'I' for Inactive)
REMARK    1  A    between atoms: C_2  and  C_3
REMARK    2  A    between atoms: C_2  and  N_4
REMARK                            x       y       z     vdW  Elec       q    Type
REMARK                         _______ _______ _______ _____ _____    ______ ____
ROOT
ATOM      1  C   UNL A   1     -24.230  -2.586  29.210  0.00  0.00    +0.055 A 
ATOM      2  C   UNL A   1     -23.944  -3.967  28.899  0.00  0.00    +0.005 A 
ATOM      3  C   UNL A   1     -24.853  -5.014  28.903  0.00  0.00    +0.000 A 
ATOM      4  C   UNL A   1     -26.161  -4.805  29.543  0.00  0.00    +0.000 A 
ATOM      5  C   UNL A   1     -26.483  -3.534  29.943  0.00  0.00    +0.000 A 
ATOM      6  C   UNL A   1     -25.658  -2.493  29.793  0.00  0.00    +0.005 A 
ENDROOT
BRANCH   1   8
ATOM      7  O   UNL A   1     -22.347  -1.598  28.934  0.00  0.00    -0.268 OA
ATOM      8  C   UNL A   1     -23.561  -1.816  29.012  0.00  0.00    +0.269 C 
BRANCH   8   9
ATOM      9  N   UNL A   1     -24.356  -0.559  28.381  0.00  0.00    -0.173 NA
ATOM     10  C   UNL A   1     -23.875   0.270  27.506  0.00  0.00    +0.107 C 
ENDBRANCH   8   9
ENDBRANCH   1   8
TORSDOF 2
ENDMDL
ENDMDL
