MODEL 2585
MODEL 1
REMARK VINA RESULT:    -6.975      0.000      0.000
REMARK INTER + INTRA:          -7.444
REMARK INTER:                  -7.383
REMARK INTRA:                  -0.061
REMARK UNBOUND:                -0.061
REMARK  Name = No_2585-gen_results/8p0m/2024-11-26-14-13-15/
REMARK  1 active torsions:
REMARK  status: ('A' for Active; 'I' for Inactive)
REMARK    1  A    between atoms: C_2  and  C_5
REMARK                            x       y       z     vdW  Elec       q    Type
REMARK                         _______ _______ _______ _____ _____    ______ ____
ROOT
ATOM      1  C   UNL A   1     -24.866  -1.355  30.100  0.00  0.00    +0.004 A 
ATOM      2  C   UNL A   1     -24.109  -1.713  29.460  0.00  0.00    +0.054 A 
ATOM      3  C   UNL A   1     -26.022  -2.302  30.334  0.00  0.00    +0.000 A 
ATOM      4  C   UNL A   1     -25.954  -3.615  29.822  0.00  0.00    +0.000 A 
ATOM      5  C   UNL A   1     -24.849  -3.939  29.068  0.00  0.00    +0.000 A 
ATOM      6  C   UNL A   1     -23.835  -3.027  28.884  0.00  0.00    +0.004 A 
ATOM      7  C   UNL A   1     -27.267  -1.960  31.084  0.00  0.00    +0.000 A 
ATOM      8  C   UNL A   1     -28.409  -2.726  30.895  0.00  0.00    +0.000 A 
ATOM      9  C   UNL A   1     -28.254  -4.108  30.560  0.00  0.00    +0.000 A 
ATOM     10  C   UNL A   1     -27.082  -4.517  29.874  0.00  0.00    +0.000 A 
ENDROOT
BRANCH   2  11
ATOM     11  C   UNL A   1     -22.910  -0.767  29.225  0.00  0.00    +0.249 C 
ATOM     12  O   UNL A   1     -22.002  -0.651  29.864  0.00  0.00    -0.270 OA
ATOM     13  N   UNL A   1     -23.104   0.077  28.111  0.00  0.00    -0.276 N 
ATOM     14  C   UNL A   1     -22.155   1.103  27.835  0.00  0.00    +0.094 C 
ATOM     15  C   UNL A   1     -24.240  -0.032  27.210  0.00  0.00    +0.094 C 
ATOM     16  C   UNL A   1     -24.906   0.798  26.888  0.00  0.00    +0.022 C 
ATOM     17  C   UNL A   1     -22.872   2.267  27.303  0.00  0.00    +0.022 C 
ATOM     18  C   UNL A   1     -24.155   2.102  26.614  0.00  0.00    +0.004 C 
ENDBRANCH   2  11
TORSDOF 1
ENDMDL
ENDMDL
