REMARK  Name = No_2585-gen_results/8p0m/2024-11-26-14-13-15/
REMARK  1 active torsions:
REMARK  status: ('A' for Active; 'I' for Inactive)
REMARK    1  A    between atoms: C_2  and  C_5
REMARK                            x       y       z     vdW  Elec       q    Type
REMARK                         _______ _______ _______ _____ _____    ______ ____
ROOT
ATOM      1  C   UNL A   1     -28.016  -0.814  28.878  0.00  0.00    +0.004 A 
ATOM      2  C   UNL A   1     -28.469  -0.785  29.829  0.00  0.00    +0.054 A 
ATOM      3  C   UNL A   1     -26.504  -0.778  28.877  0.00  0.00    +0.000 A 
ATOM      4  C   UNL A   1     -25.810  -0.853  30.103  0.00  0.00    +0.000 A 
ATOM      5  C   UNL A   1     -26.567  -0.885  31.252  0.00  0.00    +0.000 A 
ATOM      6  C   UNL A   1     -27.941  -0.907  31.185  0.00  0.00    +0.004 A 
ATOM      7  C   UNL A   1     -25.654  -0.668  27.654  0.00  0.00    +0.000 A 
ATOM      8  C   UNL A   1     -24.341  -0.234  27.773  0.00  0.00    +0.000 A 
ATOM      9  C   UNL A   1     -23.638  -0.517  28.986  0.00  0.00    +0.000 A 
ATOM     10  C   UNL A   1     -24.379  -0.667  30.186  0.00  0.00    +0.000 A 
ENDROOT
BRANCH   2  11
ATOM     11  C   UNL A   1     -30.014  -0.841  29.851  0.00  0.00    +0.249 C 
ATOM     12  O   UNL A   1     -30.656  -1.692  30.181  0.00  0.00    -0.270 OA
ATOM     13  N   UNL A   1     -30.600   0.312  29.288  0.00  0.00    -0.276 N 
ATOM     14  C   UNL A   1     -32.012   0.363  29.107  0.00  0.00    +0.094 C 
ATOM     15  C   UNL A   1     -29.837   1.476  28.867  0.00  0.00    +0.094 C 
ATOM     16  C   UNL A   1     -29.910   1.989  27.883  0.00  0.00    +0.022 C 
ATOM     17  C   UNL A   1     -32.294   1.104  27.872  0.00  0.00    +0.022 C 
ATOM     18  C   UNL A   1     -31.346   2.099  27.366  0.00  0.00    +0.004 C 
ENDBRANCH   2  11
TORSDOF 1
