MODEL 2586
MODEL 1
REMARK VINA RESULT:    -4.454      0.000      0.000
REMARK INTER + INTRA:          -4.454
REMARK INTER:                  -4.454
REMARK INTRA:                   0.000
REMARK UNBOUND:                 0.000
REMARK  Name = No_2586-gen_results/8p0m/2024-11-26-14-13-15/
REMARK  0 active torsions:
REMARK  status: ('A' for Active; 'I' for Inactive)
REMARK                            x       y       z     vdW  Elec       q    Type
REMARK                         _______ _______ _______ _____ _____    ______ ____
ROOT
ATOM      1  C   UNL A   1      -9.326  -9.209  20.041  0.00  0.00    +0.011 A 
ATOM      2  C   UNL A   1      -8.290  -9.808  19.870  0.00  0.00    +0.058 A 
ATOM      3  C   UNL A   1      -8.048 -10.617  18.806  0.00  0.00    +0.011 A 
ATOM      4  C   UNL A   1      -9.061 -10.772  17.841  0.00  0.00    +0.001 A 
ATOM      5  C   UNL A   1     -10.368  -9.246  19.046  0.00  0.00    +0.001 A 
ATOM      6  C   UNL A   1     -10.186 -10.067  17.973  0.00  0.00    +0.000 A 
ATOM      7 CL   UNL A   1      -6.914  -9.840  20.976  0.00  0.00    -0.082 Cl
ENDROOT
TORSDOF 0
ENDMDL
ENDMDL
