REMARK  Name = No_2587-gen_results/8p0m/2024-11-26-14-13-15/
REMARK  1 active torsions:
REMARK  status: ('A' for Active; 'I' for Inactive)
REMARK    1  A    between atoms: C_2  and  C_5
REMARK                            x       y       z     vdW  Elec       q    Type
REMARK                         _______ _______ _______ _____ _____    ______ ____
ROOT
ATOM      1  C   UNL A   1     -26.034  -0.992  29.304  0.00  0.00    +0.071 A 
ATOM      2  C   UNL A   1     -25.765  -2.256  29.455  0.00  0.00    +0.004 A 
ATOM      3  C   UNL A   1     -24.506  -2.741  29.794  0.00  0.00    -0.000 A 
ATOM      4  C   UNL A   1     -23.503  -1.785  30.043  0.00  0.00    -0.000 A 
ATOM      5  C   UNL A   1     -23.729  -0.417  29.855  0.00  0.00    -0.000 A 
ATOM      6  C   UNL A   1     -24.975   0.002  29.446  0.00  0.00    +0.004 A 
ENDROOT
BRANCH   1   8
ATOM      7  F   UNL A   1     -28.073  -1.254  28.532  0.00  0.00    -0.166 F 
ATOM      8  C   UNL A   1     -27.359  -0.379  28.722  0.00  0.00    +0.419 C 
ATOM      9  F   UNL A   1     -27.758   0.497  29.401  0.00  0.00    -0.166 F 
ATOM     10  F   UNL A   1     -26.945   0.089  27.477  0.00  0.00    -0.166 F 
ENDBRANCH   1   8
TORSDOF 1
