MODEL 2587
MODEL 1
REMARK VINA RESULT:    -5.258      0.000      0.000
REMARK INTER + INTRA:          -5.741
REMARK INTER:                  -5.565
REMARK INTRA:                  -0.176
REMARK UNBOUND:                -0.176
REMARK  Name = No_2587-gen_results/8p0m/2024-11-26-14-13-15/
REMARK  1 active torsions:
REMARK  status: ('A' for Active; 'I' for Inactive)
REMARK    1  A    between atoms: C_2  and  C_5
REMARK                            x       y       z     vdW  Elec       q    Type
REMARK                         _______ _______ _______ _____ _____    ______ ____
ROOT
ATOM      1  C   UNL A   1     -24.434  -2.755  29.020  0.00  0.00    +0.071 A 
ATOM      2  C   UNL A   1     -24.048  -3.968  28.754  0.00  0.00    +0.004 A 
ATOM      3  C   UNL A   1     -24.803  -5.099  29.044  0.00  0.00    -0.000 A 
ATOM      4  C   UNL A   1     -26.079  -4.885  29.599  0.00  0.00    -0.000 A 
ATOM      5  C   UNL A   1     -26.526  -3.604  29.943  0.00  0.00    -0.000 A 
ATOM      6  C   UNL A   1     -25.705  -2.526  29.701  0.00  0.00    +0.004 A 
ENDROOT
BRANCH   1   8
ATOM      7  F   UNL A   1     -22.467  -1.782  28.945  0.00  0.00    -0.166 F 
ATOM      8  C   UNL A   1     -23.563  -1.450  28.921  0.00  0.00    +0.419 C 
ATOM      9  F   UNL A   1     -23.898  -0.782  28.011  0.00  0.00    -0.166 F 
ATOM     10  F   UNL A   1     -23.828  -0.826  30.138  0.00  0.00    -0.166 F 
ENDBRANCH   1   8
TORSDOF 1
ENDMDL
ENDMDL
