MODEL 2588
MODEL 1
REMARK VINA RESULT:    -7.198      0.000      0.000
REMARK INTER + INTRA:         -13.042
REMARK INTER:                 -10.986
REMARK INTRA:                  -2.056
REMARK UNBOUND:                -2.056
REMARK  Name = No_2588-gen_results/8p0m/2024-11-26-14-13-15/
REMARK  9 active torsions:
REMARK  status: ('A' for Active; 'I' for Inactive)
REMARK    1  A    between atoms: C_2  and  C_16
REMARK    2  A    between atoms: C_3  and  C_7
REMARK    3  A    between atoms: C_7  and  O_9
REMARK    4  A    between atoms: O_9  and  C_10
REMARK    5  A    between atoms: C_14  and  C_19
REMARK    6  A    between atoms: C_19  and  O_21
REMARK    7  A    between atoms: O_21  and  C_22
REMARK    8  A    between atoms: C_23  and  C_24
REMARK    9  A    between atoms: C_29  and  O_30
REMARK                            x       y       z     vdW  Elec       q    Type
REMARK                         _______ _______ _______ _____ _____    ______ ____
ROOT
ATOM      1  C   UNL A   1     -23.636   0.485  27.945  0.00  0.00    +0.155 A 
ATOM      2  C   UNL A   1     -22.703   1.058  27.997  0.00  0.00    +0.038 A 
ATOM      3  C   UNL A   1     -22.206   2.086  27.064  0.00  0.00    +0.003 A 
ATOM      4  C   UNL A   1     -22.894   2.226  25.868  0.00  0.00    +0.000 A 
ATOM      5  C   UNL A   1     -24.530   0.570  26.756  0.00  0.00    +0.111 A 
ATOM      6  C   UNL A   1     -24.063   1.476  25.713  0.00  0.00    +0.009 A 
ENDROOT
BRANCH   5   7
ATOM      7  C   UNL A   1     -25.784  -0.119  26.505  0.00  0.00    +0.349 C 
ATOM      8  O   UNL A   1     -26.237  -0.472  25.510  0.00  0.00    -0.244 OA
BRANCH   7   9
ATOM      9  O   UNL A   1     -26.633  -0.105  27.628  0.00  0.00    -0.418 OA
BRANCH   9  10
ATOM     10  C   UNL A   1     -27.923   0.303  27.418  0.00  0.00    +0.183 C 
ATOM     11  C   UNL A   1     -28.220   1.548  27.706  0.00  0.00    +0.044 C 
BRANCH  11  12
ATOM     12  C   UNL A   1     -27.230   2.477  27.870  0.00  0.00    +0.037 A 
ATOM     13  C   UNL A   1     -26.702   2.757  28.773  0.00  0.00    +0.003 A 
ATOM     14  C   UNL A   1     -25.723   3.886  28.967  0.00  0.00    +0.000 A 
ATOM     15  C   UNL A   1     -25.466   4.618  27.797  0.00  0.00    +0.003 A 
ATOM     16  C   UNL A   1     -26.186   4.400  26.684  0.00  0.00    +0.037 A 
ATOM     17  C   UNL A   1     -27.104   3.349  26.690  0.00  0.00    +0.139 A 
BRANCH  17  18
ATOM     18  O   UNL A   1     -27.506   3.160  25.538  0.00  0.00    -0.471 OA
ATOM     19  C   UNL A   1     -28.438   4.100  25.432  0.00  0.00    +0.253 C 
ENDBRANCH  17  18
ENDBRANCH  11  12
ENDBRANCH   9  10
ENDBRANCH   7   9
ENDBRANCH   5   7
BRANCH   1  20
ATOM     20  O   UNL A   1     -24.007  -0.500  28.694  0.00  0.00    -0.421 OA
BRANCH  20  21
ATOM     21  C   UNL A   1     -23.384  -1.729  28.937  0.00  0.00    +0.346 C 
ATOM     22  O   UNL A   1     -22.330  -1.802  28.994  0.00  0.00    -0.244 OA
BRANCH  21  25
ATOM     23  C   UNL A   1     -25.634  -2.531  29.809  0.00  0.00    +0.013 A 
ATOM     24  C   UNL A   1     -26.310  -3.336  29.867  0.00  0.00    +0.080 A 
ATOM     25  C   UNL A   1     -24.368  -2.877  29.151  0.00  0.00    +0.076 A 
ATOM     26  C   UNL A   1     -24.046  -4.131  28.832  0.00  0.00    +0.006 A 
ATOM     27  C   UNL A   1     -26.185  -4.751  29.614  0.00  0.00    +0.007 A 
ATOM     28  C   UNL A   1     -24.994  -5.056  29.026  0.00  0.00    +0.000 A 
BRANCH  24  29
ATOM     29  C   UNL A   1     -27.800  -3.074  30.512  0.00  0.00    +0.388 C 
ATOM     30  O   UNL A   1     -28.248  -3.950  31.083  0.00  0.00    -0.241 OA
ATOM     31  O   UNL A   1     -28.498  -2.065  29.976  0.00  0.00    -0.241 OA
ENDBRANCH  24  29
ENDBRANCH  21  25
ENDBRANCH  20  21
ENDBRANCH   1  20
TORSDOF 9
ENDMDL
ENDMDL
