REMARK  Name = No_2588-gen_results/8p0m/2024-11-26-14-13-15/
REMARK  9 active torsions:
REMARK  status: ('A' for Active; 'I' for Inactive)
REMARK    1  A    between atoms: C_2  and  C_16
REMARK    2  A    between atoms: C_3  and  C_7
REMARK    3  A    between atoms: C_7  and  O_9
REMARK    4  A    between atoms: O_9  and  C_10
REMARK    5  A    between atoms: C_14  and  C_19
REMARK    6  A    between atoms: C_19  and  O_21
REMARK    7  A    between atoms: O_21  and  C_22
REMARK    8  A    between atoms: C_23  and  C_24
REMARK    9  A    between atoms: C_29  and  O_30
REMARK                            x       y       z     vdW  Elec       q    Type
REMARK                         _______ _______ _______ _____ _____    ______ ____
ROOT
ATOM      1  C   UNL A   1     -25.348   0.025  27.899  0.00  0.00    +0.155 A 
ATOM      2  C   UNL A   1     -25.067  -0.976  28.243  0.00  0.00    +0.038 A 
ATOM      3  C   UNL A   1     -24.129  -1.345  29.319  0.00  0.00    +0.003 A 
ATOM      4  C   UNL A   1     -23.353  -0.323  29.846  0.00  0.00    +0.000 A 
ATOM      5  C   UNL A   1     -24.659   1.242  28.413  0.00  0.00    +0.111 A 
ATOM      6  C   UNL A   1     -23.621   0.975  29.402  0.00  0.00    +0.009 A 
ENDROOT
BRANCH   5   7
ATOM      7  C   UNL A   1     -24.883   2.634  28.066  0.00  0.00    +0.349 C 
ATOM      8  O   UNL A   1     -24.420   3.260  27.221  0.00  0.00    -0.244 OA
BRANCH   7   9
ATOM      9  O   UNL A   1     -25.573   3.331  29.076  0.00  0.00    -0.418 OA
BRANCH   9  10
ATOM     10  C   UNL A   1     -26.184   4.500  28.709  0.00  0.00    +0.183 C 
ATOM     11  C   UNL A   1     -27.287   4.832  29.336  0.00  0.00    +0.044 C 
BRANCH  11  12
ATOM     12  C   UNL A   1     -27.618   4.234  30.520  0.00  0.00    +0.037 A 
ATOM     13  C   UNL A   1     -27.955   4.689  31.443  0.00  0.00    +0.003 A 
ATOM     14  C   UNL A   1     -28.169   4.033  32.782  0.00  0.00    +0.000 A 
ATOM     15  C   UNL A   1     -27.924   2.650  32.779  0.00  0.00    +0.003 A 
ATOM     16  C   UNL A   1     -27.382   2.056  31.703  0.00  0.00    +0.037 A 
ATOM     17  C   UNL A   1     -27.186   2.826  30.555  0.00  0.00    +0.139 A 
BRANCH  17  18
ATOM     18  O   UNL A   1     -26.892   2.080  29.617  0.00  0.00    -0.471 OA
ATOM     19  C   UNL A   1     -25.890   1.385  30.143  0.00  0.00    +0.253 C 
ENDBRANCH  17  18
ENDBRANCH  11  12
ENDBRANCH   9  10
ENDBRANCH   7   9
ENDBRANCH   5   7
BRANCH   1  20
ATOM     20  O   UNL A   1     -26.073   0.340  26.876  0.00  0.00    -0.421 OA
BRANCH  20  21
ATOM     21  C   UNL A   1     -27.459   0.493  26.770  0.00  0.00    +0.346 C 
ATOM     22  O   UNL A   1     -27.923   0.605  25.825  0.00  0.00    -0.244 OA
BRANCH  21  25
ATOM     23  C   UNL A   1     -28.016  -0.814  28.878  0.00  0.00    +0.013 A 
ATOM     24  C   UNL A   1     -28.469  -0.785  29.829  0.00  0.00    +0.080 A 
ATOM     25  C   UNL A   1     -28.182   0.428  28.113  0.00  0.00    +0.076 A 
ATOM     26  C   UNL A   1     -28.984   1.415  28.515  0.00  0.00    +0.006 A 
ATOM     27  C   UNL A   1     -29.380   0.138  30.461  0.00  0.00    +0.007 A 
ATOM     28  C   UNL A   1     -29.541   1.274  29.724  0.00  0.00    +0.000 A 
BRANCH  24  29
ATOM     29  C   UNL A   1     -28.299  -2.081  30.827  0.00  0.00    +0.388 C 
ATOM     30  O   UNL A   1     -27.256  -2.534  30.869  0.00  0.00    -0.241 OA
ATOM     31  O   UNL A   1     -29.431  -2.719  31.151  0.00  0.00    -0.241 OA
ENDBRANCH  24  29
ENDBRANCH  21  25
ENDBRANCH  20  21
ENDBRANCH   1  20
TORSDOF 9
