MODEL 2589
MODEL 1
REMARK VINA RESULT:    -6.744      0.000      0.000
REMARK INTER + INTRA:          -7.455
REMARK INTER:                  -7.139
REMARK INTRA:                  -0.316
REMARK UNBOUND:                -0.316
REMARK  Name = No_2589-gen_results/8p0m/2024-11-26-14-13-15/
REMARK  1 active torsions:
REMARK  status: ('A' for Active; 'I' for Inactive)
REMARK    1  A    between atoms: C_4  and  C_6
REMARK                            x       y       z     vdW  Elec       q    Type
REMARK                         _______ _______ _______ _____ _____    ______ ____
ROOT
ATOM      1  C   UNL A   1     -23.631   0.563  27.531  0.00  0.00    +0.011 A 
ATOM      2  C   UNL A   1     -22.668   0.595  27.958  0.00  0.00    +0.058 A 
ATOM      3  C   UNL A   1     -24.437  -0.679  27.839  0.00  0.00    +0.001 A 
ATOM      4  C   UNL A   1     -23.933  -1.618  28.764  0.00  0.00    +0.000 A 
ATOM      5  C   UNL A   1     -21.932  -0.211  28.958  0.00  0.00    +0.011 A 
ATOM      6  C   UNL A   1     -22.669  -1.373  29.296  0.00  0.00    +0.001 A 
ATOM      7 CL   UNL A   1     -21.656   2.076  27.528  0.00  0.00    -0.082 Cl
ENDROOT
BRANCH   4   8
ATOM      8  C   UNL A   1     -24.636  -2.795  29.109  0.00  0.00    +0.000 A 
ATOM      9  C   UNL A   1     -24.309  -3.849  28.943  0.00  0.00    +0.000 A 
ATOM     10  C   UNL A   1     -25.042  -5.095  29.235  0.00  0.00    +0.000 A 
ATOM     11  C   UNL A   1     -26.277  -4.893  29.705  0.00  0.00    +0.000 A 
ATOM     12  C   UNL A   1     -26.049  -2.842  29.681  0.00  0.00    +0.000 A 
ATOM     13  C   UNL A   1     -26.810  -3.763  29.958  0.00  0.00    +0.000 A 
ENDBRANCH   4   8
TORSDOF 1
ENDMDL
ENDMDL
