REMARK  Name = No_2589-gen_results/8p0m/2024-11-26-14-13-15/
REMARK  1 active torsions:
REMARK  status: ('A' for Active; 'I' for Inactive)
REMARK    1  A    between atoms: C_4  and  C_6
REMARK                            x       y       z     vdW  Elec       q    Type
REMARK                         _______ _______ _______ _____ _____    ______ ____
ROOT
ATOM      1  C   UNL A   1     -28.016  -0.814  28.878  0.00  0.00    +0.011 A 
ATOM      2  C   UNL A   1     -28.469  -0.785  29.829  0.00  0.00    +0.058 A 
ATOM      3  C   UNL A   1     -26.504  -0.778  28.877  0.00  0.00    +0.001 A 
ATOM      4  C   UNL A   1     -25.810  -0.853  30.103  0.00  0.00    +0.000 A 
ATOM      5  C   UNL A   1     -27.991  -0.892  31.226  0.00  0.00    +0.011 A 
ATOM      6  C   UNL A   1     -26.575  -0.890  31.266  0.00  0.00    +0.001 A 
ATOM      7 CL   UNL A   1     -30.313  -0.760  29.832  0.00  0.00    -0.082 Cl
ENDROOT
BRANCH   4   8
ATOM      8  C   UNL A   1     -24.398  -0.836  30.177  0.00  0.00    +0.000 A 
ATOM      9  C   UNL A   1     -23.771  -0.918  31.096  0.00  0.00    +0.000 A 
ATOM     10  C   UNL A   1     -22.302  -0.844  31.215  0.00  0.00    +0.000 A 
ATOM     11  C   UNL A   1     -21.683  -0.588  30.058  0.00  0.00    +0.000 A 
ATOM     12  C   UNL A   1     -23.457  -0.586  29.004  0.00  0.00    +0.000 A 
ATOM     13  C   UNL A   1     -22.239  -0.469  28.918  0.00  0.00    +0.000 A 
ENDBRANCH   4   8
TORSDOF 1
