MODEL 258
MODEL 1
REMARK VINA RESULT:    -8.386      0.000      0.000
REMARK INTER + INTRA:         -16.113
REMARK INTER:                 -13.288
REMARK INTRA:                  -2.825
REMARK UNBOUND:                -2.825
REMARK  Name = No_258-gen_results/8p0m/2024-11-26-14-13-15/
REMARK  10 active torsions:
REMARK  status: ('A' for Active; 'I' for Inactive)
REMARK    1  A    between atoms: C_3  and  C_4
REMARK    2  A    between atoms: C_4  and  C_5
REMARK    3  A    between atoms: C_4  and  C_9
REMARK    4  A    between atoms: C_7  and  C_29
REMARK    5  A    between atoms: C_9  and  C_10
REMARK    6  A    between atoms: C_16  and  C_18
REMARK    7  A    between atoms: C_22  and  C_25
REMARK    8  A    between atoms: C_29  and  N_30
REMARK    9  A    between atoms: C_31  and  C_33
REMARK   10  A    between atoms: C_33  and  C_34
REMARK                            x       y       z     vdW  Elec       q    Type
REMARK                         _______ _______ _______ _____ _____    ______ ____
ROOT
ATOM      1  C   UNL A   1     -24.371  -0.235  30.399  0.00  0.00    +0.045 C 
ENDROOT
BRANCH   1   4
ATOM      2  C   UNL A   1     -23.241  -1.309  32.397  0.00  0.00    -0.004 A 
ATOM      3  C   UNL A   1     -23.262  -1.436  33.443  0.00  0.00    -0.001 A 
ATOM      4  C   UNL A   1     -24.378  -0.654  31.816  0.00  0.00    -0.019 A 
ATOM      5  C   UNL A   1     -24.378  -1.329  34.372  0.00  0.00    -0.003 A 
ATOM      6  C   UNL A   1     -25.482  -0.764  33.844  0.00  0.00    -0.001 A 
ATOM      7  C   UNL A   1     -25.513  -0.365  32.511  0.00  0.00    -0.006 A 
BRANCH   6   8
ATOM      8  C   UNL A   1     -26.725  -0.518  34.715  0.00  0.00    +0.141 C 
BRANCH   8   9
ATOM      9  N   UNL A   1     -26.835   0.495  35.335  0.00  0.00    -0.200 NA
ATOM     10  C   UNL A   1     -26.794   0.792  36.494  0.00  0.00    +0.246 C 
ATOM     11  O   UNL A   1     -26.810   1.942  36.992  0.00  0.00    -0.273 OA
BRANCH  10  12
ATOM     12  C   UNL A   1     -26.631  -0.375  37.530  0.00  0.00    +0.113 C 
BRANCH  12  13
ATOM     13  C   UNL A   1     -25.710  -0.129  38.352  0.00  0.00    -0.017 C 
ATOM     14  C   UNL A   1     -24.549  -0.723  37.966  0.00  0.00    -0.004 C 
ENDBRANCH  12  13
ENDBRANCH  10  12
ENDBRANCH   8   9
ENDBRANCH   6   8
ENDBRANCH   1   4
BRANCH   1  15
ATOM     15  C   UNL A   1     -23.571   0.744  29.932  0.00  0.00    -0.044 C 
ATOM     16  C   UNL A   1     -22.817   0.449  28.863  0.00  0.00    -0.029 C 
ATOM     17  C   UNL A   1     -23.626   2.111  30.398  0.00  0.00    +0.026 C 
ATOM     18  C   UNL A   1     -21.600  -0.332  29.224  0.00  0.00    +0.030 C 
BRANCH  16  19
ATOM     19  C   UNL A   1     -23.076   0.807  27.820  0.00  0.00    -0.005 A 
ATOM     20  C   UNL A   1     -22.426   1.893  27.160  0.00  0.00    -0.000 A 
ATOM     21  C   UNL A   1     -22.772   2.227  25.831  0.00  0.00    -0.000 A 
ATOM     22  C   UNL A   1     -23.844   1.631  25.199  0.00  0.00    +0.004 A 
ATOM     23  C   UNL A   1     -24.567   0.675  25.807  0.00  0.00    +0.071 A 
ATOM     24  C   UNL A   1     -24.246   0.222  27.014  0.00  0.00    +0.004 A 
BRANCH  23  25
ATOM     25  C   UNL A   1     -25.676   0.060  24.981  0.00  0.00    +0.419 C 
ATOM     26  F   UNL A   1     -25.846  -1.172  25.127  0.00  0.00    -0.166 F 
ATOM     27  F   UNL A   1     -25.423   0.277  23.658  0.00  0.00    -0.166 F 
ATOM     28  F   UNL A   1     -26.834   0.639  25.324  0.00  0.00    -0.166 F 
ENDBRANCH  23  25
ENDBRANCH  16  19
ENDBRANCH   1  15
BRANCH   1  29
ATOM     29  C   UNL A   1     -25.092  -0.979  29.391  0.00  0.00    +0.035 C 
BRANCH  29  30
ATOM     30  C   UNL A   1     -25.056  -2.433  29.503  0.00  0.00    -0.021 A 
ATOM     31  C   UNL A   1     -26.091  -3.278  29.833  0.00  0.00    -0.004 A 
ATOM     32  C   UNL A   1     -25.936  -4.673  29.720  0.00  0.00    -0.000 A 
ATOM     33  C   UNL A   1     -25.226  -5.189  28.983  0.00  0.00    -0.000 A 
ATOM     34  C   UNL A   1     -23.848  -3.076  28.948  0.00  0.00    -0.004 A 
ATOM     35  C   UNL A   1     -23.979  -4.444  28.606  0.00  0.00    -0.000 A 
ENDBRANCH  29  30
ENDBRANCH   1  29
TORSDOF 10
ENDMDL
ENDMDL
