REMARK  Name = No_259-gen_results/8p0m/2024-11-26-14-13-15/
REMARK  3 active torsions:
REMARK  status: ('A' for Active; 'I' for Inactive)
REMARK    1  A    between atoms: C_2  and  C_11
REMARK    2  A    between atoms: C_6  and  C_8
REMARK    3  A    between atoms: C_11  and  C_12
REMARK                            x       y       z     vdW  Elec       q    Type
REMARK                         _______ _______ _______ _____ _____    ______ ____
ROOT
ATOM      1  C   UNL A   1     -28.016  -0.814  28.878  0.00  0.00    +0.005 A 
ATOM      2  C   UNL A   1     -27.064  -0.119  28.608  0.00  0.00    +0.010 A 
ATOM      3  C   UNL A   1     -25.765  -0.390  29.036  0.00  0.00    +0.137 A 
ATOM      4  C   UNL A   1     -25.530  -1.530  29.901  0.00  0.00    +0.029 A 
ATOM      5  C   UNL A   1     -26.658  -2.292  30.203  0.00  0.00    +0.009 A 
ATOM      6  C   UNL A   1     -27.855  -1.956  29.763  0.00  0.00    +0.080 A 
ATOM      7  F   UNL A   1     -24.695   0.352  28.782  0.00  0.00    -0.204 F 
ENDROOT
BRANCH   6   8
ATOM      8  C   UNL A   1     -29.011  -2.832  30.182  0.00  0.00    +0.388 C 
ATOM      9  O   UNL A   1     -29.222  -2.890  31.373  0.00  0.00    -0.241 OA
ATOM     10  O   UNL A   1     -29.594  -3.564  29.383  0.00  0.00    -0.241 OA
ENDBRANCH   6   8
BRANCH   2  11
ATOM     11  C   UNL A   1     -27.134   1.086  27.673  0.00  0.00    +0.054 C 
BRANCH  11  12
ATOM     12  C   UNL A   1     -26.729   0.976  26.414  0.00  0.00    -0.026 C 
ATOM     13  C   UNL A   1     -25.843   0.049  26.070  0.00  0.00    -0.030 C 
ATOM     14  C   UNL A   1     -25.123  -0.539  26.985  0.00  0.00    +0.030 C 
ENDBRANCH  11  12
ENDBRANCH   2  11
TORSDOF 3
