MODEL 2590
MODEL 1
REMARK VINA RESULT:    -5.055      0.000      0.000
REMARK INTER + INTRA:          -5.776
REMARK INTER:                  -5.646
REMARK INTRA:                  -0.130
REMARK UNBOUND:                -0.130
REMARK  Name = No_2590-gen_results/8p0m/2024-11-26-14-13-15/
REMARK  2 active torsions:
REMARK  status: ('A' for Active; 'I' for Inactive)
REMARK    1  A    between atoms: C_1  and  C_8
REMARK    2  A    between atoms: C_5  and  C_12
REMARK                            x       y       z     vdW  Elec       q    Type
REMARK                         _______ _______ _______ _____ _____    ______ ____
ROOT
ATOM      1  C   UNL A   1     -22.420  -0.347  29.776  0.00  0.00    +0.051 C 
ATOM      2  C   UNL A   1     -23.345  -1.125  29.761  0.00  0.00    -0.040 C 
ATOM      3  C   UNL A   1     -23.368  -2.281  28.981  0.00  0.00    +0.023 C 
ATOM      4  C   UNL A   1     -24.455  -3.276  28.893  0.00  0.00    +0.010 C 
ATOM      5  C   UNL A   1     -25.500  -3.141  29.856  0.00  0.00    +0.044 C 
ATOM      6  C   UNL A   1     -25.493  -2.019  30.691  0.00  0.00    +0.010 C 
ATOM      7  C   UNL A   1     -24.510  -1.090  30.674  0.00  0.00    +0.023 C 
ENDROOT
BRANCH   1   8
ATOM      8  C   UNL A   1     -22.502   0.657  28.645  0.00  0.00    +0.264 C 
ATOM      9  N   UNL A   1     -23.382   1.201  28.347  0.00  0.00    -0.200 NA
ATOM     10  O   UNL A   1     -21.266   0.714  27.957  0.00  0.00    -0.268 OA
ATOM     11  C   UNL A   1     -23.431   2.188  27.168  0.00  0.00    +0.139 C 
ENDBRANCH   1   8
BRANCH   5  12
ATOM     12  C   UNL A   1     -26.580  -4.122  29.781  0.00  0.00    +0.095 C 
ATOM     13  N   UNL A   1     -27.749  -3.739  30.014  0.00  0.00    -0.151 NA
ENDBRANCH   5  12
TORSDOF 2
ENDMDL
ENDMDL
