MODEL 2592
MODEL 1
REMARK VINA RESULT:    -4.992      0.000      0.000
REMARK INTER + INTRA:          -5.782
REMARK INTER:                  -5.576
REMARK INTRA:                  -0.206
REMARK UNBOUND:                -0.206
REMARK  Name = No_2592-gen_results/8p0m/2024-11-26-14-13-15/
REMARK  2 active torsions:
REMARK  status: ('A' for Active; 'I' for Inactive)
REMARK    1  A    between atoms: C_2  and  O_7
REMARK    2  A    between atoms: C_4  and  C_9
REMARK                            x       y       z     vdW  Elec       q    Type
REMARK                         _______ _______ _______ _____ _____    ______ ____
ROOT
ATOM      1  C   UNL A   1     -22.516  -0.404  28.894  0.00  0.00    +0.037 A 
ATOM      2  C   UNL A   1     -23.138   0.322  28.449  0.00  0.00    +0.139 A 
ATOM      3  C   UNL A   1     -23.242  -1.382  29.703  0.00  0.00    +0.003 A 
ATOM      4  C   UNL A   1     -23.993  -2.202  29.177  0.00  0.00    -0.000 A 
ATOM      5  C   UNL A   1     -24.396  -0.176  27.642  0.00  0.00    +0.037 A 
ATOM      6  C   UNL A   1     -24.950  -1.376  28.197  0.00  0.00    +0.003 A 
ENDROOT
BRANCH   4   7
ATOM      7  C   UNL A   1     -24.694  -3.406  29.725  0.00  0.00    -0.005 C 
ATOM      8  C   UNL A   1     -25.021  -4.342  28.928  0.00  0.00    -0.026 C 
ATOM      9  C   UNL A   1     -24.747  -5.549  28.915  0.00  0.00    +0.031 C 
ENDBRANCH   4   7
BRANCH   2  10
ATOM     10  O   UNL A   1     -22.701   1.462  27.758  0.00  0.00    -0.471 OA
ATOM     11  C   UNL A   1     -21.619   1.810  27.298  0.00  0.00    +0.253 C 
ENDBRANCH   2  10
TORSDOF 2
ENDMDL
ENDMDL
