REMARK  Name = No_2593-gen_results/8p0m/2024-11-26-14-13-15/
REMARK  1 active torsions:
REMARK  status: ('A' for Active; 'I' for Inactive)
REMARK    1  A    between atoms: C_6  and  C_11
REMARK                            x       y       z     vdW  Elec       q    Type
REMARK                         _______ _______ _______ _____ _____    ______ ____
ROOT
ATOM      1  C   UNL A   1     -28.016  -0.814  28.878  0.00  0.00    -0.000 A 
ATOM      2  C   UNL A   1     -27.064  -0.119  28.608  0.00  0.00    -0.000 A 
ATOM      3  C   UNL A   1     -27.001   0.691  27.491  0.00  0.00    -0.000 A 
ATOM      4  C   UNL A   1     -25.777   1.021  26.913  0.00  0.00    -0.000 A 
ATOM      5  C   UNL A   1     -24.509   0.736  27.569  0.00  0.00    -0.000 A 
ATOM      6  C   UNL A   1     -24.593  -0.036  28.739  0.00  0.00    -0.000 A 
ATOM      7  C   UNL A   1     -25.811  -0.477  29.158  0.00  0.00    -0.000 A 
ATOM      8  C   UNL A   1     -28.107  -1.483  30.205  0.00  0.00    +0.000 A 
ATOM      9  C   UNL A   1     -26.908  -1.856  30.851  0.00  0.00    -0.000 A 
ATOM     10  C   UNL A   1     -25.722  -1.353  30.345  0.00  0.00    -0.000 A 
ENDROOT
BRANCH   6  11
ATOM     11  C   UNL A   1     -23.243  -0.306  29.363  0.00  0.00    -0.005 C 
ATOM     12  C   UNL A   1     -22.060   0.176  28.876  0.00  0.00    -0.026 C 
ATOM     13  C   UNL A   1     -22.122   1.070  27.753  0.00  0.00    +0.031 C 
ENDBRANCH   6  11
TORSDOF 1
