MODEL 2594
MODEL 1
REMARK VINA RESULT:    -5.239      0.000      0.000
REMARK INTER + INTRA:          -5.598
REMARK INTER:                  -5.545
REMARK INTRA:                  -0.053
REMARK UNBOUND:                -0.053
REMARK  Name = No_2594-gen_results/8p0m/2024-11-26-14-13-15/
REMARK  1 active torsions:
REMARK  status: ('A' for Active; 'I' for Inactive)
REMARK    1  A    between atoms: C_2  and  C_8
REMARK                            x       y       z     vdW  Elec       q    Type
REMARK                         _______ _______ _______ _____ _____    ______ ____
ROOT
ATOM      1  C   UNL A   1     -27.875 -11.962  31.368  0.00  0.00    +0.037 A 
ATOM      2  C   UNL A   1     -28.061 -11.501  32.297  0.00  0.00    +0.082 A 
ATOM      3  C   UNL A   1     -28.773 -11.599  30.261  0.00  0.00    +0.151 A 
ATOM      4  C   UNL A   1     -29.746 -10.570  30.424  0.00  0.00    +0.085 A 
ATOM      5  C   UNL A   1     -29.833 -10.017  31.677  0.00  0.00    +0.014 A 
ATOM      6  C   UNL A   1     -28.999 -10.406  32.665  0.00  0.00    +0.008 A 
ATOM      7 CL   UNL A   1     -30.765 -10.135  29.178  0.00  0.00    -0.080 Cl
ATOM      8  F   UNL A   1     -28.740 -12.136  28.992  0.00  0.00    -0.203 F 
ENDROOT
BRANCH   2   9
ATOM      9  C   UNL A   1     -27.118 -11.850  33.549  0.00  0.00    +0.388 C 
ATOM     10  O   UNL A   1     -27.202 -11.124  34.663  0.00  0.00    -0.241 OA
ATOM     11  O   UNL A   1     -26.739 -13.000  33.614  0.00  0.00    -0.241 OA
ENDBRANCH   2   9
TORSDOF 1
ENDMDL
ENDMDL
