REMARK  Name = No_2594-gen_results/8p0m/2024-11-26-14-13-15/
REMARK  1 active torsions:
REMARK  status: ('A' for Active; 'I' for Inactive)
REMARK    1  A    between atoms: C_2  and  C_8
REMARK                            x       y       z     vdW  Elec       q    Type
REMARK                         _______ _______ _______ _____ _____    ______ ____
ROOT
ATOM      1  C   UNL A   1     -28.016  -0.814  28.878  0.00  0.00    +0.037 A 
ATOM      2  C   UNL A   1     -28.469  -0.785  29.829  0.00  0.00    +0.082 A 
ATOM      3  C   UNL A   1     -26.546  -0.876  28.850  0.00  0.00    +0.151 A 
ATOM      4  C   UNL A   1     -25.804  -1.032  30.057  0.00  0.00    +0.085 A 
ATOM      5  C   UNL A   1     -26.537  -1.039  31.217  0.00  0.00    +0.014 A 
ATOM      6  C   UNL A   1     -27.884  -0.953  31.186  0.00  0.00    +0.008 A 
ATOM      7 CL   UNL A   1     -24.139  -1.118  30.046  0.00  0.00    -0.080 Cl
ATOM      8  F   UNL A   1     -25.764  -0.855  27.716  0.00  0.00    -0.203 F 
ENDROOT
BRANCH   2   9
ATOM      9  C   UNL A   1     -30.070  -0.718  29.933  0.00  0.00    +0.388 C 
ATOM     10  O   UNL A   1     -30.641   0.064  30.849  0.00  0.00    -0.241 OA
ATOM     11  O   UNL A   1     -30.672  -0.981  28.914  0.00  0.00    -0.241 OA
ENDBRANCH   2   9
TORSDOF 1
