MODEL 2595
MODEL 1
REMARK VINA RESULT:    -4.198      0.000      0.000
REMARK INTER + INTRA:          -4.198
REMARK INTER:                  -4.198
REMARK INTRA:                   0.000
REMARK UNBOUND:                 0.000
REMARK  Name = No_2595-gen_results/8p0m/2024-11-26-14-13-15/
REMARK  0 active torsions:
REMARK  status: ('A' for Active; 'I' for Inactive)
REMARK                            x       y       z     vdW  Elec       q    Type
REMARK                         _______ _______ _______ _____ _____    ______ ____
ROOT
ATOM      1  C   UNL A   1     -25.238  -5.270  29.220  0.00  0.00    +0.000 A 
ATOM      2  C   UNL A   1     -26.201  -4.657  29.618  0.00  0.00    +0.000 A 
ATOM      3  C   UNL A   1     -26.210  -3.290  29.813  0.00  0.00    +0.000 A 
ATOM      4  C   UNL A   1     -25.031  -2.562  29.490  0.00  0.00    +0.000 A 
ATOM      5  C   UNL A   1     -24.043  -3.266  28.890  0.00  0.00    +0.000 A 
ATOM      6  C   UNL A   1     -24.137  -4.569  28.705  0.00  0.00    +0.000 A 
ENDROOT
TORSDOF 0
ENDMDL
ENDMDL
