MODEL 2596
MODEL 1
REMARK VINA RESULT:    -6.788      0.000      0.000
REMARK INTER + INTRA:          -7.894
REMARK INTER:                  -7.582
REMARK INTRA:                  -0.312
REMARK UNBOUND:                -0.312
REMARK  Name = No_2596-gen_results/8p0m/2024-11-26-14-13-15/
REMARK  2 active torsions:
REMARK  status: ('A' for Active; 'I' for Inactive)
REMARK    1  A    between atoms: C_3  and  C_10
REMARK    2  A    between atoms: C_5  and  C_7
REMARK                            x       y       z     vdW  Elec       q    Type
REMARK                         _______ _______ _______ _____ _____    ______ ____
ROOT
ATOM      1  C   UNL A   1     -29.788  -9.677  32.245  0.00  0.00    +0.000 A 
ATOM      2  C   UNL A   1     -30.029  -9.988  31.101  0.00  0.00    +0.000 A 
ATOM      3  C   UNL A   1     -29.379 -10.983  30.392  0.00  0.00    +0.000 A 
ATOM      4  C   UNL A   1     -28.368 -11.716  31.080  0.00  0.00    +0.007 A 
ATOM      5  C   UNL A   1     -28.229 -11.460  32.391  0.00  0.00    +0.080 A 
ATOM      6  C   UNL A   1     -28.918 -10.531  32.988  0.00  0.00    +0.007 A 
ENDROOT
BRANCH   3   7
ATOM      7  C   UNL A   1     -29.609 -11.175  28.892  0.00  0.00    +0.003 A 
ATOM      8  C   UNL A   1     -30.503 -10.405  28.267  0.00  0.00    +0.021 A 
ATOM      9  C   UNL A   1     -30.791 -10.696  26.842  0.00  0.00    +0.099 A 
ATOM     10  N   UNL A   1     -29.924 -11.500  26.231  0.00  0.00    -0.242 NA
ATOM     11  C   UNL A   1     -28.967 -12.023  27.924  0.00  0.00    +0.021 A 
ATOM     12  C   UNL A   1     -29.109 -12.290  26.795  0.00  0.00    +0.099 A 
ENDBRANCH   3   7
BRANCH   5  13
ATOM     13  C   UNL A   1     -27.189 -12.266  33.078  0.00  0.00    +0.388 C 
ATOM     14  O   UNL A   1     -26.433 -12.797  32.480  0.00  0.00    -0.241 OA
ATOM     15  O   UNL A   1     -27.233 -12.434  34.391  0.00  0.00    -0.241 OA
ENDBRANCH   5  13
TORSDOF 2
ENDMDL
ENDMDL
