REMARK  Name = No_2596-gen_results/8p0m/2024-11-26-14-13-15/
REMARK  2 active torsions:
REMARK  status: ('A' for Active; 'I' for Inactive)
REMARK    1  A    between atoms: C_3  and  C_10
REMARK    2  A    between atoms: C_5  and  C_7
REMARK                            x       y       z     vdW  Elec       q    Type
REMARK                         _______ _______ _______ _____ _____    ______ ____
ROOT
ATOM      1  C   UNL A   1     -28.016  -0.814  28.878  0.00  0.00    +0.000 A 
ATOM      2  C   UNL A   1     -27.064  -0.119  28.608  0.00  0.00    +0.000 A 
ATOM      3  C   UNL A   1     -26.972   0.714  27.506  0.00  0.00    +0.000 A 
ATOM      4  C   UNL A   1     -28.105   0.774  26.642  0.00  0.00    +0.007 A 
ATOM      5  C   UNL A   1     -29.204   0.118  27.048  0.00  0.00    +0.080 A 
ATOM      6  C   UNL A   1     -29.213  -0.609  28.128  0.00  0.00    +0.007 A 
ENDROOT
BRANCH   3   7
ATOM      7  C   UNL A   1     -25.659   1.403  27.133  0.00  0.00    +0.003 A 
ATOM      8  C   UNL A   1     -24.532   1.032  27.747  0.00  0.00    +0.021 A 
ATOM      9  C   UNL A   1     -23.299   1.800  27.452  0.00  0.00    +0.099 A 
ATOM     10  N   UNL A   1     -23.355   2.595  26.386  0.00  0.00    -0.242 NA
ATOM     11  C   UNL A   1     -25.342   2.389  26.135  0.00  0.00    +0.021 A 
ATOM     12  C   UNL A   1     -24.408   3.017  25.820  0.00  0.00    +0.099 A 
ENDBRANCH   3   7
BRANCH   5  13
ATOM     13  C   UNL A   1     -30.371   0.233  26.138  0.00  0.00    +0.388 C 
ATOM     14  O   UNL A   1     -31.252  -0.404  26.304  0.00  0.00    -0.241 OA
ATOM     15  O   UNL A   1     -30.312   1.018  25.072  0.00  0.00    -0.241 OA
ENDBRANCH   5  13
TORSDOF 2
