MODEL 2597
MODEL 1
REMARK VINA RESULT:    -6.149      0.000      0.000
REMARK INTER + INTRA:          -6.149
REMARK INTER:                  -6.149
REMARK INTRA:                   0.000
REMARK UNBOUND:                 0.000
REMARK  Name = No_2597-gen_results/8p0m/2024-11-26-14-13-15/
REMARK  0 active torsions:
REMARK  status: ('A' for Active; 'I' for Inactive)
REMARK                            x       y       z     vdW  Elec       q    Type
REMARK                         _______ _______ _______ _____ _____    ______ ____
ROOT
ATOM      1  C   UNL A   1     -23.072  -1.626  29.232  0.00  0.00    -0.000 A 
ATOM      2  C   UNL A   1     -23.366  -0.739  29.718  0.00  0.00    -0.000 A 
ATOM      3  C   UNL A   1     -24.029  -2.657  29.108  0.00  0.00    -0.003 A 
ATOM      4  C   UNL A   1     -25.308  -2.531  29.612  0.00  0.00    -0.003 A 
ATOM      5  C   UNL A   1     -25.613  -1.329  30.230  0.00  0.00    -0.003 A 
ATOM      6  C   UNL A   1     -24.658  -0.337  30.295  0.00  0.00    -0.000 A 
ATOM      7  C   UNL A   1     -23.915  -4.051  28.531  0.00  0.00    -0.000 C 
ATOM      8  C   UNL A   1     -24.384  -4.995  28.877  0.00  0.00    -0.000 C 
ATOM      9  C   UNL A   1     -25.335  -5.217  29.115  0.00  0.00    -0.003 C 
ATOM     10  C   UNL A   1     -26.457  -4.549  29.811  0.00  0.00    -0.006 C 
ATOM     11  C   UNL A   1     -26.392  -3.461  29.935  0.00  0.00    +0.124 C 
ATOM     12 CL   UNL A   1     -27.833  -2.619  30.532  0.00  0.00    -0.105 Cl
ENDROOT
TORSDOF 0
ENDMDL
ENDMDL
