REMARK  Name = No_2597-gen_results/8p0m/2024-11-26-14-13-15/
REMARK  0 active torsions:
REMARK  status: ('A' for Active; 'I' for Inactive)
REMARK                            x       y       z     vdW  Elec       q    Type
REMARK                         _______ _______ _______ _____ _____    ______ ____
ROOT
ATOM      1  C   UNL A   1     -28.016  -0.814  28.878  0.00  0.00    -0.000 A 
ATOM      2  C   UNL A   1     -28.469  -0.785  29.829  0.00  0.00    -0.000 A 
ATOM      3  C   UNL A   1     -27.136   0.236  28.535  0.00  0.00    -0.003 A 
ATOM      4  C   UNL A   1     -26.875   1.282  29.398  0.00  0.00    -0.003 A 
ATOM      5  C   UNL A   1     -27.507   1.238  30.630  0.00  0.00    -0.003 A 
ATOM      6  C   UNL A   1     -28.329   0.174  30.935  0.00  0.00    -0.000 A 
ATOM      7  C   UNL A   1     -26.385   0.521  27.253  0.00  0.00    -0.000 C 
ATOM      8  C   UNL A   1     -26.169   1.495  26.768  0.00  0.00    -0.000 C 
ATOM      9  C   UNL A   1     -25.786   2.350  27.132  0.00  0.00    -0.003 C 
ATOM     10  C   UNL A   1     -25.901   3.138  28.379  0.00  0.00    -0.006 C 
ATOM     11  C   UNL A   1     -26.310   2.625  29.259  0.00  0.00    +0.124 C 
ATOM     12 CL   UNL A   1     -26.216   3.470  30.814  0.00  0.00    -0.105 Cl
ENDROOT
TORSDOF 0
