MODEL 2598
MODEL 1
REMARK VINA RESULT:    -6.049      0.000      0.000
REMARK INTER + INTRA:          -7.966
REMARK INTER:                  -7.463
REMARK INTRA:                  -0.503
REMARK UNBOUND:                -0.503
REMARK  Name = No_2598-gen_results/8p0m/2024-11-26-14-13-15/
REMARK  4 active torsions:
REMARK  status: ('A' for Active; 'I' for Inactive)
REMARK    1  A    between atoms: C_3  and  C_7
REMARK    2  A    between atoms: C_6  and  O_13
REMARK    3  A    between atoms: O_13  and  C_14
REMARK    4  A    between atoms: C_14  and  C_15
REMARK                            x       y       z     vdW  Elec       q    Type
REMARK                         _______ _______ _______ _____ _____    ______ ____
ROOT
ATOM      1  C   UNL A   1     -29.302 -10.004  32.709  0.00  0.00    +0.037 A 
ATOM      2  C   UNL A   1     -29.643 -10.100  31.553  0.00  0.00    +0.003 A 
ATOM      3  C   UNL A   1     -29.158 -11.076  30.684  0.00  0.00    +0.000 A 
ATOM      4  C   UNL A   1     -28.145 -12.001  31.155  0.00  0.00    +0.003 A 
ATOM      5  C   UNL A   1     -27.767 -11.842  32.488  0.00  0.00    +0.037 A 
ATOM      6  C   UNL A   1     -28.271 -10.881  33.238  0.00  0.00    +0.139 A 
ENDROOT
BRANCH   3   7
ATOM      7  C   UNL A   1     -29.531 -11.266  29.246  0.00  0.00    +0.000 A 
ATOM      8  C   UNL A   1     -28.864 -12.070  28.467  0.00  0.00    +0.000 A 
ATOM      9  C   UNL A   1     -29.171 -12.178  27.077  0.00  0.00    +0.000 A 
ATOM     10  C   UNL A   1     -30.056 -11.333  26.452  0.00  0.00    +0.000 A 
ATOM     11  C   UNL A   1     -30.514 -10.373  28.615  0.00  0.00    +0.000 A 
ATOM     12  C   UNL A   1     -30.764 -10.459  27.226  0.00  0.00    +0.000 A 
ENDBRANCH   3   7
BRANCH   6  13
ATOM     13  O   UNL A   1     -27.829 -10.758  34.529  0.00  0.00    -0.468 OA
BRANCH  13  14
ATOM     14  C   UNL A   1     -26.941  -9.867  34.892  0.00  0.00    +0.261 C 
BRANCH  14  15
ATOM     15  C   UNL A   1     -27.561  -8.705  35.328  0.00  0.00    +0.162 C 
ATOM     16  C   UNL A   1     -26.813  -7.898  36.023  0.00  0.00    +0.031 C 
ATOM     17  F   UNL A   1     -28.659  -9.139  36.108  0.00  0.00    -0.205 F 
ENDBRANCH  14  15
ENDBRANCH  13  14
ENDBRANCH   6  13
TORSDOF 4
ENDMDL
ENDMDL
