REMARK  Name = No_2599-gen_results/8p0m/2024-11-26-14-13-15/
REMARK  10 active torsions:
REMARK  status: ('A' for Active; 'I' for Inactive)
REMARK    1  A    between atoms: C_2  and  C_23
REMARK    2  A    between atoms: C_3  and  C_7
REMARK    3  A    between atoms: C_6  and  C_26
REMARK    4  A    between atoms: C_7  and  C_8
REMARK    5  A    between atoms: C_7  and  C_9
REMARK    6  A    between atoms: C_8  and  C_10
REMARK    7  A    between atoms: C_9  and  C_17
REMARK    8  A    between atoms: C_27  and  C_28
REMARK    9  A    between atoms: C_29  and  C_31
REMARK   10  A    between atoms: C_31  and  C_33
REMARK                            x       y       z     vdW  Elec       q    Type
REMARK                         _______ _______ _______ _____ _____    ______ ____
ROOT
ATOM      1  C   UNL A   1     -28.016  -0.814  28.878  0.00  0.00    +0.004 A 
ATOM      2  C   UNL A   1     -28.469  -0.785  29.829  0.00  0.00    +0.080 A 
ATOM      3  C   UNL A   1     -27.087   0.290  28.638  0.00  0.00    +0.006 A 
ATOM      4  C   UNL A   1     -26.832   1.249  29.587  0.00  0.00    +0.136 A 
ATOM      5  C   UNL A   1     -28.391   0.080  31.006  0.00  0.00    +0.009 A 
ATOM      6  C   UNL A   1     -27.494   1.152  30.784  0.00  0.00    +0.027 A 
ATOM      7  F   UNL A   1     -25.503   1.473  29.610  0.00  0.00    -0.204 F 
ENDROOT
BRANCH   2   8
ATOM      8  C   UNL A   1     -29.569  -1.925  30.231  0.00  0.00    +0.388 C 
ATOM      9  O   UNL A   1     -29.390  -2.943  30.064  0.00  0.00    -0.241 OA
ATOM     10  O   UNL A   1     -30.604  -1.561  30.983  0.00  0.00    -0.241 OA
ENDBRANCH   2   8
BRANCH   6  11
ATOM     11  C   UNL A   1     -27.334   2.194  31.858  0.00  0.00    +0.002 C 
ATOM     12  C   UNL A   1     -26.686   3.266  31.753  0.00  0.00    +0.001 C 
BRANCH  12  13
ATOM     13  C   UNL A   1     -25.984   3.642  30.572  0.00  0.00    +0.007 C 
ATOM     14  C   UNL A   1     -25.863   2.911  29.433  0.00  0.00    +0.035 C 
ATOM     15 CL   UNL A   1     -26.736   3.632  29.287  0.00  0.00    -0.087 Cl
BRANCH  14  16
ATOM     16  C   UNL A   1     -25.489   3.447  28.236  0.00  0.00    +0.033 C 
ATOM     17  C   UNL A   1     -23.999   2.969  27.938  0.00  0.00    +0.006 C 
BRANCH  16  18
ATOM     18  C   UNL A   1     -25.193   3.880  27.218  0.00  0.00    +0.005 C 
ATOM     19  C   UNL A   1     -25.058   5.336  27.100  0.00  0.00    +0.000 C 
ENDBRANCH  16  18
ENDBRANCH  14  16
ENDBRANCH  12  13
ENDBRANCH   6  11
BRANCH   3  20
ATOM     20  C   UNL A   1     -26.317   0.399  27.365  0.00  0.00    +0.033 C 
BRANCH  20  21
ATOM     21  C   UNL A   1     -26.881   0.971  26.372  0.00  0.00    +0.027 C 
ATOM     22  C   UNL A   1     -26.198   0.503  25.111  0.00  0.00    +0.005 C 
BRANCH  21  23
ATOM     23  C   UNL A   1     -28.170   1.432  26.285  0.00  0.00    -0.022 A 
ATOM     24  C   UNL A   1     -28.848   1.756  27.186  0.00  0.00    -0.004 A 
ATOM     25  C   UNL A   1     -30.204   2.411  26.934  0.00  0.00    -0.000 A 
ATOM     26  C   UNL A   1     -30.608   2.487  25.641  0.00  0.00    -0.000 A 
ATOM     27  C   UNL A   1     -29.798   2.184  24.569  0.00  0.00    -0.000 A 
ATOM     28  C   UNL A   1     -28.567   1.735  24.827  0.00  0.00    -0.004 A 
ENDBRANCH  21  23
ENDBRANCH  20  21
BRANCH  20  29
ATOM     29  C   UNL A   1     -25.009  -0.057  27.383  0.00  0.00    +0.031 C 
BRANCH  29  30
ATOM     30  C   UNL A   1     -24.434  -0.435  28.728  0.00  0.00    -0.022 A 
ATOM     31  C   UNL A   1     -23.111  -0.303  28.943  0.00  0.00    -0.004 A 
ATOM     32  C   UNL A   1     -22.559  -1.028  30.012  0.00  0.00    -0.000 A 
ATOM     33  C   UNL A   1     -23.389  -1.561  31.013  0.00  0.00    -0.000 A 
ATOM     34  C   UNL A   1     -24.772  -1.593  30.781  0.00  0.00    -0.000 A 
ATOM     35  C   UNL A   1     -25.242  -1.082  29.634  0.00  0.00    -0.004 A 
ENDBRANCH  29  30
ENDBRANCH  20  29
ENDBRANCH   3  20
TORSDOF 10
