MODEL 259
MODEL 1
REMARK VINA RESULT:    -6.272      0.000      0.000
REMARK INTER + INTRA:          -7.741
REMARK INTER:                  -7.373
REMARK INTRA:                  -0.368
REMARK UNBOUND:                -0.368
REMARK  Name = No_259-gen_results/8p0m/2024-11-26-14-13-15/
REMARK  3 active torsions:
REMARK  status: ('A' for Active; 'I' for Inactive)
REMARK    1  A    between atoms: C_2  and  C_11
REMARK    2  A    between atoms: C_6  and  C_8
REMARK    3  A    between atoms: C_11  and  C_12
REMARK                            x       y       z     vdW  Elec       q    Type
REMARK                         _______ _______ _______ _____ _____    ______ ____
ROOT
ATOM      1  C   UNL A   1     -28.417 -11.696  30.987  0.00  0.00    +0.005 A 
ATOM      2  C   UNL A   1     -29.251 -11.044  30.403  0.00  0.00    +0.010 A 
ATOM      3  C   UNL A   1     -29.973 -10.008  30.994  0.00  0.00    +0.137 A 
ATOM      4  C   UNL A   1     -29.770  -9.719  32.400  0.00  0.00    +0.029 A 
ATOM      5  C   UNL A   1     -28.815 -10.507  33.040  0.00  0.00    +0.009 A 
ATOM      6  C   UNL A   1     -28.184 -11.476  32.405  0.00  0.00    +0.080 A 
ATOM      7  F   UNL A   1     -30.909  -9.280  30.400  0.00  0.00    -0.204 F 
ENDROOT
BRANCH   6   8
ATOM      8  C   UNL A   1     -27.196 -12.291  33.205  0.00  0.00    +0.388 C 
ATOM      9  O   UNL A   1     -26.438 -12.980  32.560  0.00  0.00    -0.241 OA
ATOM     10  O   UNL A   1     -27.265 -12.374  34.431  0.00  0.00    -0.241 OA
ENDBRANCH   6   8
BRANCH   2  11
ATOM     11  C   UNL A   1     -29.548 -11.191  28.913  0.00  0.00    +0.054 C 
BRANCH  11  12
ATOM     12  C   UNL A   1     -29.133 -12.266  28.254  0.00  0.00    -0.026 C 
ATOM     13  C   UNL A   1     -29.102 -12.272  26.926  0.00  0.00    -0.030 C 
ATOM     14  C   UNL A   1     -29.768 -11.376  26.253  0.00  0.00    +0.030 C 
ENDBRANCH  11  12
ENDBRANCH   2  11
TORSDOF 3
ENDMDL
ENDMDL
