MODEL 25
MODEL 1
REMARK VINA RESULT:    -7.288      0.000      0.000
REMARK INTER + INTRA:         -10.888
REMARK INTER:                  -9.418
REMARK INTRA:                  -1.470
REMARK UNBOUND:                -1.470
REMARK  Name = No_25-gen_results/8p0m/2024-11-26-14-13-15/
REMARK  5 active torsions:
REMARK  status: ('A' for Active; 'I' for Inactive)
REMARK    1  A    between atoms: C_2  and  C_5
REMARK    2  A    between atoms: C_3  and  C_10
REMARK    3  A    between atoms: C_6  and  C_24
REMARK    4  A    between atoms: C_11  and  C_12
REMARK    5  A    between atoms: C_16  and  C_18
REMARK                            x       y       z     vdW  Elec       q    Type
REMARK                         _______ _______ _______ _____ _____    ______ ____
ROOT
ATOM      1  C   UNL A   1     -10.072   4.282  36.224  0.00  0.00    +0.000 C 
ATOM      2  C   UNL A   1      -9.122   3.661  36.425  0.00  0.00    +0.000 C 
ENDROOT
BRANCH   1   5
ATOM      3  C   UNL A   1     -11.682   3.045  34.681  0.00  0.00    +0.007 A 
ATOM      4  C   UNL A   1     -12.605   2.556  34.543  0.00  0.00    +0.080 A 
ATOM      5  C   UNL A   1     -11.467   3.639  35.970  0.00  0.00    +0.000 A 
ATOM      6  C   UNL A   1     -12.422   3.728  36.900  0.00  0.00    +0.002 A 
ATOM      7  C   UNL A   1     -13.596   3.107  36.622  0.00  0.00    +0.021 A 
ATOM      8  C   UNL A   1     -13.733   2.502  35.426  0.00  0.00    +0.008 A 
BRANCH   4   9
ATOM      9  C   UNL A   1     -12.958   1.822  33.184  0.00  0.00    +0.388 C 
ATOM     10  O   UNL A   1     -12.217   1.112  32.786  0.00  0.00    -0.241 OA
ATOM     11  O   UNL A   1     -14.036   2.312  32.564  0.00  0.00    -0.241 OA
ENDBRANCH   4   9
BRANCH   7  12
ATOM     12  C   UNL A   1     -14.815   3.091  37.460  0.00  0.00    +0.122 C 
ATOM     13  N   UNL A   1     -15.820   3.367  37.318  0.00  0.00    -0.146 NA
ENDBRANCH   7  12
ENDBRANCH   1   5
BRANCH   2  14
ATOM     14  C   UNL A   1      -9.026   2.191  36.409  0.00  0.00    +0.000 A 
ATOM     15  C   UNL A   1      -8.427   1.528  35.261  0.00  0.00    +0.000 A 
ATOM     16  C   UNL A   1      -8.346   0.115  35.140  0.00  0.00    +0.000 A 
ATOM     17  C   UNL A   1      -9.152  -0.575  36.088  0.00  0.00    +0.000 A 
ATOM     18  C   UNL A   1      -9.784   0.010  37.139  0.00  0.00    +0.000 A 
ATOM     19  C   UNL A   1      -9.758   1.385  37.274  0.00  0.00    +0.000 A 
BRANCH  18  20
ATOM     20  C   UNL A   1     -10.533  -0.849  38.126  0.00  0.00    +0.000 A 
ATOM     21  C   UNL A   1     -10.530  -0.627  39.376  0.00  0.00    +0.000 A 
ATOM     22  C   UNL A   1     -11.342  -1.382  40.275  0.00  0.00    +0.000 A 
ATOM     23  C   UNL A   1     -11.336  -1.902  37.558  0.00  0.00    +0.000 A 
ATOM     24  C   UNL A   1     -12.064  -2.742  38.449  0.00  0.00    +0.000 A 
ATOM     25  C   UNL A   1     -12.079  -2.427  39.810  0.00  0.00    +0.000 A 
ENDBRANCH  18  20
ENDBRANCH   2  14
TORSDOF 5
ENDMDL
ENDMDL
