REMARK  Name = No_26-gen_results/8p0m/2024-11-26-14-13-15/
REMARK  4 active torsions:
REMARK  status: ('A' for Active; 'I' for Inactive)
REMARK    1  A    between atoms: C_4  and  C_7
REMARK    2  A    between atoms: C_7  and  C_8
REMARK    3  A    between atoms: C_9  and  C_10
REMARK    4  A    between atoms: C_11  and  C_13
REMARK                            x       y       z     vdW  Elec       q    Type
REMARK                         _______ _______ _______ _____ _____    ______ ____
ROOT
ATOM      1  C   UNL A   1     -28.016  -0.814  28.878  0.00  0.00    +0.042 A 
ATOM      2  C   UNL A   1     -28.469  -0.785  29.829  0.00  0.00    +0.003 A 
ATOM      3  C   UNL A   1     -26.546  -0.876  28.850  0.00  0.00    +0.192 A 
ATOM      4  C   UNL A   1     -25.804  -1.032  30.057  0.00  0.00    +0.021 A 
ATOM      5  C   UNL A   1     -26.537  -1.039  31.217  0.00  0.00    -0.001 A 
ATOM      6  C   UNL A   1     -27.884  -0.953  31.186  0.00  0.00    -0.000 A 
ATOM      7  O   UNL A   1     -25.805  -0.860  27.697  0.00  0.00    -0.287 OA
ENDROOT
BRANCH   4   8
ATOM      8  C   UNL A   1     -24.366  -1.113  30.048  0.00  0.00    +0.056 C 
BRANCH   8   9
ATOM      9  C   UNL A   1     -23.692   0.119  29.919  0.00  0.00    -0.021 C 
ATOM     10  C   UNL A   1     -23.178   0.582  28.788  0.00  0.00    -0.004 C 
BRANCH  10  11
ATOM     11  C   UNL A   1     -23.044   1.512  28.090  0.00  0.00    -0.000 C 
ATOM     12  C   UNL A   1     -22.230   1.654  26.889  0.00  0.00    -0.000 C 
BRANCH  12  13
ATOM     13  C   UNL A   1     -22.475   2.740  26.094  0.00  0.00    -0.000 C 
ATOM     14  C   UNL A   1     -23.764   3.453  26.189  0.00  0.00    -0.000 C 
ENDBRANCH  12  13
ENDBRANCH  10  11
ENDBRANCH   8   9
ENDBRANCH   4   8
TORSDOF 4
