REMARK  Name = No_260-gen_results/8p0m/2024-11-26-14-13-15/
REMARK  7 active torsions:
REMARK  status: ('A' for Active; 'I' for Inactive)
REMARK    1  A    between atoms: C_6  and  C_8
REMARK    2  A    between atoms: C_8  and  O_10
REMARK    3  A    between atoms: O_10  and  C_12
REMARK    4  A    between atoms: C_12  and  C_13
REMARK    5  A    between atoms: N_15  and  C_16
REMARK    6  A    between atoms: C_17  and  C_18
REMARK    7  A    between atoms: C_19  and  C_20
REMARK                            x       y       z     vdW  Elec       q    Type
REMARK                         _______ _______ _______ _____ _____    ______ ____
ROOT
ATOM      1  O   UNL A   1     -30.373   2.395  31.704  0.00  0.00    -0.435 OA
ENDROOT
BRANCH   1   2
ATOM      2  C   UNL A   1     -30.454   2.336  30.231  0.00  0.00    +0.342 C 
ATOM      3  O   UNL A   1     -31.214   2.910  29.705  0.00  0.00    -0.245 OA
BRANCH   2   9
ATOM      4  C   UNL A   1     -28.016  -0.814  28.878  0.00  0.00    +0.023 A 
ATOM      5  C   UNL A   1     -28.469  -0.785  29.829  0.00  0.00    +0.059 A 
ATOM      6  C   UNL A   1     -28.182   0.428  28.113  0.00  0.00    +0.059 A 
ATOM      7  C   UNL A   1     -28.984   1.415  28.515  0.00  0.00    +0.018 A 
ATOM      8  C   UNL A   1     -29.380   0.138  30.461  0.00  0.00    +0.018 A 
ATOM      9  C   UNL A   1     -29.541   1.274  29.724  0.00  0.00    +0.077 A 
ATOM     10 CL   UNL A   1     -27.335   0.492  26.578  0.00  0.00    -0.082 Cl
ATOM     11 CL   UNL A   1     -28.196  -2.343  30.864  0.00  0.00    -0.082 Cl
ENDBRANCH   2   9
ENDBRANCH   1   2
BRANCH   1  12
ATOM     12  C   UNL A   1     -30.592   3.567  32.253  0.00  0.00    +0.295 C 
BRANCH  12  13
ATOM     13  C   UNL A   1     -29.805   4.567  32.052  0.00  0.00    +0.290 C 
ATOM     14  O   UNL A   1     -30.198   5.559  31.819  0.00  0.00    -0.269 OA
ATOM     15  N   UNL A   1     -28.464   4.374  32.488  0.00  0.00    -0.175 NA
BRANCH  15  16
ATOM     16  C   UNL A   1     -27.398   5.343  32.171  0.00  0.00    +0.089 C 
ATOM     17  C   UNL A   1     -26.221   4.841  32.213  0.00  0.00    +0.018 C 
BRANCH  17  18
ATOM     18  C   UNL A   1     -25.081   5.572  31.935  0.00  0.00    +0.001 C 
ATOM     19  C   UNL A   1     -23.761   5.027  32.071  0.00  0.00    +0.000 C 
BRANCH  19  20
ATOM     20  C   UNL A   1     -23.650   3.608  32.129  0.00  0.00    +0.000 C 
ATOM     21  C   UNL A   1     -24.808   2.861  32.162  0.00  0.00    +0.000 C 
ENDBRANCH  19  20
ENDBRANCH  17  18
ENDBRANCH  15  16
ENDBRANCH  12  13
ENDBRANCH   1  12
TORSDOF 7
