MODEL 2600
MODEL 1
REMARK VINA RESULT:    -7.432      0.000      0.000
REMARK INTER + INTRA:          -8.880
REMARK INTER:                  -8.736
REMARK INTRA:                  -0.144
REMARK UNBOUND:                -0.144
REMARK  Name = No_2600-gen_results/8p0m/2024-11-26-14-13-15/
REMARK  3 active torsions:
REMARK  status: ('A' for Active; 'I' for Inactive)
REMARK    1  A    between atoms: C_5  and  C_8
REMARK    2  A    between atoms: N_9  and  C_11
REMARK    3  A    between atoms: C_11  and  C_12
REMARK                            x       y       z     vdW  Elec       q    Type
REMARK                         _______ _______ _______ _____ _____    ______ ____
ROOT
ATOM      1  C   UNL A   1     -23.224   0.450  29.434  0.00  0.00    +0.265 C 
ATOM      2  N   UNL A   1     -23.275  -0.747  29.810  0.00  0.00    -0.197 NA
ATOM      3  O   UNL A   1     -23.357   1.360  30.389  0.00  0.00    -0.268 OA
ENDROOT
BRANCH   1   8
ATOM      4 BR   UNL A   1     -25.835   0.277  24.986  0.00  0.00    -0.049 Br
ATOM      5  C   UNL A   1     -24.591   0.777  25.846  0.00  0.00    +0.035 A 
ATOM      6  C   UNL A   1     -23.695   1.658  25.382  0.00  0.00    +0.007 A 
ATOM      7  C   UNL A   1     -24.447   0.362  27.267  0.00  0.00    +0.011 A 
ATOM      8  C   UNL A   1     -23.373   0.871  28.061  0.00  0.00    +0.056 A 
ATOM      9  C   UNL A   1     -22.562   2.181  26.195  0.00  0.00    +0.001 A 
ATOM     10  C   UNL A   1     -22.433   1.769  27.489  0.00  0.00    +0.005 A 
ENDBRANCH   1   8
BRANCH   2  11
ATOM     11  C   UNL A   1     -23.119  -1.880  28.911  0.00  0.00    +0.142 C 
BRANCH  11  12
ATOM     12  C   UNL A   1     -24.174  -2.843  29.141  0.00  0.00    -0.001 A 
ATOM     13  C   UNL A   1     -25.367  -2.399  29.739  0.00  0.00    -0.003 A 
ATOM     14  C   UNL A   1     -26.400  -3.428  29.976  0.00  0.00    -0.000 A 
ATOM     15  C   UNL A   1     -26.151  -4.691  29.589  0.00  0.00    -0.000 A 
ATOM     16  C   UNL A   1     -24.987  -5.120  29.002  0.00  0.00    -0.000 A 
ATOM     17  C   UNL A   1     -23.980  -4.176  28.818  0.00  0.00    -0.003 A 
ENDBRANCH  11  12
ENDBRANCH   2  11
TORSDOF 3
ENDMDL
ENDMDL
