REMARK  Name = No_2600-gen_results/8p0m/2024-11-26-14-13-15/
REMARK  3 active torsions:
REMARK  status: ('A' for Active; 'I' for Inactive)
REMARK    1  A    between atoms: C_5  and  C_8
REMARK    2  A    between atoms: N_9  and  C_11
REMARK    3  A    between atoms: C_11  and  C_12
REMARK                            x       y       z     vdW  Elec       q    Type
REMARK                         _______ _______ _______ _____ _____    ______ ____
ROOT
ATOM      1  C   UNL A   1     -25.350   3.445  27.529  0.00  0.00    +0.265 C 
ATOM      2  N   UNL A   1     -25.529   4.647  27.212  0.00  0.00    -0.197 NA
ATOM      3  O   UNL A   1     -24.679   2.712  26.651  0.00  0.00    -0.268 OA
ENDROOT
BRANCH   1   8
ATOM      4 BR   UNL A   1     -28.115  -0.626  29.081  0.00  0.00    -0.049 Br
ATOM      5  C   UNL A   1     -27.492   0.814  29.355  0.00  0.00    +0.035 A 
ATOM      6  C   UNL A   1     -27.545   1.411  30.553  0.00  0.00    +0.007 A 
ATOM      7  C   UNL A   1     -26.712   1.507  28.296  0.00  0.00    +0.011 A 
ATOM      8  C   UNL A   1     -26.089   2.765  28.566  0.00  0.00    +0.056 A 
ATOM      9  C   UNL A   1     -26.914   2.729  30.840  0.00  0.00    +0.001 A 
ATOM     10  C   UNL A   1     -26.224   3.361  29.848  0.00  0.00    +0.005 A 
ENDBRANCH   1   8
BRANCH   2  11
ATOM     11  C   UNL A   1     -26.215   5.608  28.062  0.00  0.00    +0.142 C 
BRANCH  11  12
ATOM     12  C   UNL A   1     -25.933   6.954  27.613  0.00  0.00    -0.001 A 
ATOM     13  C   UNL A   1     -24.941   7.139  26.634  0.00  0.00    -0.003 A 
ATOM     14  C   UNL A   1     -24.674   8.535  26.231  0.00  0.00    -0.000 A 
ATOM     15  C   UNL A   1     -25.399   9.517  26.794  0.00  0.00    -0.000 A 
ATOM     16  C   UNL A   1     -26.370   9.333  27.746  0.00  0.00    -0.000 A 
ATOM     17  C   UNL A   1     -26.600   8.029  28.178  0.00  0.00    -0.003 A 
ENDBRANCH  11  12
ENDBRANCH   2  11
TORSDOF 3
