MODEL 2601
MODEL 1
REMARK VINA RESULT:    -7.808      0.000      0.000
REMARK INTER + INTRA:         -11.446
REMARK INTER:                 -10.090
REMARK INTRA:                  -1.356
REMARK UNBOUND:                -1.356
REMARK  Name = No_2601-gen_results/8p0m/2024-11-26-14-13-15/
REMARK  5 active torsions:
REMARK  status: ('A' for Active; 'I' for Inactive)
REMARK    1  A    between atoms: N_4  and  C_19
REMARK    2  A    between atoms: C_5  and  C_8
REMARK    3  A    between atoms: C_8  and  C_9
REMARK    4  A    between atoms: C_9  and  C_12
REMARK    5  A    between atoms: C_17  and  C_18
REMARK                            x       y       z     vdW  Elec       q    Type
REMARK                         _______ _______ _______ _____ _____    ______ ____
ROOT
ATOM      1  C   UNL A   1     -22.983   1.080  28.316  0.00  0.00    +0.007 C 
ATOM      2  C   UNL A   1     -21.803   1.500  27.431  0.00  0.00    +0.000 C 
ENDROOT
BRANCH   1   7
ATOM      3  O   UNL A   1     -26.146   3.445  25.882  0.00  0.00    -0.272 OA
ATOM      4  C   UNL A   1     -25.779   2.425  26.271  0.00  0.00    +0.260 C 
ATOM      5  C   UNL A   1     -24.530   2.277  26.840  0.00  0.00    +0.228 C 
ATOM      6  N   UNL A   1     -26.315   1.170  25.734  0.00  0.00    -0.257 N 
ATOM      7  C   UNL A   1     -24.225   1.286  27.476  0.00  0.00    +0.042 C 
ATOM      8  C   UNL A   1     -24.821  -0.027  27.088  0.00  0.00    +0.025 C 
ATOM      9  C   UNL A   1     -25.948   0.011  26.306  0.00  0.00    +0.098 C 
ATOM     10  O   UNL A   1     -24.594   3.345  27.875  0.00  0.00    -0.213 OA
BRANCH   6  11
ATOM     11  C   UNL A   1     -27.577   1.320  24.964  0.00  0.00    +0.054 A 
ATOM     12  C   UNL A   1     -27.627   0.375  24.011  0.00  0.00    +0.015 A 
ATOM     13  C   UNL A   1     -28.720  -0.011  23.559  0.00  0.00    +0.001 A 
ATOM     14  C   UNL A   1     -29.905   0.763  23.657  0.00  0.00    +0.000 A 
ATOM     15  C   UNL A   1     -29.817   1.801  24.646  0.00  0.00    +0.001 A 
ATOM     16  C   UNL A   1     -28.724   1.606  25.482  0.00  0.00    +0.015 A 
ENDBRANCH   6  11
ENDBRANCH   1   7
BRANCH   1  17
ATOM     17  C   UNL A   1     -22.824   0.608  29.203  0.00  0.00    +0.022 C 
ATOM     18  C   UNL A   1     -21.767  -0.500  29.421  0.00  0.00    +0.005 C 
BRANCH  17  19
ATOM     19  C   UNL A   1     -23.294   1.054  30.647  0.00  0.00    -0.025 C 
ATOM     20  C   UNL A   1     -24.288   0.415  31.276  0.00  0.00    +0.018 C 
ATOM     21  C   UNL A   1     -24.593   0.714  32.602  0.00  0.00    +0.102 C 
ATOM     22  N   UNL A   1     -25.784   0.310  33.050  0.00  0.00    -0.206 NA
ATOM     23  C   UNL A   1     -26.662  -0.235  32.112  0.00  0.00    +0.278 C 
ATOM     24  C   UNL A   1     -25.513  -0.165  30.731  0.00  0.00    +0.071 C 
ATOM     25  O   UNL A   1     -27.663   0.870  31.874  0.00  0.00    -0.265 OA
BRANCH  24  26
ATOM     26  C   UNL A   1     -25.457  -1.371  30.746  0.00  0.00    +0.201 C 
ATOM     27  C   UNL A   1     -26.337  -2.024  29.776  0.00  0.00    +0.186 C 
ATOM     28  O   UNL A   1     -24.231  -2.103  30.376  0.00  0.00    -0.328 OA
ATOM     29  C   UNL A   1     -24.411  -3.267  29.639  0.00  0.00    +0.214 C 
ATOM     30  C   UNL A   1     -25.718  -3.347  29.297  0.00  0.00    +0.117 C 
ATOM     31  N   UNL A   1     -23.477  -3.375  28.574  0.00  0.00    -0.100 NA
ATOM     32  O   UNL A   1     -27.558  -1.936  29.588  0.00  0.00    -0.293 OA
ENDBRANCH  24  26
ENDBRANCH  17  19
ENDBRANCH   1  17
TORSDOF 5
ENDMDL
ENDMDL
