REMARK  Name = No_2601-gen_results/8p0m/2024-11-26-14-13-15/
REMARK  5 active torsions:
REMARK  status: ('A' for Active; 'I' for Inactive)
REMARK    1  A    between atoms: N_4  and  C_19
REMARK    2  A    between atoms: C_5  and  C_8
REMARK    3  A    between atoms: C_8  and  C_9
REMARK    4  A    between atoms: C_9  and  C_12
REMARK    5  A    between atoms: C_17  and  C_18
REMARK                            x       y       z     vdW  Elec       q    Type
REMARK                         _______ _______ _______ _____ _____    ______ ____
ROOT
ATOM      1  C   UNL A   1     -24.779   1.554  27.075  0.00  0.00    +0.007 C 
ATOM      2  C   UNL A   1     -25.517   2.072  25.834  0.00  0.00    +0.000 C 
ENDROOT
BRANCH   1   7
ATOM      3  O   UNL A   1     -28.123  -1.335  28.487  0.00  0.00    -0.272 OA
ATOM      4  C   UNL A   1     -27.481  -0.404  28.709  0.00  0.00    +0.260 C 
ATOM      5  C   UNL A   1     -26.380  -0.087  27.939  0.00  0.00    +0.228 C 
ATOM      6  N   UNL A   1     -27.423   0.175  30.055  0.00  0.00    -0.257 N 
ATOM      7  C   UNL A   1     -25.848   1.005  27.994  0.00  0.00    +0.042 C 
ATOM      8  C   UNL A   1     -25.849   1.738  29.295  0.00  0.00    +0.025 C 
ATOM      9  C   UNL A   1     -26.762   1.330  30.236  0.00  0.00    +0.098 C 
ATOM     10  O   UNL A   1     -27.005  -0.098  26.587  0.00  0.00    -0.213 OA
BRANCH   6  11
ATOM     11  C   UNL A   1     -28.502  -0.283  30.968  0.00  0.00    +0.054 A 
ATOM     12  C   UNL A   1     -27.970  -0.581  32.165  0.00  0.00    +0.015 A 
ATOM     13  C   UNL A   1     -28.664  -0.534  33.196  0.00  0.00    +0.001 A 
ATOM     14  C   UNL A   1     -30.081  -0.605  33.169  0.00  0.00    +0.000 A 
ATOM     15  C   UNL A   1     -30.631  -0.332  31.870  0.00  0.00    +0.001 A 
ATOM     16  C   UNL A   1     -29.681   0.239  31.032  0.00  0.00    +0.015 A 
ENDBRANCH   6  11
ENDBRANCH   1   7
BRANCH   1  17
ATOM     17  C   UNL A   1     -23.764   1.487  27.084  0.00  0.00    +0.022 C 
ATOM     18  C   UNL A   1     -22.839   2.151  26.037  0.00  0.00    +0.005 C 
BRANCH  17  19
ATOM     19  C   UNL A   1     -22.823   1.037  28.275  0.00  0.00    -0.025 C 
ATOM     20  C   UNL A   1     -23.115  -0.041  29.013  0.00  0.00    +0.018 C 
ATOM     21  C   UNL A   1     -22.207  -0.517  29.957  0.00  0.00    +0.102 C 
ATOM     22  N   UNL A   1     -22.685  -1.355  30.880  0.00  0.00    -0.206 NA
ATOM     23  C   UNL A   1     -24.067  -1.553  30.901  0.00  0.00    +0.278 C 
ATOM     24  C   UNL A   1     -24.413  -0.544  29.454  0.00  0.00    +0.071 C 
ATOM     25  O   UNL A   1     -24.526  -0.744  32.090  0.00  0.00    -0.265 OA
BRANCH  24  26
ATOM     26  C   UNL A   1     -24.709  -1.548  28.853  0.00  0.00    +0.201 C 
ATOM     27  C   UNL A   1     -23.672  -2.581  28.862  0.00  0.00    +0.186 C 
ATOM     28  O   UNL A   1     -25.816  -2.422  29.287  0.00  0.00    -0.328 OA
ATOM     29  C   UNL A   1     -25.601  -3.789  29.165  0.00  0.00    +0.214 C 
ATOM     30  C   UNL A   1     -24.308  -3.979  28.812  0.00  0.00    +0.117 C 
ATOM     31  N   UNL A   1     -26.051  -4.505  30.306  0.00  0.00    -0.100 NA
ATOM     32  O   UNL A   1     -22.483  -2.550  28.518  0.00  0.00    -0.293 OA
ENDBRANCH  24  26
ENDBRANCH  17  19
ENDBRANCH   1  17
TORSDOF 5
