REMARK  Name = No_2602-gen_results/8p0m/2024-11-26-14-13-15/
REMARK  3 active torsions:
REMARK  status: ('A' for Active; 'I' for Inactive)
REMARK    1  A    between atoms: C_5  and  O_10
REMARK    2  A    between atoms: O_10  and  C_11
REMARK    3  A    between atoms: C_15  and  C_17
REMARK                            x       y       z     vdW  Elec       q    Type
REMARK                         _______ _______ _______ _____ _____    ______ ____
ROOT
ATOM      1  O   UNL A   1     -28.666  -0.961  32.363  0.00  0.00    -0.453 OA
ENDROOT
BRANCH   1   6
ATOM      2  C   UNL A   1     -28.016  -0.814  28.878  0.00  0.00    +0.040 A 
ATOM      3  C   UNL A   1     -28.469  -0.785  29.829  0.00  0.00    +0.071 A 
ATOM      4  C   UNL A   1     -26.546  -0.876  28.850  0.00  0.00    +0.151 A 
ATOM      5  C   UNL A   1     -25.804  -1.032  30.057  0.00  0.00    +0.088 A 
ATOM      6  C   UNL A   1     -27.944  -0.987  31.207  0.00  0.00    +0.152 A 
ATOM      7  C   UNL A   1     -26.582  -1.039  31.223  0.00  0.00    +0.052 A 
ATOM      8 BR   UNL A   1     -30.450  -0.713  29.890  0.00  0.00    -0.046 Br
ATOM      9 CL   UNL A   1     -24.126  -1.253  30.225  0.00  0.00    -0.080 Cl
ATOM     10  F   UNL A   1     -25.763  -0.888  27.753  0.00  0.00    -0.203 F 
ENDBRANCH   1   6
BRANCH   1  11
ATOM     11  C   UNL A   1     -28.380  -0.099  33.245  0.00  0.00    +0.145 A 
ATOM     12  C   UNL A   1     -28.048  -0.623  34.447  0.00  0.00    +0.037 A 
ATOM     13  C   UNL A   1     -27.533   0.227  35.529  0.00  0.00    +0.003 A 
ATOM     14  C   UNL A   1     -27.494   1.614  35.325  0.00  0.00    +0.006 A 
ATOM     15  C   UNL A   1     -27.799   2.093  34.030  0.00  0.00    +0.071 A 
ATOM     16  C   UNL A   1     -28.159   1.243  33.033  0.00  0.00    +0.043 A 
BRANCH  15  17
ATOM     17  C   UNL A   1     -27.625   3.561  33.804  0.00  0.00    +0.334 C 
ATOM     18  O   UNL A   1     -27.377   4.010  32.925  0.00  0.00    -0.254 OA
ATOM     19  F   UNL A   1     -27.320   4.128  34.972  0.00  0.00    -0.159 F 
ENDBRANCH  15  17
ENDBRANCH   1  11
TORSDOF 3
