REMARK  Name = No_2603-gen_results/8p0m/2024-11-26-14-13-15/
REMARK  11 active torsions:
REMARK  status: ('A' for Active; 'I' for Inactive)
REMARK    1  A    between atoms: C_1  and  C_2
REMARK    2  A    between atoms: C_4  and  C_16
REMARK    3  A    between atoms: N_8  and  C_11
REMARK    4  A    between atoms: C_11  and  C_13
REMARK    5  A    between atoms: C_16  and  O_18
REMARK    6  A    between atoms: O_18  and  C_19
REMARK    7  A    between atoms: C_19  and  C_20
REMARK    8  A    between atoms: N_21  and  C_26
REMARK    9  A    between atoms: C_26  and  C_28
REMARK   10  A    between atoms: C_28  and  C_29
REMARK   11  A    between atoms: C_29  and  C_30
REMARK                            x       y       z     vdW  Elec       q    Type
REMARK                         _______ _______ _______ _____ _____    ______ ____
ROOT
ATOM      1  O   UNL A   1     -25.861   3.696  30.342  0.00  0.00    -0.444 OA
ENDROOT
BRANCH   1   2
ATOM      2  C   UNL A   1     -25.623   3.456  29.102  0.00  0.00    +0.342 C 
ATOM      3  O   UNL A   1     -25.719   4.322  28.196  0.00  0.00    -0.245 OA
BRANCH   2   6
ATOM      4  C   UNL A   1     -27.064  -0.119  28.608  0.00  0.00    +0.054 A 
ATOM      5  C   UNL A   1     -26.929   1.171  29.008  0.00  0.00    +0.012 A 
ATOM      6  C   UNL A   1     -25.770   2.034  28.688  0.00  0.00    +0.086 A 
ATOM      7  C   UNL A   1     -24.714   1.443  27.919  0.00  0.00    +0.064 A 
ATOM      8  C   UNL A   1     -24.859   0.078  27.584  0.00  0.00    +0.012 A 
ATOM      9  C   UNL A   1     -25.965  -0.661  27.916  0.00  0.00    +0.005 A 
ATOM     10 CL   UNL A   1     -23.343   2.298  27.505  0.00  0.00    -0.082 Cl
BRANCH   4  11
ATOM     11  C   UNL A   1     -28.016  -0.814  28.878  0.00  0.00    +0.249 C 
ATOM     12  N   UNL A   1     -27.982  -1.611  30.103  0.00  0.00    -0.264 N 
ATOM     13  O   UNL A   1     -29.213  -0.431  28.666  0.00  0.00    -0.270 OA
ATOM     14  C   UNL A   1     -26.658  -2.001  30.702  0.00  0.00    +0.116 C 
BRANCH  12  15
ATOM     15  C   UNL A   1     -29.017  -2.466  30.632  0.00  0.00    +0.209 C 
BRANCH  15  16
ATOM     16  C   UNL A   1     -29.372  -2.097  31.894  0.00  0.00    +0.385 C 
ATOM     17  O   UNL A   1     -29.578  -3.178  32.599  0.00  0.00    -0.244 OA
ATOM     18  O   UNL A   1     -29.364  -0.969  32.350  0.00  0.00    -0.244 OA
ENDBRANCH  15  16
ENDBRANCH  12  15
ENDBRANCH   4  11
ENDBRANCH   2   6
ENDBRANCH   1   2
BRANCH   1  19
ATOM     19  C   UNL A   1     -26.752   4.480  30.772  0.00  0.00    +0.225 C 
BRANCH  19  20
ATOM     20  C   UNL A   1     -27.738   4.083  31.400  0.00  0.00    +0.102 C 
ATOM     21  N   UNL A   1     -27.582   3.295  32.426  0.00  0.00    -0.272 NA
ATOM     22  C   UNL A   1     -28.231   3.162  33.489  0.00  0.00    +0.072 C 
ATOM     23  C   UNL A   1     -29.274   3.760  33.753  0.00  0.00    +0.017 C 
ATOM     24  C   UNL A   1     -29.772   4.578  32.676  0.00  0.00    +0.003 C 
ATOM     25  C   UNL A   1     -28.961   4.890  31.560  0.00  0.00    +0.020 C 
BRANCH  21  26
ATOM     26  C   UNL A   1     -26.337   2.362  32.327  0.00  0.00    +0.058 C 
ATOM     27  C   UNL A   1     -25.207   2.626  33.175  0.00  0.00    +0.017 C 
BRANCH  26  28
ATOM     28  C   UNL A   1     -26.892   0.879  32.859  0.00  0.00    +0.021 C 
BRANCH  28  29
ATOM     29  C   UNL A   1     -25.675   0.089  33.188  0.00  0.00    +0.028 C 
BRANCH  29  30
ATOM     30  C   UNL A   1     -24.724   0.140  32.203  0.00  0.00    -0.022 A 
ATOM     31  C   UNL A   1     -23.839  -1.029  32.090  0.00  0.00    -0.004 A 
ATOM     32  C   UNL A   1     -22.915  -1.060  31.013  0.00  0.00    -0.000 A 
ATOM     33  C   UNL A   1     -22.636   0.130  30.261  0.00  0.00    -0.000 A 
ATOM     34  C   UNL A   1     -23.309   1.317  30.631  0.00  0.00    -0.000 A 
ATOM     35  C   UNL A   1     -24.357   1.271  31.523  0.00  0.00    -0.004 A 
ENDBRANCH  29  30
ENDBRANCH  28  29
ENDBRANCH  26  28
ENDBRANCH  21  26
ENDBRANCH  19  20
ENDBRANCH   1  19
TORSDOF 11
