MODEL 2604
MODEL 1
REMARK VINA RESULT:    -4.375      0.000      0.000
REMARK INTER + INTRA:          -4.375
REMARK INTER:                  -4.375
REMARK INTRA:                   0.000
REMARK UNBOUND:                 0.000
REMARK  Name = No_2604-gen_results/8p0m/2024-11-26-14-13-15/
REMARK  0 active torsions:
REMARK  status: ('A' for Active; 'I' for Inactive)
REMARK                            x       y       z     vdW  Elec       q    Type
REMARK                         _______ _______ _______ _____ _____    ______ ____
ROOT
ATOM      1  C   UNL A   1     -24.964  -5.433  28.993  0.00  0.00    +0.000 A 
ATOM      2  C   UNL A   1     -24.189  -4.784  28.692  0.00  0.00    +0.000 A 
ATOM      3  C   UNL A   1     -26.096  -4.745  29.613  0.00  0.00    +0.000 A 
ATOM      4  C   UNL A   1     -26.130  -3.380  29.758  0.00  0.00    +0.000 A 
ATOM      5  C   UNL A   1     -24.058  -3.531  28.687  0.00  0.00    +0.000 A 
ATOM      6  C   UNL A   1     -25.029  -2.713  29.238  0.00  0.00    +0.000 A 
ENDROOT
TORSDOF 0
ENDMDL
ENDMDL
