MODEL 2605
MODEL 1
REMARK VINA RESULT:    -7.424      0.000      0.000
REMARK INTER + INTRA:          -9.669
REMARK INTER:                  -9.160
REMARK INTRA:                  -0.509
REMARK UNBOUND:                -0.509
REMARK  Name = No_2605-gen_results/8p0m/2024-11-26-14-13-15/
REMARK  4 active torsions:
REMARK  status: ('A' for Active; 'I' for Inactive)
REMARK    1  A    between atoms: C_10  and  C_13
REMARK    2  A    between atoms: C_17  and  C_22
REMARK    3  A    between atoms: C_22  and  N_23
REMARK    4  A    between atoms: N_23  and  C_24
REMARK                            x       y       z     vdW  Elec       q    Type
REMARK                         _______ _______ _______ _____ _____    ______ ____
ROOT
ATOM      1  C   UNL A   1     -26.717   2.821  26.075  0.00  0.00    +0.002 A 
ATOM      2  C   UNL A   1     -27.742   2.953  25.446  0.00  0.00    +0.000 A 
ATOM      3  C   UNL A   1     -28.369   1.909  24.766  0.00  0.00    +0.000 A 
ATOM      4  C   UNL A   1     -29.608   1.982  23.968  0.00  0.00    +0.003 A 
ATOM      5  C   UNL A   1     -30.342   3.203  24.071  0.00  0.00    +0.042 A 
ATOM      6  C   UNL A   1     -31.544   3.330  23.375  0.00  0.00    +0.196 A 
ATOM      7  C   UNL A   1     -32.060   2.180  22.722  0.00  0.00    +0.042 A 
ATOM      8  C   UNL A   1     -31.370   1.008  22.639  0.00  0.00    +0.003 A 
ATOM      9  C   UNL A   1     -30.125   0.878  23.325  0.00  0.00    +0.000 A 
ATOM     10  C   UNL A   1     -25.947   1.578  25.995  0.00  0.00    +0.018 A 
ATOM     11  C   UNL A   1     -26.505   0.434  25.452  0.00  0.00    +0.002 A 
ATOM     12  C   UNL A   1     -27.732   0.578  24.764  0.00  0.00    +0.000 A 
ATOM     13  C   UNL A   1     -28.311  -0.528  24.095  0.00  0.00    +0.000 A 
ATOM     14  C   UNL A   1     -29.450  -0.392  23.315  0.00  0.00    +0.000 A 
ATOM     15  O   UNL A   1     -32.198   4.479  23.385  0.00  0.00    -0.287 OA
ENDROOT
BRANCH  10  16
ATOM     16  C   UNL A   1     -24.665   1.417  26.715  0.00  0.00    +0.081 A 
ATOM     17  N   UNL A   1     -23.679   2.268  26.532  0.00  0.00    -0.244 NA
ATOM     18  C   UNL A   1     -22.351   1.888  26.638  0.00  0.00    +0.099 A 
ATOM     19  C   UNL A   1     -22.062   1.205  27.747  0.00  0.00    +0.018 A 
ATOM     20  C   UNL A   1     -23.065   0.230  28.172  0.00  0.00    +0.002 A 
ATOM     21  C   UNL A   1     -24.418   0.368  27.642  0.00  0.00    +0.017 A 
BRANCH  20  22
ATOM     22  C   UNL A   1     -22.813  -0.737  29.198  0.00  0.00    +0.139 C 
BRANCH  22  23
ATOM     23  N   UNL A   1     -22.934  -1.907  28.911  0.00  0.00    -0.232 NA
BRANCH  23  24
ATOM     24  C   UNL A   1     -23.762  -2.694  29.329  0.00  0.00    +0.081 C 
ATOM     25  C   UNL A   1     -24.178  -3.933  28.615  0.00  0.00    +0.019 C 
ENDBRANCH  23  24
ENDBRANCH  22  23
ENDBRANCH  20  22
ENDBRANCH  10  16
TORSDOF 4
ENDMDL
ENDMDL
