REMARK  Name = No_2605-gen_results/8p0m/2024-11-26-14-13-15/
REMARK  4 active torsions:
REMARK  status: ('A' for Active; 'I' for Inactive)
REMARK    1  A    between atoms: C_10  and  C_13
REMARK    2  A    between atoms: C_17  and  C_22
REMARK    3  A    between atoms: C_22  and  N_23
REMARK    4  A    between atoms: N_23  and  C_24
REMARK                            x       y       z     vdW  Elec       q    Type
REMARK                         _______ _______ _______ _____ _____    ______ ____
ROOT
ATOM      1  C   UNL A   1     -28.016  -0.814  28.878  0.00  0.00    +0.002 A 
ATOM      2  C   UNL A   1     -27.064  -0.119  28.608  0.00  0.00    +0.000 A 
ATOM      3  C   UNL A   1     -25.765  -0.390  29.036  0.00  0.00    +0.000 A 
ATOM      4  C   UNL A   1     -24.552   0.406  28.765  0.00  0.00    +0.003 A 
ATOM      5  C   UNL A   1     -24.696   1.448  27.799  0.00  0.00    +0.042 A 
ATOM      6  C   UNL A   1     -23.582   2.217  27.463  0.00  0.00    +0.196 A 
ATOM      7  C   UNL A   1     -22.321   1.824  27.981  0.00  0.00    +0.042 A 
ATOM      8  C   UNL A   1     -22.178   0.817  28.888  0.00  0.00    +0.003 A 
ATOM      9  C   UNL A   1     -23.318   0.042  29.260  0.00  0.00    +0.000 A 
ATOM     10  C   UNL A   1     -27.897  -1.895  29.859  0.00  0.00    +0.018 A 
ATOM     11  C   UNL A   1     -26.653  -2.340  30.273  0.00  0.00    +0.002 A 
ATOM     12  C   UNL A   1     -25.533  -1.557  29.909  0.00  0.00    +0.000 A 
ATOM     13  C   UNL A   1     -24.241  -1.893  30.383  0.00  0.00    +0.000 A 
ATOM     14  C   UNL A   1     -23.144  -1.081  30.141  0.00  0.00    +0.000 A 
ATOM     15  O   UNL A   1     -23.709   3.242  26.637  0.00  0.00    -0.287 OA
ENDROOT
BRANCH  10  16
ATOM     16  C   UNL A   1     -29.062  -2.722  30.242  0.00  0.00    +0.081 A 
ATOM     17  N   UNL A   1     -28.943  -4.023  30.391  0.00  0.00    -0.244 NA
ATOM     18  C   UNL A   1     -29.991  -4.891  30.132  0.00  0.00    +0.099 A 
ATOM     19  C   UNL A   1     -31.145  -4.547  30.708  0.00  0.00    +0.018 A 
ATOM     20  C   UNL A   1     -31.453  -3.118  30.707  0.00  0.00    +0.002 A 
ATOM     21  C   UNL A   1     -30.355  -2.183  30.483  0.00  0.00    +0.017 A 
BRANCH  20  22
ATOM     22  C   UNL A   1     -32.740  -2.608  31.074  0.00  0.00    +0.139 C 
BRANCH  22  23
ATOM     23  N   UNL A   1     -32.895  -2.239  32.217  0.00  0.00    -0.232 NA
BRANCH  23  24
ATOM     24  C   UNL A   1     -33.892  -1.749  32.712  0.00  0.00    +0.081 C 
ATOM     25  C   UNL A   1     -34.002  -1.330  34.137  0.00  0.00    +0.019 C 
ENDBRANCH  23  24
ENDBRANCH  22  23
ENDBRANCH  20  22
ENDBRANCH  10  16
TORSDOF 4
