REMARK  Name = No_2606-gen_results/8p0m/2024-11-26-14-13-15/
REMARK  0 active torsions:
REMARK  status: ('A' for Active; 'I' for Inactive)
REMARK                            x       y       z     vdW  Elec       q    Type
REMARK                         _______ _______ _______ _____ _____    ______ ____
ROOT
ATOM      1  F   UNL A   1     -28.073  -1.254  28.532  0.00  0.00    -0.204 F 
ATOM      2  C   UNL A   1     -27.061  -0.629  28.872  0.00  0.00    +0.140 C 
ATOM      3  C   UNL A   1     -26.358  -0.071  28.012  0.00  0.00    +0.029 C 
ATOM      4  C   UNL A   1     -25.072   0.553  28.256  0.00  0.00    -0.005 A 
ATOM      5  C   UNL A   1     -24.190   1.218  27.282  0.00  0.00    -0.022 A 
ATOM      6  C   UNL A   1     -22.924   1.770  27.670  0.00  0.00    -0.004 A 
ATOM      7  C   UNL A   1     -22.381   1.302  28.899  0.00  0.00    -0.001 A 
ATOM      8  C   UNL A   1     -24.246   0.262  29.422  0.00  0.00    -0.018 A 
ATOM      9  C   UNL A   1     -23.015   0.645  29.729  0.00  0.00    -0.004 A 
ATOM     10  C   UNL A   1     -26.653  -0.710  30.308  0.00  0.00    +0.025 C 
ATOM     11  C   UNL A   1     -25.810  -0.263  30.829  0.00  0.00    -0.019 C 
ATOM     12  C   UNL A   1     -24.813  -0.154  30.683  0.00  0.00    +0.052 C 
ATOM     13  C   UNL A   1     -24.726   1.601  25.990  0.00  0.00    +0.031 C 
ENDROOT
TORSDOF 0
