MODEL 2606
MODEL 1
REMARK VINA RESULT:    -6.063      0.000      0.000
REMARK INTER + INTRA:          -6.063
REMARK INTER:                  -6.063
REMARK INTRA:                   0.000
REMARK UNBOUND:                 0.000
REMARK  Name = No_2606-gen_results/8p0m/2024-11-26-14-13-15/
REMARK  0 active torsions:
REMARK  status: ('A' for Active; 'I' for Inactive)
REMARK                            x       y       z     vdW  Elec       q    Type
REMARK                         _______ _______ _______ _____ _____    ______ ____
ROOT
ATOM      1  F   UNL A   1     -25.553  -2.986  28.929  0.00  0.00    -0.204 F 
ATOM      2  C   UNL A   1     -24.864  -1.959  28.897  0.00  0.00    +0.140 C 
ATOM      3  C   UNL A   1     -24.944  -1.188  27.926  0.00  0.00    +0.029 C 
ATOM      4  C   UNL A   1     -24.085  -0.044  27.691  0.00  0.00    -0.005 A 
ATOM      5  C   UNL A   1     -24.122   0.898  26.560  0.00  0.00    -0.022 A 
ATOM      6  C   UNL A   1     -23.182   1.976  26.449  0.00  0.00    -0.004 A 
ATOM      7  C   UNL A   1     -21.993   1.860  27.223  0.00  0.00    -0.001 A 
ATOM      8  C   UNL A   1     -22.778   0.122  28.317  0.00  0.00    -0.018 A 
ATOM      9  C   UNL A   1     -21.832   1.029  28.121  0.00  0.00    -0.004 A 
ATOM     10  C   UNL A   1     -23.847  -1.781  29.978  0.00  0.00    +0.025 C 
ATOM     11  C   UNL A   1     -23.132  -0.980  30.151  0.00  0.00    -0.019 C 
ATOM     12  C   UNL A   1     -22.465  -0.443  29.608  0.00  0.00    +0.052 C 
ATOM     13  C   UNL A   1     -25.298   0.939  25.713  0.00  0.00    +0.031 C 
ENDROOT
TORSDOF 0
ENDMDL
ENDMDL
