REMARK  Name = No_2607-gen_results/8p0m/2024-11-26-14-13-15/
REMARK  1 active torsions:
REMARK  status: ('A' for Active; 'I' for Inactive)
REMARK    1  A    between atoms: C_2  and  C_8
REMARK                            x       y       z     vdW  Elec       q    Type
REMARK                         _______ _______ _______ _____ _____    ______ ____
ROOT
ATOM      1  C   UNL A   1     -27.107   1.110  27.759  0.00  0.00    +0.249 C 
ATOM      2  N   UNL A   1     -26.774   2.065  27.893  0.00  0.00    -0.276 N 
ATOM      3  O   UNL A   1     -27.775   0.813  26.575  0.00  0.00    -0.270 OA
ATOM      4  C   UNL A   1     -25.983   2.525  29.138  0.00  0.00    +0.094 C 
ATOM      5  C   UNL A   1     -25.963   3.992  29.221  0.00  0.00    +0.022 C 
ATOM      6  C   UNL A   1     -25.815   4.663  28.039  0.00  0.00    +0.004 C 
ATOM      7  C   UNL A   1     -26.323   4.177  26.812  0.00  0.00    +0.022 C 
ATOM      8  C   UNL A   1     -26.745   2.967  26.774  0.00  0.00    +0.094 C 
ENDROOT
BRANCH   1  10
ATOM      9  C   UNL A   1     -28.016  -0.814  28.878  0.00  0.00    +0.016 A 
ATOM     10  C   UNL A   1     -27.064  -0.119  28.608  0.00  0.00    +0.054 A 
ATOM     11  C   UNL A   1     -25.792  -0.430  29.076  0.00  0.00    +0.005 A 
ATOM     12  C   UNL A   1     -25.576  -1.565  29.936  0.00  0.00    +0.001 A 
ATOM     13  C   UNL A   1     -26.735  -2.300  30.217  0.00  0.00    +0.011 A 
ATOM     14  C   UNL A   1     -27.918  -1.954  29.763  0.00  0.00    +0.058 A 
ATOM     15 CL   UNL A   1     -29.268  -2.889  30.215  0.00  0.00    -0.082 Cl
ENDBRANCH   1  10
TORSDOF 1
