REMARK  Name = No_2608-gen_results/8p0m/2024-11-26-14-13-15/
REMARK  7 active torsions:
REMARK  status: ('A' for Active; 'I' for Inactive)
REMARK    1  A    between atoms: C_2  and  C_11
REMARK    2  A    between atoms: C_3  and  C_4
REMARK    3  A    between atoms: C_6  and  C_14
REMARK    4  A    between atoms: C_14  and  C_22
REMARK    5  A    between atoms: C_15  and  C_16
REMARK    6  A    between atoms: C_24  and  C_32
REMARK    7  A    between atoms: C_26  and  C_28
REMARK                            x       y       z     vdW  Elec       q    Type
REMARK                         _______ _______ _______ _____ _____    ______ ____
ROOT
ATOM      1  C   UNL A   1     -27.311   2.184  31.840  0.00  0.00    -0.000 C 
ATOM      2  C   UNL A   1     -26.576   3.063  31.736  0.00  0.00    +0.000 C 
ENDROOT
BRANCH   2   3
ATOM      3  C   UNL A   1     -26.164   4.063  32.269  0.00  0.00    +0.000 A 
ATOM      4  C   UNL A   1     -25.082   5.051  32.003  0.00  0.00    +0.003 A 
ATOM      5  C   UNL A   1     -24.700   6.118  32.791  0.00  0.00    +0.042 A 
ATOM      6  C   UNL A   1     -25.370   6.367  33.983  0.00  0.00    +0.196 A 
ATOM      7  C   UNL A   1     -26.358   5.512  34.358  0.00  0.00    +0.042 A 
ATOM      8  C   UNL A   1     -26.715   4.457  33.649  0.00  0.00    +0.003 A 
ATOM      9  O   UNL A   1     -24.971   7.444  34.744  0.00  0.00    -0.287 OA
ENDBRANCH   2   3
BRANCH   1  14
ATOM     10  C   UNL A   1     -28.016  -0.814  28.878  0.00  0.00    +0.010 A 
ATOM     11  C   UNL A   1     -28.469  -0.785  29.829  0.00  0.00    +0.080 A 
ATOM     12  C   UNL A   1     -27.087   0.290  28.638  0.00  0.00    +0.072 A 
ATOM     13  C   UNL A   1     -28.391   0.104  30.980  0.00  0.00    +0.007 A 
ATOM     14  C   UNL A   1     -27.533   1.167  30.787  0.00  0.00    +0.000 A 
ATOM     15  C   UNL A   1     -26.828   1.256  29.645  0.00  0.00    +0.004 A 
BRANCH  12  16
ATOM     16  C   UNL A   1     -26.252   0.411  27.422  0.00  0.00    +0.419 C 
ATOM     17  F   UNL A   1     -26.290  -0.321  26.701  0.00  0.00    -0.166 F 
ATOM     18  F   UNL A   1     -24.906   0.630  27.850  0.00  0.00    -0.166 F 
ATOM     19  F   UNL A   1     -26.525   1.700  26.805  0.00  0.00    -0.166 F 
ENDBRANCH  12  16
BRANCH  11  20
ATOM     20  C   UNL A   1     -29.461  -2.018  30.213  0.00  0.00    +0.388 C 
ATOM     21  O   UNL A   1     -30.492  -1.877  29.814  0.00  0.00    -0.241 OA
ATOM     22  O   UNL A   1     -29.023  -3.031  30.884  0.00  0.00    -0.241 OA
ENDBRANCH  11  20
ENDBRANCH   1  14
BRANCH   1  23
ATOM     23  C   UNL A   1     -28.119   2.048  33.057  0.00  0.00    +0.000 A 
ATOM     24  C   UNL A   1     -27.814   1.750  34.123  0.00  0.00    +0.007 A 
ATOM     25  C   UNL A   1     -28.677   1.133  35.048  0.00  0.00    +0.080 A 
ATOM     26  C   UNL A   1     -29.984   0.952  34.655  0.00  0.00    +0.010 A 
ATOM     27  C   UNL A   1     -30.410   1.283  33.425  0.00  0.00    +0.072 A 
ATOM     28  C   UNL A   1     -29.519   1.745  32.512  0.00  0.00    +0.004 A 
BRANCH  27  29
ATOM     29  C   UNL A   1     -31.795   0.998  33.022  0.00  0.00    +0.419 C 
ATOM     30  F   UNL A   1     -32.666   0.911  33.556  0.00  0.00    -0.166 F 
ATOM     31  F   UNL A   1     -31.964   1.859  31.942  0.00  0.00    -0.166 F 
ATOM     32  F   UNL A   1     -31.608  -0.249  32.249  0.00  0.00    -0.166 F 
ENDBRANCH  27  29
BRANCH  25  33
ATOM     33  C   UNL A   1     -28.257   0.847  36.470  0.00  0.00    +0.388 C 
ATOM     34  O   UNL A   1     -28.730  -0.079  37.018  0.00  0.00    -0.241 OA
ATOM     35  O   UNL A   1     -27.334   1.566  36.933  0.00  0.00    -0.241 OA
ENDBRANCH  25  33
ENDBRANCH   1  23
TORSDOF 7
