MODEL 2608
MODEL 1
REMARK VINA RESULT:    -8.581      0.000      0.000
REMARK INTER + INTRA:         -14.644
REMARK INTER:                 -12.092
REMARK INTRA:                  -2.551
REMARK UNBOUND:                -2.551
REMARK  Name = No_2608-gen_results/8p0m/2024-11-26-14-13-15/
REMARK  7 active torsions:
REMARK  status: ('A' for Active; 'I' for Inactive)
REMARK    1  A    between atoms: C_2  and  C_11
REMARK    2  A    between atoms: C_3  and  C_4
REMARK    3  A    between atoms: C_6  and  C_14
REMARK    4  A    between atoms: C_14  and  C_22
REMARK    5  A    between atoms: C_15  and  C_16
REMARK    6  A    between atoms: C_24  and  C_32
REMARK    7  A    between atoms: C_26  and  C_28
REMARK                            x       y       z     vdW  Elec       q    Type
REMARK                         _______ _______ _______ _____ _____    ______ ____
ROOT
ATOM      1  C   UNL A   1      -9.793   0.421  36.019  0.00  0.00    -0.000 C 
ATOM      2  C   UNL A   1      -8.844   0.413  35.369  0.00  0.00    +0.000 C 
ENDROOT
BRANCH   2   3
ATOM      3  C   UNL A   1      -7.715  -0.003  35.290  0.00  0.00    +0.000 A 
ATOM      4  C   UNL A   1      -6.357   0.514  35.615  0.00  0.00    +0.003 A 
ATOM      5  C   UNL A   1      -5.142  -0.094  35.374  0.00  0.00    +0.042 A 
ATOM      6  C   UNL A   1      -5.106  -1.345  34.770  0.00  0.00    +0.196 A 
ATOM      7  C   UNL A   1      -6.282  -1.911  34.390  0.00  0.00    +0.042 A 
ATOM      8  C   UNL A   1      -7.457  -1.334  34.565  0.00  0.00    +0.003 A 
ATOM      9  O   UNL A   1      -3.878  -1.930  34.551  0.00  0.00    -0.287 OA
ENDBRANCH   2   3
BRANCH   1  14
ATOM     10  C   UNL A   1     -13.267   2.689  34.996  0.00  0.00    +0.010 A 
ATOM     11  C   UNL A   1     -12.748   2.049  34.340  0.00  0.00    +0.080 A 
ATOM     12  C   UNL A   1     -12.684   2.751  36.337  0.00  0.00    +0.072 A 
ATOM     13  C   UNL A   1     -11.572   1.197  34.448  0.00  0.00    +0.007 A 
ATOM     14  C   UNL A   1     -11.001   1.218  35.704  0.00  0.00    +0.000 A 
ATOM     15  C   UNL A   1     -11.506   2.027  36.653  0.00  0.00    +0.004 A 
BRANCH  12  16
ATOM     16  C   UNL A   1     -13.170   3.657  37.402  0.00  0.00    +0.419 C 
ATOM     17  F   UNL A   1     -13.198   3.331  38.376  0.00  0.00    -0.166 F 
ATOM     18  F   UNL A   1     -14.450   4.146  36.995  0.00  0.00    -0.166 F 
ATOM     19  F   UNL A   1     -12.404   4.893  37.336  0.00  0.00    -0.166 F 
ENDBRANCH  12  16
BRANCH  11  20
ATOM     20  C   UNL A   1     -13.280   1.977  32.803  0.00  0.00    +0.388 C 
ATOM     21  O   UNL A   1     -14.114   2.690  32.605  0.00  0.00    -0.241 OA
ATOM     22  O   UNL A   1     -12.728   1.177  31.951  0.00  0.00    -0.241 OA
ENDBRANCH  11  20
ENDBRANCH   1  14
BRANCH   1  23
ATOM     23  C   UNL A   1      -9.836  -0.363  37.259  0.00  0.00    +0.000 A 
ATOM     24  C   UNL A   1     -10.655  -1.051  37.676  0.00  0.00    +0.007 A 
ATOM     25  C   UNL A   1     -10.849  -1.306  39.047  0.00  0.00    +0.080 A 
ATOM     26  C   UNL A   1      -9.943  -0.745  39.919  0.00  0.00    +0.010 A 
ATOM     27  C   UNL A   1      -8.957   0.064  39.498  0.00  0.00    +0.072 A 
ATOM     28  C   UNL A   1      -8.885   0.402  38.186  0.00  0.00    +0.004 A 
BRANCH  27  29
ATOM     29  C   UNL A   1      -8.062   0.705  40.472  0.00  0.00    +0.419 C 
ATOM     30  F   UNL A   1      -8.210   1.450  41.161  0.00  0.00    -0.166 F 
ATOM     31  F   UNL A   1      -7.443  -0.394  41.061  0.00  0.00    -0.166 F 
ATOM     32  F   UNL A   1      -6.942   1.112  39.595  0.00  0.00    -0.166 F 
ENDBRANCH  27  29
BRANCH  25  33
ATOM     33  C   UNL A   1     -11.880  -2.292  39.541  0.00  0.00    +0.388 C 
ATOM     34  O   UNL A   1     -12.161  -2.283  40.682  0.00  0.00    -0.241 OA
ATOM     35  O   UNL A   1     -12.452  -2.987  38.662  0.00  0.00    -0.241 OA
ENDBRANCH  25  33
ENDBRANCH   1  23
TORSDOF 7
ENDMDL
ENDMDL
