REMARK  Name = No_2609-gen_results/8p0m/2024-11-26-14-13-15/
REMARK  5 active torsions:
REMARK  status: ('A' for Active; 'I' for Inactive)
REMARK    1  A    between atoms: C_2  and  C_7
REMARK    2  A    between atoms: C_3  and  C_17
REMARK    3  A    between atoms: C_4  and  C_10
REMARK    4  A    between atoms: C_10  and  C_11
REMARK    5  A    between atoms: C_17  and  C_18
REMARK                            x       y       z     vdW  Elec       q    Type
REMARK                         _______ _______ _______ _____ _____    ______ ____
ROOT
ATOM      1  C   UNL A   1     -28.016  -0.814  28.878  0.00  0.00    +0.002 A 
ATOM      2  C   UNL A   1     -28.469  -0.785  29.829  0.00  0.00    +0.080 A 
ATOM      3  C   UNL A   1     -26.504  -0.778  28.877  0.00  0.00    -0.021 A 
ATOM      4  C   UNL A   1     -25.831  -1.681  29.685  0.00  0.00    -0.021 A 
ATOM      5  C   UNL A   1     -28.044  -1.277  30.982  0.00  0.00    +0.006 A 
ATOM      6  C   UNL A   1     -26.646  -1.724  31.011  0.00  0.00    -0.004 A 
ENDROOT
BRANCH   2   7
ATOM      7  C   UNL A   1     -29.944  -0.338  29.758  0.00  0.00    +0.388 C 
ATOM      8  O   UNL A   1     -30.203   0.807  30.288  0.00  0.00    -0.241 OA
ATOM      9  O   UNL A   1     -30.853  -1.273  29.625  0.00  0.00    -0.241 OA
ENDBRANCH   2   7
BRANCH   4  10
ATOM     10  C   UNL A   1     -24.488  -1.931  29.784  0.00  0.00    +0.052 C 
BRANCH  10  11
ATOM     11  C   UNL A   1     -23.576  -0.902  29.936  0.00  0.00    -0.018 A 
ATOM     12  C   UNL A   1     -22.400  -0.784  29.133  0.00  0.00    -0.004 A 
ATOM     13  C   UNL A   1     -21.595   0.330  29.244  0.00  0.00    -0.000 A 
ATOM     14  C   UNL A   1     -23.788   0.186  30.894  0.00  0.00    -0.004 A 
ATOM     15  C   UNL A   1     -23.019   1.377  30.811  0.00  0.00    -0.000 A 
ATOM     16  C   UNL A   1     -21.947   1.417  30.012  0.00  0.00    -0.000 A 
ENDBRANCH  10  11
ENDBRANCH   4  10
BRANCH   3  17
ATOM     17  C   UNL A   1     -25.739  -0.566  27.587  0.00  0.00    +0.052 C 
BRANCH  17  18
ATOM     18  C   UNL A   1     -25.375   0.856  27.523  0.00  0.00    -0.026 C 
ATOM     19  C   UNL A   1     -24.601   1.252  26.394  0.00  0.00    -0.030 C 
ATOM     20  C   UNL A   1     -24.069   2.575  26.370  0.00  0.00    +0.030 C 
ENDBRANCH  17  18
ENDBRANCH   3  17
TORSDOF 5
