MODEL 2609
MODEL 1
REMARK VINA RESULT:    -6.802      0.000      0.000
REMARK INTER + INTRA:          -9.896
REMARK INTER:                  -8.790
REMARK INTRA:                  -1.106
REMARK UNBOUND:                -1.106
REMARK  Name = No_2609-gen_results/8p0m/2024-11-26-14-13-15/
REMARK  5 active torsions:
REMARK  status: ('A' for Active; 'I' for Inactive)
REMARK    1  A    between atoms: C_2  and  C_7
REMARK    2  A    between atoms: C_3  and  C_17
REMARK    3  A    between atoms: C_4  and  C_10
REMARK    4  A    between atoms: C_10  and  C_11
REMARK    5  A    between atoms: C_17  and  C_18
REMARK                            x       y       z     vdW  Elec       q    Type
REMARK                         _______ _______ _______ _____ _____    ______ ____
ROOT
ATOM      1  C   UNL A   1     -11.186   1.272  35.703  0.00  0.00    +0.002 A 
ATOM      2  C   UNL A   1     -11.183   1.540  34.684  0.00  0.00    +0.080 A 
ATOM      3  C   UNL A   1      -9.951   0.543  36.186  0.00  0.00    -0.021 A 
ATOM      4  C   UNL A   1      -8.714   1.102  35.906  0.00  0.00    -0.021 A 
ATOM      5  C   UNL A   1     -10.171   1.881  33.903  0.00  0.00    +0.006 A 
ATOM      6  C   UNL A   1      -8.830   1.634  34.448  0.00  0.00    -0.004 A 
ENDROOT
BRANCH   2   7
ATOM      7  C   UNL A   1     -12.605   1.819  34.153  0.00  0.00    +0.388 C 
ATOM      8  O   UNL A   1     -13.442   2.273  35.019  0.00  0.00    -0.241 OA
ATOM      9  O   UNL A   1     -12.986   1.171  33.079  0.00  0.00    -0.241 OA
ENDBRANCH   2   7
BRANCH   4  10
ATOM     10  C   UNL A   1      -7.467   0.712  36.318  0.00  0.00    +0.052 C 
BRANCH  10  11
ATOM     11  C   UNL A   1      -6.658  -0.069  35.513  0.00  0.00    -0.018 A 
ATOM     12  C   UNL A   1      -5.288   0.246  35.253  0.00  0.00    -0.004 A 
ATOM     13  C   UNL A   1      -4.497  -0.636  34.548  0.00  0.00    -0.000 A 
ATOM     14  C   UNL A   1      -7.132  -1.321  34.919  0.00  0.00    -0.004 A 
ATOM     15  C   UNL A   1      -6.210  -2.253  34.373  0.00  0.00    -0.000 A 
ATOM     16  C   UNL A   1      -4.936  -1.890  34.187  0.00  0.00    -0.000 A 
ENDBRANCH  10  11
ENDBRANCH   4  10
BRANCH   3  17
ATOM     17  C   UNL A   1      -9.928  -0.113  37.551  0.00  0.00    +0.052 C 
BRANCH  17  18
ATOM     18  C   UNL A   1     -10.985  -1.133  37.565  0.00  0.00    -0.026 C 
ATOM     19  C   UNL A   1     -11.463  -1.519  38.851  0.00  0.00    -0.030 C 
ATOM     20  C   UNL A   1     -12.356  -2.628  38.934  0.00  0.00    +0.030 C 
ENDBRANCH  17  18
ENDBRANCH   3  17
TORSDOF 5
ENDMDL
ENDMDL
