MODEL 260
MODEL 1
REMARK VINA RESULT:    -5.677      0.000      0.000
REMARK INTER + INTRA:          -9.102
REMARK INTER:                  -8.001
REMARK INTRA:                  -1.101
REMARK UNBOUND:                -1.101
REMARK  Name = No_260-gen_results/8p0m/2024-11-26-14-13-15/
REMARK  7 active torsions:
REMARK  status: ('A' for Active; 'I' for Inactive)
REMARK    1  A    between atoms: C_6  and  C_8
REMARK    2  A    between atoms: C_8  and  O_10
REMARK    3  A    between atoms: O_10  and  C_12
REMARK    4  A    between atoms: C_12  and  C_13
REMARK    5  A    between atoms: N_15  and  C_16
REMARK    6  A    between atoms: C_17  and  C_18
REMARK    7  A    between atoms: C_19  and  C_20
REMARK                            x       y       z     vdW  Elec       q    Type
REMARK                         _______ _______ _______ _____ _____    ______ ____
ROOT
ATOM      1  O   UNL A   1     -27.652  -0.843  30.589  0.00  0.00    -0.435 OA
ENDROOT
BRANCH   1   2
ATOM      2  C   UNL A   1     -27.594  -2.318  30.620  0.00  0.00    +0.342 C 
ATOM      3  O   UNL A   1     -28.341  -2.880  31.177  0.00  0.00    -0.245 OA
BRANCH   2   9
ATOM      4  C   UNL A   1     -23.885  -3.495  29.022  0.00  0.00    +0.023 A 
ATOM      5  C   UNL A   1     -24.132  -2.501  29.269  0.00  0.00    +0.059 A 
ATOM      6  C   UNL A   1     -25.015  -4.425  29.137  0.00  0.00    +0.059 A 
ATOM      7  C   UNL A   1     -26.181  -4.071  29.679  0.00  0.00    +0.018 A 
ATOM      8  C   UNL A   1     -25.289  -1.894  29.882  0.00  0.00    +0.018 A 
ATOM      9  C   UNL A   1     -26.319  -2.780  30.003  0.00  0.00    +0.077 A 
ATOM     10 CL   UNL A   1     -24.702  -6.068  28.608  0.00  0.00    -0.082 Cl
ATOM     11 CL   UNL A   1     -22.713  -1.272  29.047  0.00  0.00    -0.082 Cl
ENDBRANCH   2   9
ENDBRANCH   1   2
BRANCH   1  12
ATOM     12  C   UNL A   1     -28.509  -0.312  29.749  0.00  0.00    +0.295 C 
BRANCH  12  13
ATOM     13  C   UNL A   1     -28.153   0.077  28.573  0.00  0.00    +0.290 C 
ATOM     14  O   UNL A   1     -28.839   0.019  27.725  0.00  0.00    -0.269 OA
ATOM     15  N   UNL A   1     -26.979   0.881  28.535  0.00  0.00    -0.175 NA
BRANCH  15  16
ATOM     16  C   UNL A   1     -26.335   1.255  27.262  0.00  0.00    +0.089 C 
ATOM     17  C   UNL A   1     -25.302   0.552  26.984  0.00  0.00    +0.018 C 
BRANCH  17  18
ATOM     18  C   UNL A   1     -24.560   0.728  25.832  0.00  0.00    +0.001 C 
ATOM     19  C   UNL A   1     -23.504   1.695  25.732  0.00  0.00    +0.000 C 
BRANCH  19  20
ATOM     20  C   UNL A   1     -22.978   2.206  26.953  0.00  0.00    +0.000 C 
ATOM     21  C   UNL A   1     -21.761   1.729  27.392  0.00  0.00    +0.000 C 
ENDBRANCH  19  20
ENDBRANCH  17  18
ENDBRANCH  15  16
ENDBRANCH  12  13
ENDBRANCH   1  12
TORSDOF 7
ENDMDL
ENDMDL
