REMARK  Name = No_261-gen_results/8p0m/2024-11-26-14-13-15/
REMARK  3 active torsions:
REMARK  status: ('A' for Active; 'I' for Inactive)
REMARK    1  A    between atoms: C_3  and  C_8
REMARK    2  A    between atoms: C_9  and  C_10
REMARK    3  A    between atoms: C_11  and  C_12
REMARK                            x       y       z     vdW  Elec       q    Type
REMARK                         _______ _______ _______ _____ _____    ______ ____
ROOT
ATOM      1  C   UNL A   1     -28.016  -0.814  28.878  0.00  0.00    +0.001 A 
ATOM      2  C   UNL A   1     -27.064  -0.119  28.608  0.00  0.00    +0.000 A 
ATOM      3  C   UNL A   1     -26.972   0.714  27.506  0.00  0.00    +0.001 A 
ATOM      4  C   UNL A   1     -28.105   0.774  26.642  0.00  0.00    +0.011 A 
ATOM      5  C   UNL A   1     -29.204   0.118  27.048  0.00  0.00    +0.058 A 
ATOM      6  C   UNL A   1     -29.213  -0.609  28.128  0.00  0.00    +0.011 A 
ATOM      7 CL   UNL A   1     -30.564   0.247  26.022  0.00  0.00    -0.082 Cl
ENDROOT
BRANCH   3   8
ATOM      8  C   UNL A   1     -25.700   1.446  27.123  0.00  0.00    +0.000 C 
ATOM      9  C   UNL A   1     -24.661   1.022  27.870  0.00  0.00    +0.000 C 
BRANCH   9  10
ATOM     10  C   UNL A   1     -23.348   1.763  27.672  0.00  0.00    +0.000 C 
ATOM     11  C   UNL A   1     -22.260   1.425  28.550  0.00  0.00    +0.000 C 
BRANCH  11  12
ATOM     12  C   UNL A   1     -22.317   0.338  29.413  0.00  0.00    +0.000 C 
ATOM     13  C   UNL A   1     -23.490  -0.399  29.520  0.00  0.00    +0.000 C 
ENDBRANCH  11  12
ENDBRANCH   9  10
ENDBRANCH   3   8
TORSDOF 3
