MODEL 2610
MODEL 1
REMARK VINA RESULT:    -7.668      0.000      0.000
REMARK INTER + INTRA:         -13.232
REMARK INTER:                 -10.806
REMARK INTRA:                  -2.425
REMARK UNBOUND:                -2.425
REMARK  Name = No_2610-gen_results/8p0m/2024-11-26-14-13-15/
REMARK  7 active torsions:
REMARK  status: ('A' for Active; 'I' for Inactive)
REMARK    1  A    between atoms: C_2  and  C_27
REMARK    2  A    between atoms: C_3  and  C_4
REMARK    3  A    between atoms: C_4  and  C_8
REMARK    4  A    between atoms: C_8  and  C_18
REMARK    5  A    between atoms: C_10  and  C_11
REMARK    6  A    between atoms: C_19  and  C_20
REMARK    7  A    between atoms: C_22  and  C_30
REMARK                            x       y       z     vdW  Elec       q    Type
REMARK                         _______ _______ _______ _____ _____    ______ ____
ROOT
ATOM      1  C   UNL A   1     -32.644 -15.350  23.199  0.00  0.00    +0.082 C 
ATOM      2  C   UNL A   1     -33.199 -16.221  24.114  0.00  0.00    +0.012 C 
ATOM      3  C   UNL A   1     -33.742 -14.461  22.689  0.00  0.00    +0.089 C 
ATOM      4  C   UNL A   1     -34.695 -14.115  23.835  0.00  0.00    +0.010 C 
ATOM      5  C   UNL A   1     -35.094 -15.035  24.758  0.00  0.00    +0.001 C 
ATOM      6  C   UNL A   1     -34.192 -16.015  25.037  0.00  0.00    +0.001 C 
ENDROOT
BRANCH   3   7
ATOM      7  C   UNL A   1     -33.628 -13.482  21.772  0.00  0.00    +0.242 C 
ATOM      8  O   UNL A   1     -33.115 -12.377  21.777  0.00  0.00    -0.273 OA
ATOM      9  N   UNL A   1     -34.197 -13.914  20.466  0.00  0.00    -0.203 NA
ATOM     10  C   UNL A   1     -34.926 -15.042  20.193  0.00  0.00    +0.139 C 
ENDBRANCH   3   7
BRANCH   1  11
ATOM     11  C   UNL A   1     -31.789 -15.917  22.172  0.00  0.00    +0.176 C 
ATOM     12  O   UNL A   1     -32.175 -16.719  21.394  0.00  0.00    -0.291 OA
BRANCH  11  15
ATOM     13  C   UNL A   1     -30.290 -13.958  21.242  0.00  0.00    +0.009 A 
ATOM     14  C   UNL A   1     -29.281 -13.689  21.104  0.00  0.00    +0.080 A 
ATOM     15  C   UNL A   1     -30.522 -15.257  21.982  0.00  0.00    +0.035 A 
ATOM     16  C   UNL A   1     -28.038 -14.218  21.681  0.00  0.00    +0.007 A 
ATOM     17  C   UNL A   1     -28.172 -15.389  22.395  0.00  0.00    +0.000 A 
ATOM     18  C   UNL A   1     -29.412 -15.937  22.601  0.00  0.00    +0.003 A 
BRANCH  14  19
ATOM     19  C   UNL A   1     -28.990 -12.377  20.224  0.00  0.00    +0.388 C 
ATOM     20  O   UNL A   1     -28.021 -12.245  19.685  0.00  0.00    -0.241 OA
ATOM     21  O   UNL A   1     -29.644 -11.287  20.500  0.00  0.00    -0.241 OA
ENDBRANCH  14  19
ENDBRANCH  11  15
ENDBRANCH   1  11
BRANCH   1  22
ATOM     22  C   UNL A   1     -31.888 -14.281  24.158  0.00  0.00    -0.019 C 
ATOM     23  C   UNL A   1     -31.242 -14.688  25.323  0.00  0.00    -0.004 C 
BRANCH  23  24
ATOM     24  C   UNL A   1     -30.634 -13.557  26.054  0.00  0.00    -0.000 A 
ATOM     25  C   UNL A   1     -30.279 -13.640  27.281  0.00  0.00    -0.000 A 
ATOM     26  C   UNL A   1     -29.768 -12.515  28.051  0.00  0.00    -0.000 A 
ATOM     27  C   UNL A   1     -29.595 -11.340  27.340  0.00  0.00    -0.000 A 
ATOM     28  C   UNL A   1     -30.318 -12.344  25.299  0.00  0.00    -0.000 A 
ATOM     29  C   UNL A   1     -29.823 -11.259  26.011  0.00  0.00    -0.000 A 
BRANCH  26  30
ATOM     30  C   UNL A   1     -29.506 -12.673  29.497  0.00  0.00    -0.000 A 
ATOM     31  C   UNL A   1     -28.699 -11.816  30.110  0.00  0.00    +0.000 A 
ATOM     32  C   UNL A   1     -28.409 -12.005  31.480  0.00  0.00    +0.000 A 
ATOM     33  C   UNL A   1     -28.868 -13.156  32.123  0.00  0.00    +0.000 A 
ATOM     34  C   UNL A   1     -29.632 -14.046  31.453  0.00  0.00    +0.000 A 
ATOM     35  C   UNL A   1     -29.968 -13.846  30.101  0.00  0.00    +0.000 A 
ENDBRANCH  26  30
ENDBRANCH  23  24
ENDBRANCH   1  22
TORSDOF 7
ENDMDL
ENDMDL
