MODEL 2611
MODEL 1
REMARK VINA RESULT:    -5.315      0.000      0.000
REMARK INTER + INTRA:          -5.851
REMARK INTER:                  -5.626
REMARK INTRA:                  -0.225
REMARK UNBOUND:                -0.225
REMARK  Name = No_2611-gen_results/8p0m/2024-11-26-14-13-15/
REMARK  1 active torsions:
REMARK  status: ('A' for Active; 'I' for Inactive)
REMARK    1  A    between atoms: C_3  and  C_4
REMARK                            x       y       z     vdW  Elec       q    Type
REMARK                         _______ _______ _______ _____ _____    ______ ____
ROOT
ATOM      1  C   UNL A   1      -8.446  -9.771  19.758  0.00  0.00    +0.004 A 
ATOM      2  C   UNL A   1      -7.750  -9.092  20.165  0.00  0.00    -0.000 A 
ATOM      3  C   UNL A   1      -8.700  -9.701  18.371  0.00  0.00    +0.071 A 
ATOM      4  C   UNL A   1      -6.959  -8.017  19.539  0.00  0.00    -0.000 A 
ATOM      5  C   UNL A   1      -7.162  -7.888  18.166  0.00  0.00    -0.000 A 
ATOM      6  C   UNL A   1      -7.999  -8.751  17.535  0.00  0.00    +0.004 A 
ENDROOT
BRANCH   3   7
ATOM      7  C   UNL A   1      -9.565 -10.651  17.624  0.00  0.00    +0.419 C 
ATOM      8  F   UNL A   1     -10.659 -10.503  18.010  0.00  0.00    -0.166 F 
ATOM      9  F   UNL A   1      -9.192 -11.904  17.994  0.00  0.00    -0.166 F 
ATOM     10  F   UNL A   1      -9.446 -10.524  16.280  0.00  0.00    -0.166 F 
ENDBRANCH   3   7
TORSDOF 1
ENDMDL
ENDMDL
