REMARK  Name = No_2612-gen_results/8p0m/2024-11-26-14-13-15/
REMARK  1 active torsions:
REMARK  status: ('A' for Active; 'I' for Inactive)
REMARK    1  A    between atoms: C_3  and  C_8
REMARK                            x       y       z     vdW  Elec       q    Type
REMARK                         _______ _______ _______ _____ _____    ______ ____
ROOT
ATOM      1  O   UNL A   1     -28.123  -1.335  28.487  0.00  0.00    -0.273 OA
ATOM      2  C   UNL A   1     -27.481  -0.404  28.709  0.00  0.00    +0.241 C 
ATOM      3  C   UNL A   1     -27.190   0.246  29.527  0.00  0.00    +0.078 C 
ATOM      4  N   UNL A   1     -26.687  -0.000  27.442  0.00  0.00    -0.205 NA
ATOM      5  C   UNL A   1     -26.350   1.433  29.742  0.00  0.00    +0.011 C 
ATOM      6  C   UNL A   1     -25.865   1.094  27.415  0.00  0.00    +0.115 C 
ATOM      7  C   UNL A   1     -25.659   1.831  28.572  0.00  0.00    +0.024 C 
ENDROOT
BRANCH   3   8
ATOM      8  C   UNL A   1     -27.853  -0.105  30.965  0.00  0.00    +0.009 C 
ATOM      9  C   UNL A   1     -28.898  -0.860  30.914  0.00  0.00    +0.001 C 
ENDBRANCH   3   8
TORSDOF 1
