MODEL 2613
MODEL 1
REMARK VINA RESULT:    -6.709      0.000      0.000
REMARK INTER + INTRA:          -7.068
REMARK INTER:                  -7.101
REMARK INTRA:                   0.033
REMARK UNBOUND:                 0.033
REMARK  Name = No_2613-gen_results/8p0m/2024-11-26-14-13-15/
REMARK  1 active torsions:
REMARK  status: ('A' for Active; 'I' for Inactive)
REMARK    1  A    between atoms: C_3  and  C_15
REMARK                            x       y       z     vdW  Elec       q    Type
REMARK                         _______ _______ _______ _____ _____    ______ ____
ROOT
ATOM      1  C   UNL A   1     -26.513  -3.967  29.692  0.00  0.00    -0.003 A 
ATOM      2  C   UNL A   1     -25.819  -2.993  29.869  0.00  0.00    -0.005 A 
ATOM      3  C   UNL A   1     -26.272  -1.762  30.313  0.00  0.00    +0.148 C 
ATOM      4  C   UNL A   1     -25.483  -0.563  30.455  0.00  0.00    -0.005 A 
ATOM      5  C   UNL A   1     -25.947   0.649  30.905  0.00  0.00    -0.003 A 
ATOM      6  C   UNL A   1     -25.009   1.670  31.125  0.00  0.00    -0.000 A 
ATOM      7  C   UNL A   1     -23.673   1.559  30.667  0.00  0.00    +0.000 A 
ATOM      8  C   UNL A   1     -23.257   0.387  30.139  0.00  0.00    +0.003 A 
ATOM      9  C   UNL A   1     -24.104  -0.689  29.969  0.00  0.00    +0.036 A 
ATOM     10  C   UNL A   1     -25.854  -5.237  29.298  0.00  0.00    -0.000 A 
ATOM     11  C   UNL A   1     -24.571  -5.207  28.768  0.00  0.00    +0.000 A 
ATOM     12  C   UNL A   1     -23.842  -4.042  28.722  0.00  0.00    +0.003 A 
ATOM     13  C   UNL A   1     -24.398  -2.897  29.249  0.00  0.00    +0.036 A 
ATOM     14  C   UNL A   1     -23.652  -1.710  29.377  0.00  0.00    +0.195 C 
ATOM     15  O   UNL A   1     -22.419  -1.800  28.932  0.00  0.00    -0.287 OA
ENDROOT
BRANCH   3  16
ATOM     16  C   UNL A   1     -27.660  -1.664  30.780  0.00  0.00    +0.372 C 
ATOM     17  O   UNL A   1     -27.973  -1.864  31.875  0.00  0.00    -0.245 OA
ATOM     18  O   UNL A   1     -28.514  -1.425  29.858  0.00  0.00    -0.245 OA
ENDBRANCH   3  16
TORSDOF 1
ENDMDL
ENDMDL
