REMARK  Name = No_2613-gen_results/8p0m/2024-11-26-14-13-15/
REMARK  1 active torsions:
REMARK  status: ('A' for Active; 'I' for Inactive)
REMARK    1  A    between atoms: C_3  and  C_15
REMARK                            x       y       z     vdW  Elec       q    Type
REMARK                         _______ _______ _______ _____ _____    ______ ____
ROOT
ATOM      1  C   UNL A   1     -28.016  -0.814  28.878  0.00  0.00    -0.003 A 
ATOM      2  C   UNL A   1     -27.064  -0.119  28.608  0.00  0.00    -0.005 A 
ATOM      3  C   UNL A   1     -26.972   0.714  27.506  0.00  0.00    +0.148 C 
ATOM      4  C   UNL A   1     -25.821   1.491  27.116  0.00  0.00    -0.005 A 
ATOM      5  C   UNL A   1     -25.750   2.319  26.023  0.00  0.00    -0.003 A 
ATOM      6  C   UNL A   1     -24.604   3.117  25.877  0.00  0.00    -0.000 A 
ATOM      7  C   UNL A   1     -23.450   2.906  26.671  0.00  0.00    +0.000 A 
ATOM      8  C   UNL A   1     -23.507   2.017  27.686  0.00  0.00    +0.003 A 
ATOM      9  C   UNL A   1     -24.630   1.256  27.941  0.00  0.00    +0.036 A 
ATOM     10  C   UNL A   1     -27.987  -1.582  30.148  0.00  0.00    -0.000 A 
ATOM     11  C   UNL A   1     -26.774  -1.807  30.785  0.00  0.00    +0.000 A 
ATOM     12  C   UNL A   1     -25.612  -1.222  30.341  0.00  0.00    +0.003 A 
ATOM     13  C   UNL A   1     -25.676  -0.371  29.259  0.00  0.00    +0.036 A 
ATOM     14  C   UNL A   1     -24.559   0.381  28.849  0.00  0.00    +0.195 C 
ATOM     15  O   UNL A   1     -23.478   0.171  29.567  0.00  0.00    -0.287 OA
ENDROOT
BRANCH   3  16
ATOM     16  C   UNL A   1     -28.177   0.918  26.692  0.00  0.00    +0.372 C 
ATOM     17  O   UNL A   1     -28.296   1.798  25.951  0.00  0.00    -0.245 OA
ATOM     18  O   UNL A   1     -29.125   0.094  26.932  0.00  0.00    -0.245 OA
ENDBRANCH   3  16
TORSDOF 1
