MODEL 2614
MODEL 1
REMARK VINA RESULT:    -4.534      0.000      0.000
REMARK INTER + INTRA:          -4.534
REMARK INTER:                  -4.534
REMARK INTRA:                   0.000
REMARK UNBOUND:                 0.000
REMARK  Name = No_2614-gen_results/8p0m/2024-11-26-14-13-15/
REMARK  0 active torsions:
REMARK  status: ('A' for Active; 'I' for Inactive)
REMARK                            x       y       z     vdW  Elec       q    Type
REMARK                         _______ _______ _______ _____ _____    ______ ____
ROOT
ATOM      1  C   UNL A   1     -23.997  -4.426  28.640  0.00  0.00    +0.030 A 
ATOM      2  C   UNL A   1     -24.885  -4.944  28.870  0.00  0.00    +0.140 A 
ATOM      3  C   UNL A   1     -24.005  -2.948  28.959  0.00  0.00    +0.002 A 
ATOM      4  C   UNL A   1     -25.102  -2.397  29.655  0.00  0.00    +0.000 A 
ATOM      5  C   UNL A   1     -26.127  -4.626  29.609  0.00  0.00    +0.030 A 
ATOM      6  C   UNL A   1     -26.168  -3.275  29.926  0.00  0.00    +0.002 A 
ATOM      7  F   UNL A   1     -24.866  -6.365  28.573  0.00  0.00    -0.204 F 
ENDROOT
TORSDOF 0
ENDMDL
ENDMDL
