MODEL 2615
MODEL 1
REMARK VINA RESULT:    -5.004      0.000      0.000
REMARK INTER + INTRA:          -5.004
REMARK INTER:                  -5.004
REMARK INTRA:                   0.000
REMARK UNBOUND:                 0.000
REMARK  Name = No_2615-gen_results/8p0m/2024-11-26-14-13-15/
REMARK  0 active torsions:
REMARK  status: ('A' for Active; 'I' for Inactive)
REMARK                            x       y       z     vdW  Elec       q    Type
REMARK                         _______ _______ _______ _____ _____    ______ ____
ROOT
ATOM      1  C   UNL A   1     -10.545  -9.297  19.179  0.00  0.00    +0.042 A 
ATOM      2  C   UNL A   1      -9.810  -9.095  20.118  0.00  0.00    +0.003 A 
ATOM      3  C   UNL A   1      -8.508  -9.583  20.129  0.00  0.00    +0.000 A 
ATOM      4  C   UNL A   1      -8.007 -10.382  19.040  0.00  0.00    +0.003 A 
ATOM      5  C   UNL A   1      -8.931 -10.586  18.007  0.00  0.00    +0.042 A 
ATOM      6  C   UNL A   1     -10.157 -10.117  18.053  0.00  0.00    +0.196 A 
ATOM      7  O   UNL A   1     -11.004 -10.393  17.024  0.00  0.00    -0.287 OA
ENDROOT
TORSDOF 0
ENDMDL
ENDMDL
