REMARK  Name = No_2616-gen_results/8p0m/2024-11-26-14-13-15/
REMARK  9 active torsions:
REMARK  status: ('A' for Active; 'I' for Inactive)
REMARK    1  A    between atoms: C_3  and  C_4
REMARK    2  A    between atoms: C_6  and  C_13
REMARK    3  A    between atoms: N_15  and  C_17
REMARK    4  A    between atoms: C_18  and  C_19
REMARK    5  A    between atoms: C_20  and  C_21
REMARK    6  A    between atoms: C_21  and  N_23
REMARK    7  A    between atoms: N_23  and  C_24
REMARK    8  A    between atoms: C_25  and  C_26
REMARK    9  A    between atoms: C_27  and  C_28
REMARK                            x       y       z     vdW  Elec       q    Type
REMARK                         _______ _______ _______ _____ _____    ______ ____
ROOT
ATOM      1  C   UNL A   1     -29.062  -2.725  30.300  0.00  0.00    +0.253 C 
ATOM      2  O   UNL A   1     -29.004  -3.935  30.281  0.00  0.00    -0.270 OA
ATOM      3  N   UNL A   1     -30.156  -2.100  30.740  0.00  0.00    -0.252 N 
ATOM      4  C   UNL A   1     -31.316  -2.877  31.179  0.00  0.00    +0.120 C 
ENDROOT
BRANCH   1   8
ATOM      5  C   UNL A   1     -28.016  -0.814  28.878  0.00  0.00    +0.004 A 
ATOM      6  C   UNL A   1     -27.064  -0.119  28.608  0.00  0.00    +0.000 A 
ATOM      7  C   UNL A   1     -25.792  -0.430  29.076  0.00  0.00    +0.000 A 
ATOM      8  C   UNL A   1     -27.882  -1.899  29.863  0.00  0.00    +0.054 A 
ATOM      9  C   UNL A   1     -26.671  -2.327  30.321  0.00  0.00    +0.004 A 
ATOM     10  C   UNL A   1     -25.543  -1.585  29.932  0.00  0.00    +0.000 A 
BRANCH   7  11
ATOM     11  C   UNL A   1     -24.546   0.349  28.823  0.00  0.00    +0.000 A 
ATOM     12  C   UNL A   1     -23.241   0.022  29.332  0.00  0.00    +0.000 A 
ATOM     13  C   UNL A   1     -22.192   0.830  29.000  0.00  0.00    +0.000 A 
ATOM     14  C   UNL A   1     -22.147   1.778  28.029  0.00  0.00    +0.000 A 
ATOM     15  C   UNL A   1     -24.532   1.399  27.816  0.00  0.00    +0.000 A 
ATOM     16  C   UNL A   1     -23.362   2.069  27.461  0.00  0.00    +0.000 A 
ENDBRANCH   7  11
ENDBRANCH   1   8
BRANCH   3  17
ATOM     17  C   UNL A   1     -30.248  -0.668  30.891  0.00  0.00    +0.068 C 
ATOM     18  C   UNL A   1     -30.408  -0.270  32.282  0.00  0.00    +0.016 C 
BRANCH  18  19
ATOM     19  C   UNL A   1     -29.628  -0.669  33.130  0.00  0.00    -0.000 C 
ATOM     20  C   UNL A   1     -28.366  -1.052  33.007  0.00  0.00    +0.011 C 
BRANCH  20  21
ATOM     21  C   UNL A   1     -27.434  -1.267  34.129  0.00  0.00    +0.193 C 
ATOM     22 CL   UNL A   1     -28.189  -1.548  35.621  0.00  0.00    -0.086 Cl
BRANCH  21  23
ATOM     23  N   UNL A   1     -26.485  -0.240  34.303  0.00  0.00    -0.217 NA
BRANCH  23  24
ATOM     24  C   UNL A   1     -26.013   0.389  33.163  0.00  0.00    +0.082 C 
ATOM     25  C   UNL A   1     -25.961   1.835  33.241  0.00  0.00    +0.017 C 
BRANCH  25  26
ATOM     26  C   UNL A   1     -25.324   2.565  32.143  0.00  0.00    +0.001 C 
ATOM     27  C   UNL A   1     -25.433   3.939  32.023  0.00  0.00    +0.000 C 
BRANCH  27  28
ATOM     28  C   UNL A   1     -25.988   4.709  33.057  0.00  0.00    +0.000 C 
ATOM     29  C   UNL A   1     -26.594   4.018  34.120  0.00  0.00    +0.000 C 
ENDBRANCH  27  28
ENDBRANCH  25  26
ENDBRANCH  23  24
ENDBRANCH  21  23
ENDBRANCH  20  21
ENDBRANCH  18  19
ENDBRANCH   3  17
TORSDOF 9
