MODEL 2616
MODEL 1
REMARK VINA RESULT:    -5.390      0.000      0.000
REMARK INTER + INTRA:         -11.653
REMARK INTER:                  -8.225
REMARK INTRA:                  -3.428
REMARK UNBOUND:                -3.428
REMARK  Name = No_2616-gen_results/8p0m/2024-11-26-14-13-15/
REMARK  9 active torsions:
REMARK  status: ('A' for Active; 'I' for Inactive)
REMARK    1  A    between atoms: C_3  and  C_4
REMARK    2  A    between atoms: C_6  and  C_13
REMARK    3  A    between atoms: N_15  and  C_17
REMARK    4  A    between atoms: C_18  and  C_19
REMARK    5  A    between atoms: C_20  and  C_21
REMARK    6  A    between atoms: C_21  and  N_23
REMARK    7  A    between atoms: N_23  and  C_24
REMARK    8  A    between atoms: C_25  and  C_26
REMARK    9  A    between atoms: C_27  and  C_28
REMARK                            x       y       z     vdW  Elec       q    Type
REMARK                         _______ _______ _______ _____ _____    ______ ____
ROOT
ATOM      1  C   UNL A   1     -28.080   2.737  28.261  0.00  0.00    +0.253 C 
ATOM      2  O   UNL A   1     -28.402   3.902  28.350  0.00  0.00    -0.270 OA
ATOM      3  N   UNL A   1     -28.197   2.082  27.105  0.00  0.00    -0.252 N 
ATOM      4  C   UNL A   1     -28.749   2.761  25.932  0.00  0.00    +0.120 C 
ENDROOT
BRANCH   1   8
ATOM      5  C   UNL A   1     -28.345   1.243  30.375  0.00  0.00    +0.004 A 
ATOM      6  C   UNL A   1     -27.839   0.610  31.272  0.00  0.00    +0.000 A 
ATOM      7  C   UNL A   1     -26.485   0.732  31.562  0.00  0.00    +0.000 A 
ATOM      8  C   UNL A   1     -27.501   2.014  29.448  0.00  0.00    +0.054 A 
ATOM      9  C   UNL A   1     -26.180   2.254  29.688  0.00  0.00    +0.004 A 
ATOM     10  C   UNL A   1     -25.603   1.601  30.790  0.00  0.00    +0.000 A 
BRANCH   7  11
ATOM     11  C   UNL A   1     -25.744   0.002  32.630  0.00  0.00    +0.000 A 
ATOM     12  C   UNL A   1     -24.408  -0.517  32.512  0.00  0.00    +0.000 A 
ATOM     13  C   UNL A   1     -23.860  -1.154  33.588  0.00  0.00    +0.000 A 
ATOM     14  C   UNL A   1     -24.302  -1.148  34.872  0.00  0.00    +0.000 A 
ATOM     15  C   UNL A   1     -26.262  -0.028  33.990  0.00  0.00    +0.000 A 
ATOM     16  C   UNL A   1     -25.545  -0.592  35.043  0.00  0.00    +0.000 A 
ENDBRANCH   7  11
ENDBRANCH   1   8
BRANCH   3  17
ATOM     17  C   UNL A   1     -27.730   0.731  26.904  0.00  0.00    +0.068 C 
ATOM     18  C   UNL A   1     -26.542   0.678  26.065  0.00  0.00    +0.016 C 
BRANCH  18  19
ATOM     19  C   UNL A   1     -25.566   1.356  26.337  0.00  0.00    -0.000 C 
ATOM     20  C   UNL A   1     -24.348   1.334  25.817  0.00  0.00    +0.011 C 
BRANCH  20  21
ATOM     21  C   UNL A   1     -23.318   2.367  26.031  0.00  0.00    +0.193 C 
ATOM     22 CL   UNL A   1     -22.182   2.491  24.778  0.00  0.00    -0.086 Cl
BRANCH  21  23
ATOM     23  N   UNL A   1     -22.618   2.249  27.248  0.00  0.00    -0.217 NA
BRANCH  23  24
ATOM     24  C   UNL A   1     -22.198   0.983  27.620  0.00  0.00    +0.082 C 
ATOM     25  C   UNL A   1     -22.734   0.506  28.879  0.00  0.00    +0.017 C 
BRANCH  25  26
ATOM     26  C   UNL A   1     -22.470  -0.882  29.263  0.00  0.00    +0.001 C 
ATOM     27  C   UNL A   1     -23.454  -1.852  29.208  0.00  0.00    +0.000 C 
BRANCH  27  28
ATOM     28  C   UNL A   1     -24.688  -1.590  28.593  0.00  0.00    +0.000 C 
ATOM     29  C   UNL A   1     -25.846  -2.011  29.269  0.00  0.00    +0.000 C 
ENDBRANCH  27  28
ENDBRANCH  25  26
ENDBRANCH  23  24
ENDBRANCH  21  23
ENDBRANCH  20  21
ENDBRANCH  18  19
ENDBRANCH   3  17
TORSDOF 9
ENDMDL
ENDMDL
