REMARK  Name = No_2617-gen_results/8p0m/2024-11-26-14-13-15/
REMARK  2 active torsions:
REMARK  status: ('A' for Active; 'I' for Inactive)
REMARK    1  A    between atoms: C_3  and  C_7
REMARK    2  A    between atoms: C_9  and  C_11
REMARK                            x       y       z     vdW  Elec       q    Type
REMARK                         _______ _______ _______ _____ _____    ______ ____
ROOT
ATOM      1  C   UNL A   1     -26.441   0.088  27.247  0.00  0.00    -0.000 A 
ATOM      2  C   UNL A   1     -26.931   0.694  26.059  0.00  0.00    -0.000 A 
ATOM      3  C   UNL A   1     -25.103  -0.409  27.197  0.00  0.00    -0.000 A 
ATOM      4  C   UNL A   1     -26.334   0.388  24.858  0.00  0.00    -0.000 A 
ATOM      5  C   UNL A   1     -24.979  -0.130  24.884  0.00  0.00    -0.000 A 
ATOM      6  C   UNL A   1     -24.425  -0.466  26.035  0.00  0.00    -0.000 A 
ENDROOT
BRANCH   1   9
ATOM      7  C   UNL A   1     -28.016  -0.814  28.878  0.00  0.00    -0.000 A 
ATOM      8  C   UNL A   1     -28.469  -0.785  29.829  0.00  0.00    +0.000 A 
ATOM      9  C   UNL A   1     -27.136   0.236  28.535  0.00  0.00    -0.000 A 
ATOM     10  C   UNL A   1     -26.875   1.282  29.398  0.00  0.00    -0.000 A 
ATOM     11  C   UNL A   1     -27.507   1.238  30.630  0.00  0.00    +0.000 A 
ATOM     12  C   UNL A   1     -28.329   0.174  30.935  0.00  0.00    +0.000 A 
ENDBRANCH   1   9
BRANCH   3  13
ATOM     13  C   UNL A   1     -24.508  -0.884  28.508  0.00  0.00    -0.005 C 
ATOM     14  C   UNL A   1     -23.410  -0.054  28.965  0.00  0.00    -0.026 C 
ATOM     15  C   UNL A   1     -22.717  -0.545  30.091  0.00  0.00    +0.031 C 
ENDBRANCH   3  13
TORSDOF 2
