MODEL 2617
MODEL 1
REMARK VINA RESULT:    -7.101      0.000      0.000
REMARK INTER + INTRA:          -8.563
REMARK INTER:                  -7.932
REMARK INTRA:                  -0.632
REMARK UNBOUND:                -0.632
REMARK  Name = No_2617-gen_results/8p0m/2024-11-26-14-13-15/
REMARK  2 active torsions:
REMARK  status: ('A' for Active; 'I' for Inactive)
REMARK    1  A    between atoms: C_3  and  C_7
REMARK    2  A    between atoms: C_9  and  C_11
REMARK                            x       y       z     vdW  Elec       q    Type
REMARK                         _______ _______ _______ _____ _____    ______ ____
ROOT
ATOM      1  C   UNL A   1     -23.866  -1.200  28.750  0.00  0.00    -0.000 A 
ATOM      2  C   UNL A   1     -22.595  -1.013  29.357  0.00  0.00    -0.000 A 
ATOM      3  C   UNL A   1     -24.210  -0.286  27.708  0.00  0.00    -0.000 A 
ATOM      4  C   UNL A   1     -21.987   0.218  29.265  0.00  0.00    -0.000 A 
ATOM      5  C   UNL A   1     -22.399   1.103  28.192  0.00  0.00    -0.000 A 
ATOM      6  C   UNL A   1     -23.452   0.798  27.455  0.00  0.00    -0.000 A 
ENDROOT
BRANCH   1   9
ATOM      7  C   UNL A   1     -24.011  -3.629  28.562  0.00  0.00    -0.000 A 
ATOM      8  C   UNL A   1     -24.504  -4.537  28.768  0.00  0.00    +0.000 A 
ATOM      9  C   UNL A   1     -24.647  -2.430  28.953  0.00  0.00    -0.000 A 
ATOM     10  C   UNL A   1     -25.880  -2.427  29.574  0.00  0.00    -0.000 A 
ATOM     11  C   UNL A   1     -26.455  -3.665  29.813  0.00  0.00    +0.000 A 
ATOM     12  C   UNL A   1     -25.779  -4.810  29.446  0.00  0.00    +0.000 A 
ENDBRANCH   1   9
BRANCH   3  13
ATOM     13  C   UNL A   1     -25.475  -0.591  26.930  0.00  0.00    -0.005 C 
ATOM     14  C   UNL A   1     -25.445  -0.074  25.575  0.00  0.00    -0.026 C 
ATOM     15  C   UNL A   1     -26.657  -0.187  24.864  0.00  0.00    +0.031 C 
ENDBRANCH   3  13
TORSDOF 2
ENDMDL
ENDMDL
