MODEL 2618
MODEL 1
REMARK VINA RESULT:    -4.827      0.000      0.000
REMARK INTER + INTRA:          -5.165
REMARK INTER:                  -5.109
REMARK INTRA:                  -0.056
REMARK UNBOUND:                -0.056
REMARK  Name = No_2618-gen_results/8p0m/2024-11-26-14-13-15/
REMARK  1 active torsions:
REMARK  status: ('A' for Active; 'I' for Inactive)
REMARK    1  A    between atoms: C_1  and  C_8
REMARK                            x       y       z     vdW  Elec       q    Type
REMARK                         _______ _______ _______ _____ _____    ______ ____
ROOT
ATOM      1  C   UNL A   1     -23.972  -1.494  28.644  0.00  0.00    +0.001 C 
ATOM      2  C   UNL A   1     -24.493  -2.562  28.864  0.00  0.00    -0.046 C 
ATOM      3  C   UNL A   1     -24.002  -3.750  28.652  0.00  0.00    +0.022 C 
ATOM      4  C   UNL A   1     -24.674  -5.041  28.941  0.00  0.00    +0.004 C 
ATOM      5  C   UNL A   1     -25.958  -4.964  29.550  0.00  0.00    +0.001 C 
ATOM      6  C   UNL A   1     -26.454  -3.716  29.829  0.00  0.00    +0.004 C 
ATOM      7  C   UNL A   1     -25.802  -2.560  29.563  0.00  0.00    +0.022 C 
ENDROOT
BRANCH   1   8
ATOM      8  C   UNL A   1     -22.973  -0.972  29.686  0.00  0.00    +0.208 C 
ATOM      9  O   UNL A   1     -21.954  -0.852  29.414  0.00  0.00    -0.215 OA
ENDBRANCH   1   8
TORSDOF 1
ENDMDL
ENDMDL
