REMARK  Name = No_2618-gen_results/8p0m/2024-11-26-14-13-15/
REMARK  1 active torsions:
REMARK  status: ('A' for Active; 'I' for Inactive)
REMARK    1  A    between atoms: C_1  and  C_8
REMARK                            x       y       z     vdW  Elec       q    Type
REMARK                         _______ _______ _______ _____ _____    ______ ____
ROOT
ATOM      1  C   UNL A   1     -28.016  -0.814  28.878  0.00  0.00    +0.001 C 
ATOM      2  C   UNL A   1     -27.064  -0.119  28.608  0.00  0.00    -0.046 C 
ATOM      3  C   UNL A   1     -26.876   1.133  28.913  0.00  0.00    +0.022 C 
ATOM      4  C   UNL A   1     -25.688   1.952  28.567  0.00  0.00    +0.004 C 
ATOM      5  C   UNL A   1     -24.639   1.283  27.875  0.00  0.00    +0.001 C 
ATOM      6  C   UNL A   1     -24.807  -0.051  27.604  0.00  0.00    +0.004 C 
ATOM      7  C   UNL A   1     -25.902  -0.767  27.951  0.00  0.00    +0.022 C 
ENDROOT
BRANCH   1   8
ATOM      8  C   UNL A   1     -28.061  -1.429  30.283  0.00  0.00    +0.208 C 
ATOM      9  O   UNL A   1     -27.189  -1.889  30.677  0.00  0.00    -0.215 OA
ENDBRANCH   1   8
TORSDOF 1
