REMARK  Name = No_2619-gen_results/8p0m/2024-11-26-14-13-15/
REMARK  0 active torsions:
REMARK  status: ('A' for Active; 'I' for Inactive)
REMARK                            x       y       z     vdW  Elec       q    Type
REMARK                         _______ _______ _______ _____ _____    ______ ____
ROOT
ATOM      1  C   UNL A   1     -28.016  -0.814  28.878  0.00  0.00    +0.030 C 
ATOM      2  C   UNL A   1     -27.064  -0.119  28.608  0.00  0.00    +0.033 C 
ATOM      3  C   UNL A   1     -25.792  -0.430  29.076  0.00  0.00    +0.005 C 
ATOM      4  C   UNL A   1     -25.531  -1.588  29.610  0.00  0.00    +0.001 C 
ATOM      5  C   UNL A   1     -29.308  -0.213  28.867  0.00  0.00    +0.125 C 
ATOM      6  C   UNL A   1     -26.632  -2.423  29.975  0.00  0.00    +0.005 C 
ATOM      7  C   UNL A   1     -27.837  -1.970  29.654  0.00  0.00    +0.033 C 
ATOM      8  O   UNL A   1     -29.629   0.860  29.253  0.00  0.00    -0.232 OA
ENDROOT
TORSDOF 0
