MODEL 2619
MODEL 1
REMARK VINA RESULT:    -4.994      0.000      0.000
REMARK INTER + INTRA:          -4.994
REMARK INTER:                  -4.994
REMARK INTRA:                   0.000
REMARK UNBOUND:                 0.000
REMARK  Name = No_2619-gen_results/8p0m/2024-11-26-14-13-15/
REMARK  0 active torsions:
REMARK  status: ('A' for Active; 'I' for Inactive)
REMARK                            x       y       z     vdW  Elec       q    Type
REMARK                         _______ _______ _______ _____ _____    ______ ____
ROOT
ATOM      1  C   UNL A   1      -8.122  -9.688  19.780  0.00  0.00    +0.030 C 
ATOM      2  C   UNL A   1      -7.957 -10.443  18.850  0.00  0.00    +0.033 C 
ATOM      3  C   UNL A   1      -9.013 -10.802  18.020  0.00  0.00    +0.005 C 
ATOM      4  C   UNL A   1     -10.149 -10.169  18.057  0.00  0.00    +0.001 C 
ATOM      5  C   UNL A   1      -7.220  -9.773  20.880  0.00  0.00    +0.125 C 
ATOM      6  C   UNL A   1     -10.395  -9.294  19.160  0.00  0.00    +0.005 C 
ATOM      7  C   UNL A   1      -9.393  -9.141  20.016  0.00  0.00    +0.033 C 
ATOM      8  O   UNL A   1      -6.756 -10.739  21.385  0.00  0.00    -0.232 OA
ENDROOT
TORSDOF 0
ENDMDL
ENDMDL
