MODEL 261
MODEL 1
REMARK VINA RESULT:    -5.899      0.000      0.000
REMARK INTER + INTRA:          -7.408
REMARK INTER:                  -6.933
REMARK INTRA:                  -0.475
REMARK UNBOUND:                -0.475
REMARK  Name = No_261-gen_results/8p0m/2024-11-26-14-13-15/
REMARK  3 active torsions:
REMARK  status: ('A' for Active; 'I' for Inactive)
REMARK    1  A    between atoms: C_3  and  C_8
REMARK    2  A    between atoms: C_9  and  C_10
REMARK    3  A    between atoms: C_11  and  C_12
REMARK                            x       y       z     vdW  Elec       q    Type
REMARK                         _______ _______ _______ _____ _____    ______ ____
ROOT
ATOM      1  C   UNL A   1     -24.971  -5.213  28.951  0.00  0.00    +0.001 A 
ATOM      2  C   UNL A   1     -24.134  -4.347  28.852  0.00  0.00    +0.000 A 
ATOM      3  C   UNL A   1     -24.322  -3.015  29.182  0.00  0.00    +0.001 A 
ATOM      4  C   UNL A   1     -25.596  -2.651  29.707  0.00  0.00    +0.011 A 
ATOM      5  C   UNL A   1     -26.452  -3.656  29.955  0.00  0.00    +0.058 A 
ATOM      6  C   UNL A   1     -26.172  -4.890  29.652  0.00  0.00    +0.011 A 
ATOM      7 CL   UNL A   1     -27.953  -3.199  30.632  0.00  0.00    -0.082 Cl
ENDROOT
BRANCH   3   8
ATOM      8  C   UNL A   1     -23.295  -1.936  28.893  0.00  0.00    +0.000 C 
ATOM      9  C   UNL A   1     -23.884  -0.726  28.810  0.00  0.00    +0.000 C 
BRANCH   9  10
ATOM     10  C   UNL A   1     -22.984   0.429  28.403  0.00  0.00    +0.000 C 
ATOM     11  C   UNL A   1     -23.318   1.132  27.193  0.00  0.00    +0.000 C 
BRANCH  11  12
ATOM     12  C   UNL A   1     -24.512   0.914  26.518  0.00  0.00    +0.000 C 
ATOM     13  C   UNL A   1     -24.506   0.743  25.139  0.00  0.00    +0.000 C 
ENDBRANCH  11  12
ENDBRANCH   9  10
ENDBRANCH   3   8
TORSDOF 3
ENDMDL
ENDMDL
