REMARK  Name = No_262-gen_results/8p0m/2024-11-26-14-13-15/
REMARK  2 active torsions:
REMARK  status: ('A' for Active; 'I' for Inactive)
REMARK    1  A    between atoms: C_2  and  N_7
REMARK    2  A    between atoms: C_8  and  C_10
REMARK                            x       y       z     vdW  Elec       q    Type
REMARK                         _______ _______ _______ _____ _____    ______ ____
ROOT
ATOM      1  C   UNL A   1     -28.016  -0.814  28.878  0.00  0.00    +0.017 A 
ATOM      2  C   UNL A   1     -28.469  -0.785  29.829  0.00  0.00    +0.073 A 
ATOM      3  C   UNL A   1     -26.504  -0.778  28.877  0.00  0.00    +0.001 A 
ATOM      4  C   UNL A   1     -25.810  -0.853  30.103  0.00  0.00    +0.000 A 
ATOM      5  C   UNL A   1     -27.991  -0.892  31.226  0.00  0.00    +0.017 A 
ATOM      6  C   UNL A   1     -26.604  -0.868  31.265  0.00  0.00    +0.001 A 
ENDROOT
BRANCH   2   7
ATOM      7  N   UNL A   1     -29.977  -0.829  29.850  0.00  0.00    -0.178 NA
ATOM      8  C   UNL A   1     -30.579  -0.123  28.982  0.00  0.00    +0.256 C 
ATOM      9  O   UNL A   1     -30.043   0.577  28.296  0.00  0.00    -0.272 OA
BRANCH   8  10
ATOM     10  C   UNL A   1     -32.082  -0.380  28.996  0.00  0.00    +0.135 C 
ATOM     11 BR   UNL A   1     -33.028  -1.653  29.299  0.00  0.00    -0.072 Br
ATOM     12  C   UNL A   1     -32.650   0.402  27.685  0.00  0.00    +0.022 C 
ENDBRANCH   8  10
ENDBRANCH   2   7
TORSDOF 2
