REMARK  Name = No_2620-gen_results/8p0m/2024-11-26-14-13-15/
REMARK  3 active torsions:
REMARK  status: ('A' for Active; 'I' for Inactive)
REMARK    1  A    between atoms: C_1  and  C_2
REMARK    2  A    between atoms: C_1  and  N_8
REMARK    3  A    between atoms: N_8  and  C_9
REMARK                            x       y       z     vdW  Elec       q    Type
REMARK                         _______ _______ _______ _____ _____    ______ ____
ROOT
ATOM      1  C   UNL A   1     -28.016  -0.814  28.878  0.00  0.00    +0.139 C 
ENDROOT
BRANCH   1   2
ATOM      2  C   UNL A   1     -27.064  -0.119  28.608  0.00  0.00    -0.001 A 
ATOM      3  C   UNL A   1     -27.001   0.691  27.491  0.00  0.00    -0.003 A 
ATOM      4  C   UNL A   1     -25.855   1.482  27.083  0.00  0.00    -0.000 A 
ATOM      5  C   UNL A   1     -24.690   1.453  27.881  0.00  0.00    -0.000 A 
ATOM      6  C   UNL A   1     -24.738   0.601  29.042  0.00  0.00    -0.000 A 
ATOM      7  C   UNL A   1     -25.823  -0.169  29.389  0.00  0.00    -0.003 A 
ENDBRANCH   1   2
BRANCH   1   8
ATOM      8  N   UNL A   1     -27.952  -1.629  30.064  0.00  0.00    -0.233 NA
BRANCH   8   9
ATOM      9  C   UNL A   1     -29.036  -2.369  30.486  0.00  0.00    +0.066 A 
ATOM     10  C   UNL A   1     -28.728  -3.634  31.233  0.00  0.00    +0.016 A 
ATOM     11  C   UNL A   1     -29.663  -4.018  32.069  0.00  0.00    +0.001 A 
ATOM     12  C   UNL A   1     -30.941  -3.434  32.154  0.00  0.00    +0.000 A 
ATOM     13  C   UNL A   1     -31.174  -2.245  31.531  0.00  0.00    +0.001 A 
ATOM     14  C   UNL A   1     -30.119  -1.637  30.785  0.00  0.00    +0.016 A 
ENDBRANCH   8   9
ENDBRANCH   1   8
TORSDOF 3
