REMARK  Name = No_2621-gen_results/8p0m/2024-11-26-14-13-15/
REMARK  1 active torsions:
REMARK  status: ('A' for Active; 'I' for Inactive)
REMARK    1  A    between atoms: C_4  and  C_5
REMARK                            x       y       z     vdW  Elec       q    Type
REMARK                         _______ _______ _______ _____ _____    ______ ____
ROOT
ATOM      1  C   UNL A   1     -28.016  -0.814  28.878  0.00  0.00    -0.000 A 
ATOM      2  C   UNL A   1     -28.469  -0.785  29.829  0.00  0.00    -0.000 A 
ATOM      3  C   UNL A   1     -28.182   0.428  28.113  0.00  0.00    -0.000 A 
ATOM      4  C   UNL A   1     -27.450   0.643  26.850  0.00  0.00    -0.004 A 
ATOM      5  C   UNL A   1     -29.520   0.078  30.337  0.00  0.00    -0.000 A 
ATOM      6  C   UNL A   1     -29.143   1.301  28.490  0.00  0.00    -0.000 A 
ATOM      7  C   UNL A   1     -29.779   1.147  29.641  0.00  0.00    -0.000 A 
ATOM      8  C   UNL A   1     -28.076   1.412  25.851  0.00  0.00    -0.022 A 
ATOM      9  C   UNL A   1     -28.195   0.801  24.579  0.00  0.00    +0.031 C 
ATOM     10  C   UNL A   1     -29.385   2.045  26.220  0.00  0.00    -0.004 A 
ATOM     11  C   UNL A   1     -29.622   2.181  27.482  0.00  0.00    -0.000 A 
ENDROOT
BRANCH   4  12
ATOM     12  C   UNL A   1     -26.181   0.036  26.715  0.00  0.00    -0.000 C 
ATOM     13  C   UNL A   1     -25.299   0.187  27.550  0.00  0.00    -0.000 C 
ATOM     14  C   UNL A   1     -23.903   0.211  27.289  0.00  0.00    -0.000 C 
ATOM     15  C   UNL A   1     -23.035   0.110  28.507  0.00  0.00    -0.000 C 
ATOM     16  C   UNL A   1     -23.616  -0.134  29.756  0.00  0.00    -0.000 C 
ATOM     17  C   UNL A   1     -25.403  -0.163  29.065  0.00  0.00    -0.000 C 
ENDBRANCH   4  12
TORSDOF 1
