MODEL 2621
MODEL 1
REMARK VINA RESULT:    -7.879      0.000      0.000
REMARK INTER + INTRA:          -8.557
REMARK INTER:                  -8.340
REMARK INTRA:                  -0.217
REMARK UNBOUND:                -0.217
REMARK  Name = No_2621-gen_results/8p0m/2024-11-26-14-13-15/
REMARK  1 active torsions:
REMARK  status: ('A' for Active; 'I' for Inactive)
REMARK    1  A    between atoms: C_4  and  C_5
REMARK                            x       y       z     vdW  Elec       q    Type
REMARK                         _______ _______ _______ _____ _____    ______ ____
ROOT
ATOM      1  C   UNL A   1     -25.271  -0.714  26.804  0.00  0.00    -0.000 A 
ATOM      2  C   UNL A   1     -25.796  -0.283  25.998  0.00  0.00    -0.000 A 
ATOM      3  C   UNL A   1     -24.283   0.188  27.408  0.00  0.00    -0.000 A 
ATOM      4  C   UNL A   1     -23.599  -0.171  28.665  0.00  0.00    -0.004 A 
ATOM      5  C   UNL A   1     -25.454   0.854  25.162  0.00  0.00    -0.000 A 
ATOM      6  C   UNL A   1     -23.880   1.273  26.710  0.00  0.00    -0.000 A 
ATOM      7  C   UNL A   1     -24.511   1.634  25.603  0.00  0.00    -0.000 A 
ATOM      8  C   UNL A   1     -22.278   0.282  28.847  0.00  0.00    -0.022 A 
ATOM      9  C   UNL A   1     -21.315  -0.713  29.143  0.00  0.00    +0.031 C 
ATOM     10  C   UNL A   1     -21.736   1.196  27.788  0.00  0.00    -0.004 A 
ATOM     11  C   UNL A   1     -22.607   1.803  27.053  0.00  0.00    -0.000 A 
ENDROOT
BRANCH   4  12
ATOM     12  C   UNL A   1     -24.304  -0.973  29.591  0.00  0.00    -0.000 C 
ATOM     13  C   UNL A   1     -24.680  -2.104  29.313  0.00  0.00    -0.000 C 
ATOM     14  C   UNL A   1     -25.851  -2.736  29.809  0.00  0.00    -0.000 C 
ATOM     15  C   UNL A   1     -25.924  -4.212  29.554  0.00  0.00    -0.000 C 
ATOM     16  C   UNL A   1     -24.826  -4.876  28.997  0.00  0.00    -0.000 C 
ATOM     17  C   UNL A   1     -23.771  -3.283  28.851  0.00  0.00    -0.000 C 
ENDBRANCH   4  12
TORSDOF 1
ENDMDL
ENDMDL
