REMARK  Name = No_2622-gen_results/8p0m/2024-11-26-14-13-15/
REMARK  5 active torsions:
REMARK  status: ('A' for Active; 'I' for Inactive)
REMARK    1  A    between atoms: C_3  and  C_4
REMARK    2  A    between atoms: C_7  and  O_13
REMARK    3  A    between atoms: O_13  and  C_14
REMARK    4  A    between atoms: C_14  and  C_15
REMARK    5  A    between atoms: C_14  and  C_23
REMARK                            x       y       z     vdW  Elec       q    Type
REMARK                         _______ _______ _______ _____ _____    ______ ____
ROOT
ATOM      1  C   UNL A   1     -30.120  -2.088  30.604  0.00  0.00    +0.264 C 
ENDROOT
BRANCH   1   2
ATOM      2  C   UNL A   1     -31.168  -2.768  30.148  0.00  0.00    +0.270 C 
ATOM      3  O   UNL A   1     -31.141  -3.902  29.924  0.00  0.00    -0.271 OA
ATOM      4  N   UNL A   1     -32.179  -2.038  29.409  0.00  0.00    -0.276 N 
ATOM      5  C   UNL A   1     -33.230  -2.641  28.686  0.00  0.00    +0.093 C 
ATOM      6  C   UNL A   1     -31.699  -0.783  28.811  0.00  0.00    +0.093 C 
ATOM      7  C   UNL A   1     -32.291  -0.445  27.680  0.00  0.00    +0.022 C 
ATOM      8  C   UNL A   1     -33.421  -1.171  27.379  0.00  0.00    +0.004 C 
ATOM      9  C   UNL A   1     -33.895  -2.204  27.731  0.00  0.00    +0.022 C 
ENDBRANCH   1   2
BRANCH   1  10
ATOM     10  C   UNL A   1     -30.208  -2.004  32.175  0.00  0.00    +0.026 A 
ATOM     11  C   UNL A   1     -31.222  -1.518  32.691  0.00  0.00    -0.000 A 
ATOM     12  C   UNL A   1     -31.307  -1.504  34.045  0.00  0.00    -0.000 A 
ATOM     13  C   UNL A   1     -30.226  -1.799  34.862  0.00  0.00    -0.000 A 
ATOM     14  C   UNL A   1     -29.031  -2.249  34.283  0.00  0.00    -0.000 A 
ATOM     15  C   UNL A   1     -28.956  -2.329  32.869  0.00  0.00    -0.000 A 
ENDBRANCH   1  10
BRANCH   1  16
ATOM     16  O   UNL A   1     -28.973  -2.652  30.241  0.00  0.00    -0.466 OA
BRANCH  16  20
ATOM     17  C   UNL A   1     -28.016  -0.814  28.878  0.00  0.00    +0.037 A 
ATOM     18  C   UNL A   1     -27.064  -0.119  28.608  0.00  0.00    +0.003 A 
ATOM     19  C   UNL A   1     -25.792  -0.430  29.076  0.00  0.00    +0.000 A 
ATOM     20  C   UNL A   1     -27.905  -1.898  29.873  0.00  0.00    +0.140 A 
ATOM     21  C   UNL A   1     -26.680  -2.314  30.318  0.00  0.00    +0.037 A 
ATOM     22  C   UNL A   1     -25.520  -1.556  29.977  0.00  0.00    +0.003 A 
BRANCH  19  23
ATOM     23  C   UNL A   1     -24.546   0.349  28.823  0.00  0.00    +0.000 A 
ATOM     24  C   UNL A   1     -23.241   0.022  29.332  0.00  0.00    +0.000 A 
ATOM     25  C   UNL A   1     -22.136   0.769  29.006  0.00  0.00    +0.000 A 
ATOM     26  C   UNL A   1     -22.116   1.734  28.026  0.00  0.00    +0.000 A 
ATOM     27  C   UNL A   1     -24.522   1.391  27.791  0.00  0.00    +0.000 A 
ATOM     28  C   UNL A   1     -23.325   2.052  27.447  0.00  0.00    +0.000 A 
ENDBRANCH  19  23
ENDBRANCH  16  20
ENDBRANCH   1  16
TORSDOF 5
