MODEL 2622
MODEL 1
REMARK VINA RESULT:    -7.949      0.000      0.000
REMARK INTER + INTRA:         -11.698
REMARK INTER:                 -10.272
REMARK INTRA:                  -1.426
REMARK UNBOUND:                -1.426
REMARK  Name = No_2622-gen_results/8p0m/2024-11-26-14-13-15/
REMARK  5 active torsions:
REMARK  status: ('A' for Active; 'I' for Inactive)
REMARK    1  A    between atoms: C_3  and  C_4
REMARK    2  A    between atoms: C_7  and  O_13
REMARK    3  A    between atoms: O_13  and  C_14
REMARK    4  A    between atoms: C_14  and  C_15
REMARK    5  A    between atoms: C_14  and  C_23
REMARK                            x       y       z     vdW  Elec       q    Type
REMARK                         _______ _______ _______ _____ _____    ______ ____
ROOT
ATOM      1  C   UNL A   1     -24.646  -1.067  29.454  0.00  0.00    +0.264 C 
ENDROOT
BRANCH   1   2
ATOM      2  C   UNL A   1     -24.174  -0.623  28.293  0.00  0.00    +0.270 C 
ATOM      3  O   UNL A   1     -23.152  -0.094  28.183  0.00  0.00    -0.271 OA
ATOM      4  N   UNL A   1     -25.131  -0.295  27.255  0.00  0.00    -0.276 N 
ATOM      5  C   UNL A   1     -24.810   0.380  26.058  0.00  0.00    +0.093 C 
ATOM      6  C   UNL A   1     -26.482   0.004  27.754  0.00  0.00    +0.093 C 
ATOM      7  C   UNL A   1     -27.157   0.882  27.035  0.00  0.00    +0.022 C 
ATOM      8  C   UNL A   1     -26.601   1.178  25.811  0.00  0.00    +0.004 C 
ATOM      9  C   UNL A   1     -25.533   1.051  25.302  0.00  0.00    +0.022 C 
ENDBRANCH   1   2
BRANCH   1  10
ATOM     10  C   UNL A   1     -24.838  -2.629  29.366  0.00  0.00    +0.026 A 
ATOM     11  C   UNL A   1     -23.983  -3.303  28.780  0.00  0.00    -0.000 A 
ATOM     12  C   UNL A   1     -24.134  -4.652  28.761  0.00  0.00    -0.000 A 
ATOM     13  C   UNL A   1     -25.304  -5.276  29.168  0.00  0.00    -0.000 A 
ATOM     14  C   UNL A   1     -26.329  -4.507  29.736  0.00  0.00    -0.000 A 
ATOM     15  C   UNL A   1     -26.151  -3.102  29.820  0.00  0.00    -0.000 A 
ENDBRANCH   1  10
BRANCH   1  16
ATOM     16  O   UNL A   1     -23.834  -0.764  30.462  0.00  0.00    -0.466 OA
BRANCH  16  20
ATOM     17  C   UNL A   1     -25.547  -0.138  32.143  0.00  0.00    +0.037 A 
ATOM     18  C   UNL A   1     -25.947  -0.208  33.282  0.00  0.00    +0.003 A 
ATOM     19  C   UNL A   1     -25.143  -0.719  34.296  0.00  0.00    +0.000 A 
ATOM     20  C   UNL A   1     -24.275  -0.773  31.746  0.00  0.00    +0.140 A 
ATOM     21  C   UNL A   1     -23.396  -1.226  32.692  0.00  0.00    +0.037 A 
ATOM     22  C   UNL A   1     -23.806  -1.273  34.058  0.00  0.00    +0.003 A 
BRANCH  19  23
ATOM     23  C   UNL A   1     -25.523  -0.867  35.730  0.00  0.00    +0.000 A 
ATOM     24  C   UNL A   1     -26.782  -1.370  36.211  0.00  0.00    +0.000 A 
ATOM     25  C   UNL A   1     -27.028  -1.520  37.554  0.00  0.00    +0.000 A 
ATOM     26  C   UNL A   1     -26.066  -1.422  38.533  0.00  0.00    +0.000 A 
ATOM     27  C   UNL A   1     -24.506  -0.747  36.780  0.00  0.00    +0.000 A 
ATOM     28  C   UNL A   1     -24.816  -1.007  38.131  0.00  0.00    +0.000 A 
ENDBRANCH  19  23
ENDBRANCH  16  20
ENDBRANCH   1  16
TORSDOF 5
ENDMDL
ENDMDL
