MODEL 2623
MODEL 1
REMARK VINA RESULT:    -7.272      0.000      0.000
REMARK INTER + INTRA:         -15.192
REMARK INTER:                 -11.523
REMARK INTRA:                  -3.668
REMARK UNBOUND:                -3.668
REMARK  Name = No_2623-gen_results/8p0m/2024-11-26-14-13-15/
REMARK  10 active torsions:
REMARK  status: ('A' for Active; 'I' for Inactive)
REMARK    1  A    between atoms: C_2  and  C_22
REMARK    2  A    between atoms: C_3  and  C_7
REMARK    3  A    between atoms: C_7  and  C_8
REMARK    4  A    between atoms: C_7  and  C_14
REMARK    5  A    between atoms: C_10  and  C_18
REMARK    6  A    between atoms: C_22  and  O_23
REMARK    7  A    between atoms: O_23  and  C_24
REMARK    8  A    between atoms: C_25  and  C_28
REMARK    9  A    between atoms: C_28  and  C_29
REMARK   10  A    between atoms: C_32  and  C_34
REMARK                            x       y       z     vdW  Elec       q    Type
REMARK                         _______ _______ _______ _____ _____    ______ ____
ROOT
ATOM      1  C   UNL A   1     -12.478   1.972  36.726  0.00  0.00    -0.005 A 
ATOM      2  C   UNL A   1     -13.010   2.359  37.549  0.00  0.00    +0.007 A 
ATOM      3  C   UNL A   1     -13.043   2.362  35.428  0.00  0.00    -0.011 A 
ATOM      4  C   UNL A   1     -14.217   2.986  35.317  0.00  0.00    -0.004 A 
ATOM      5  C   UNL A   1     -14.283   3.026  37.677  0.00  0.00    -0.002 A 
ATOM      6  C   UNL A   1     -14.804   3.357  36.461  0.00  0.00    -0.001 A 
ENDROOT
BRANCH   3   7
ATOM      7  C   UNL A   1     -12.259   1.924  34.194  0.00  0.00    +0.140 C 
BRANCH   7   8
ATOM      8  C   UNL A   1     -10.825   1.889  34.275  0.00  0.00    -0.010 A 
ATOM      9  C   UNL A   1     -10.080   0.749  34.670  0.00  0.00    +0.000 A 
ATOM     10  C   UNL A   1      -8.729   0.842  34.895  0.00  0.00    +0.071 A 
ATOM     11  C   UNL A   1      -8.167   2.083  35.180  0.00  0.00    +0.004 A 
ATOM     12  C   UNL A   1      -8.922   3.248  35.067  0.00  0.00    -0.000 A 
ATOM     13  C   UNL A   1     -10.227   3.185  34.648  0.00  0.00    -0.004 A 
BRANCH  10  14
ATOM     14  C   UNL A   1      -7.919  -0.357  35.185  0.00  0.00    +0.419 C 
ATOM     15  F   UNL A   1      -8.321  -1.235  35.769  0.00  0.00    -0.166 F 
ATOM     16  F   UNL A   1      -6.676   0.097  35.705  0.00  0.00    -0.166 F 
ATOM     17  F   UNL A   1      -7.593  -0.818  33.909  0.00  0.00    -0.166 F 
ENDBRANCH  10  14
ENDBRANCH   7   8
BRANCH   7  18
ATOM     18  C   UNL A   1     -12.932   1.313  33.170  0.00  0.00    +0.405 C 
ATOM     19  F   UNL A   1     -13.680   2.149  32.460  0.00  0.00    -0.169 F 
ATOM     20  F   UNL A   1     -13.650   0.279  33.600  0.00  0.00    -0.169 F 
ATOM     21  F   UNL A   1     -12.024   0.822  32.242  0.00  0.00    -0.169 F 
ENDBRANCH   7  18
ENDBRANCH   3   7
BRANCH   2  22
ATOM     22  C   UNL A   1     -12.423   2.046  39.056  0.00  0.00    +0.169 C 
BRANCH  22  23
ATOM     23  O   UNL A   1     -12.647   0.910  39.468  0.00  0.00    -0.347 OA
BRANCH  23  24
ATOM     24  C   UNL A   1     -11.783  -0.016  39.417  0.00  0.00    +0.160 C 
ATOM     25  C   UNL A   1     -12.088  -1.023  40.375  0.00  0.00    +0.204 C 
ATOM     26  O   UNL A   1     -12.188  -2.165  39.962  0.00  0.00    -0.473 OA
ATOM     27  C   UNL A   1     -12.052  -2.514  38.815  0.00  0.00    +0.168 C 
ATOM     28  C   UNL A   1     -11.446  -1.877  37.813  0.00  0.00    +0.016 C 
ATOM     29  C   UNL A   1     -10.896  -0.754  38.262  0.00  0.00    +0.056 C 
BRANCH  29  30
ATOM     30  C   UNL A   1      -9.475  -0.556  38.630  0.00  0.00    +0.007 C 
ATOM     31  C   UNL A   1      -9.046   0.738  38.599  0.00  0.00    +0.000 C 
ENDBRANCH  29  30
BRANCH  25  32
ATOM     32  C   UNL A   1     -12.310  -0.684  41.709  0.00  0.00    +0.160 C 
BRANCH  32  33
ATOM     33  C   UNL A   1     -11.252  -0.891  42.628  0.00  0.00    +0.369 C 
ATOM     34  O   UNL A   1     -11.640  -1.111  43.830  0.00  0.00    -0.245 OA
ATOM     35  O   UNL A   1     -10.105  -0.719  42.372  0.00  0.00    -0.245 OA
ENDBRANCH  32  33
ENDBRANCH  25  32
ENDBRANCH  23  24
ENDBRANCH  22  23
ENDBRANCH   2  22
TORSDOF 10
ENDMDL
ENDMDL
