REMARK  Name = No_2624-gen_results/8p0m/2024-11-26-14-13-15/
REMARK  7 active torsions:
REMARK  status: ('A' for Active; 'I' for Inactive)
REMARK    1  A    between atoms: C_3  and  C_8
REMARK    2  A    between atoms: N_4  and  C_20
REMARK    3  A    between atoms: C_8  and  C_9
REMARK    4  A    between atoms: C_11  and  C_15
REMARK    5  A    between atoms: C_19  and  C_25
REMARK    6  A    between atoms: C_20  and  C_21
REMARK    7  A    between atoms: C_21  and  C_22
REMARK                            x       y       z     vdW  Elec       q    Type
REMARK                         _______ _______ _______ _____ _____    ______ ____
ROOT
ATOM      1  C   UNL A   1     -27.930   1.022  27.532  0.00  0.00    +0.181 C 
ATOM      2  O   UNL A   1     -28.675   1.416  26.607  0.00  0.00    -0.291 OA
ENDROOT
BRANCH   1   5
ATOM      3  O   UNL A   1     -28.123  -1.335  28.487  0.00  0.00    -0.274 OA
ATOM      4  C   UNL A   1     -28.521  -0.436  29.078  0.00  0.00    +0.233 C 
ATOM      5  C   UNL A   1     -28.589   0.592  28.946  0.00  0.00    +0.138 C 
ATOM      6  N   UNL A   1     -29.125  -0.940  30.427  0.00  0.00    -0.279 N 
ATOM      7  C   UNL A   1     -29.296   1.637  29.434  0.00  0.00    +0.019 C 
ATOM      8  C   UNL A   1     -29.800   0.014  31.159  0.00  0.00    +0.093 C 
ATOM      9  C   UNL A   1     -29.882   1.288  30.746  0.00  0.00    +0.022 C 
BRANCH   6  10
ATOM     10  C   UNL A   1     -28.967  -2.301  30.909  0.00  0.00    +0.105 C 
BRANCH  10  11
ATOM     11  C   UNL A   1     -29.660  -3.190  30.122  0.00  0.00    +0.136 C 
BRANCH  11  12
ATOM     12  C   UNL A   1     -31.014  -3.221  30.262  0.00  0.00    +0.367 C 
ATOM     13  O   UNL A   1     -31.378  -3.546  31.220  0.00  0.00    -0.246 OA
ATOM     14  O   UNL A   1     -31.694  -2.896  29.232  0.00  0.00    -0.246 OA
ENDBRANCH  11  12
ENDBRANCH  10  11
ENDBRANCH   6  10
ENDBRANCH   1   5
BRANCH   1  15
ATOM     15  C   UNL A   1     -26.491   0.890  27.480  0.00  0.00    +0.035 A 
ATOM     16  C   UNL A   1     -25.824   0.492  28.379  0.00  0.00    +0.003 A 
ATOM     17  C   UNL A   1     -24.322   0.434  28.279  0.00  0.00    -0.003 A 
ATOM     18  C   UNL A   1     -23.762   0.962  27.129  0.00  0.00    -0.000 A 
ATOM     19  C   UNL A   1     -24.555   1.459  26.114  0.00  0.00    +0.000 A 
ATOM     20  C   UNL A   1     -25.943   1.498  26.262  0.00  0.00    +0.003 A 
BRANCH  17  21
ATOM     21  C   UNL A   1     -23.457  -0.077  29.337  0.00  0.00    -0.008 C 
ATOM     22  C   UNL A   1     -22.271  -0.387  29.144  0.00  0.00    -0.004 C 
ATOM     23  C   UNL A   1     -21.513  -0.997  30.225  0.00  0.00    -0.004 C 
ATOM     24  C   UNL A   1     -22.220  -1.134  31.386  0.00  0.00    -0.011 C 
ATOM     25  C   UNL A   1     -23.865  -0.441  30.693  0.00  0.00    +0.147 C 
BRANCH  25  26
ATOM     26  C   UNL A   1     -24.929  -0.400  31.505  0.00  0.00    +0.372 C 
ATOM     27  O   UNL A   1     -25.689  -1.406  31.509  0.00  0.00    -0.245 OA
ATOM     28  O   UNL A   1     -25.280   0.765  32.031  0.00  0.00    -0.245 OA
ENDBRANCH  25  26
ENDBRANCH  17  21
ENDBRANCH   1  15
TORSDOF 7
