MODEL 2625
MODEL 1
REMARK VINA RESULT:    -6.188      0.000      0.000
REMARK INTER + INTRA:          -7.799
REMARK INTER:                  -6.912
REMARK INTRA:                  -0.888
REMARK UNBOUND:                -0.888
REMARK  Name = No_2625-gen_results/8p0m/2024-11-26-14-13-15/
REMARK  2 active torsions:
REMARK  status: ('A' for Active; 'I' for Inactive)
REMARK    1  A    between atoms: C_3  and  C_7
REMARK    2  A    between atoms: C_4  and  C_13
REMARK                            x       y       z     vdW  Elec       q    Type
REMARK                         _______ _______ _______ _____ _____    ______ ____
ROOT
ATOM      1  C   UNL A   1     -23.424   0.008  31.342  0.00  0.00    -0.000 A 
ATOM      2  C   UNL A   1     -23.731  -1.039  30.820  0.00  0.00    -0.000 A 
ATOM      3  C   UNL A   1     -24.504  -1.165  29.678  0.00  0.00    -0.004 A 
ATOM      4  C   UNL A   1     -24.945   0.041  29.058  0.00  0.00    -0.022 A 
ATOM      5  C   UNL A   1     -24.460   1.187  29.563  0.00  0.00    -0.004 A 
ATOM      6  C   UNL A   1     -23.699   1.208  30.618  0.00  0.00    -0.000 A 
ENDROOT
BRANCH   3   7
ATOM      7  C   UNL A   1     -24.975  -2.494  29.149  0.00  0.00    -0.000 A 
ATOM      8  C   UNL A   1     -24.112  -3.387  28.634  0.00  0.00    -0.000 A 
ATOM      9  C   UNL A   1     -24.009  -4.414  28.538  0.00  0.00    -0.000 A 
ATOM     10  C   UNL A   1     -25.235  -5.238  29.059  0.00  0.00    -0.000 A 
ATOM     11  C   UNL A   1     -26.206  -4.462  29.658  0.00  0.00    -0.000 A 
ATOM     12  C   UNL A   1     -26.073  -3.131  29.814  0.00  0.00    -0.000 A 
ENDBRANCH   3   7
BRANCH   4  13
ATOM     13  C   UNL A   1     -25.812  -0.087  27.882  0.00  0.00    +0.022 C 
ATOM     14  C   UNL A   1     -25.172  -0.143  26.671  0.00  0.00    +0.005 C 
ATOM     15  C   UNL A   1     -27.204  -0.006  28.075  0.00  0.00    +0.005 C 
ENDBRANCH   4  13
TORSDOF 2
ENDMDL
ENDMDL
