MODEL 2626
MODEL 1
REMARK VINA RESULT:    -5.266      0.000      0.000
REMARK INTER + INTRA:          -6.127
REMARK INTER:                  -5.882
REMARK INTRA:                  -0.246
REMARK UNBOUND:                -0.246
REMARK  Name = No_2626-gen_results/8p0m/2024-11-26-14-13-15/
REMARK  2 active torsions:
REMARK  status: ('A' for Active; 'I' for Inactive)
REMARK    1  A    between atoms: C_3  and  O_9
REMARK    2  A    between atoms: O_9  and  C_10
REMARK                            x       y       z     vdW  Elec       q    Type
REMARK                         _______ _______ _______ _____ _____    ______ ____
ROOT
ATOM      1  C   UNL A   1     -24.520   0.075  27.367  0.00  0.00    +0.051 A 
ATOM      2  C   UNL A   1     -24.166   0.845  26.740  0.00  0.00    +0.061 A 
ATOM      3  C   UNL A   1     -23.579  -0.345  28.474  0.00  0.00    +0.173 A 
ATOM      4  C   UNL A   1     -22.393   0.388  28.688  0.00  0.00    +0.174 A 
ATOM      5  C   UNL A   1     -23.015   1.776  26.764  0.00  0.00    +0.014 A 
ATOM      6  C   UNL A   1     -22.131   1.425  27.774  0.00  0.00    +0.034 A 
ATOM      7 CL   UNL A   1     -25.303   1.362  25.408  0.00  0.00    -0.082 Cl
ATOM      8  F   UNL A   1     -21.568   0.029  29.613  0.00  0.00    -0.201 F 
ENDROOT
BRANCH   3   9
ATOM      9  O   UNL A   1     -23.640  -1.291  29.482  0.00  0.00    -0.449 OA
BRANCH   9  10
ATOM     10  C   UNL A   1     -23.569  -2.590  29.020  0.00  0.00    +0.175 C 
ATOM     11  C   UNL A   1     -24.283  -3.313  29.329  0.00  0.00    +0.015 C 
ATOM     12  C   UNL A   1     -24.323  -4.705  28.719  0.00  0.00    +0.034 C 
ENDBRANCH   9  10
ENDBRANCH   3   9
TORSDOF 2
ENDMDL
ENDMDL
