MODEL 2627
MODEL 1
REMARK VINA RESULT:    -6.694      0.000      0.000
REMARK INTER + INTRA:          -7.188
REMARK INTER:                  -7.085
REMARK INTRA:                  -0.103
REMARK UNBOUND:                -0.103
REMARK  Name = No_2627-gen_results/8p0m/2024-11-26-14-13-15/
REMARK  1 active torsions:
REMARK  status: ('A' for Active; 'I' for Inactive)
REMARK    1  A    between atoms: C_5  and  C_10
REMARK                            x       y       z     vdW  Elec       q    Type
REMARK                         _______ _______ _______ _____ _____    ______ ____
ROOT
ATOM      1  C   UNL A   1     -24.441  -2.898  29.391  0.00  0.00    +0.081 A 
ATOM      2  C   UNL A   1     -24.047  -1.830  28.983  0.00  0.00    +0.018 A 
ATOM      3  C   UNL A   1     -24.933  -0.795  28.706  0.00  0.00    +0.002 A 
ATOM      4  C   UNL A   1     -24.574   0.557  28.190  0.00  0.00    +0.004 A 
ATOM      5  C   UNL A   1     -23.179   0.851  28.128  0.00  0.00    +0.048 A 
ATOM      6  C   UNL A   1     -22.298  -0.194  28.471  0.00  0.00    +0.004 A 
ATOM      7  C   UNL A   1     -22.684  -1.411  28.879  0.00  0.00    +0.002 A 
ATOM      8  N   UNL A   1     -23.768  -3.990  28.925  0.00  0.00    -0.244 NA
ATOM      9  C   UNL A   1     -24.339  -5.215  29.038  0.00  0.00    +0.099 A 
ATOM     10  C   UNL A   1     -25.657  -5.287  29.458  0.00  0.00    +0.021 A 
ATOM     11  C   UNL A   1     -26.434  -4.198  29.727  0.00  0.00    +0.003 A 
ATOM     12  C   UNL A   1     -25.898  -2.986  29.502  0.00  0.00    +0.018 A 
ATOM     13  C   UNL A   1     -26.491  -1.668  29.463  0.00  0.00    +0.002 A 
ATOM     14  C   UNL A   1     -26.325  -0.391  29.604  0.00  0.00    +0.000 A 
ENDROOT
BRANCH   5  15
ATOM     15  C   UNL A   1     -22.821   2.171  27.674  0.00  0.00    +0.242 C 
ATOM     16  N   UNL A   1     -23.753   3.138  27.549  0.00  0.00    -0.116 NA
ATOM     17  F   UNL A   1     -21.599   2.435  27.664  0.00  0.00    -0.181 F 
ENDBRANCH   5  15
TORSDOF 1
ENDMDL
ENDMDL
