REMARK  Name = No_2627-gen_results/8p0m/2024-11-26-14-13-15/
REMARK  1 active torsions:
REMARK  status: ('A' for Active; 'I' for Inactive)
REMARK    1  A    between atoms: C_5  and  C_10
REMARK                            x       y       z     vdW  Elec       q    Type
REMARK                         _______ _______ _______ _____ _____    ______ ____
ROOT
ATOM      1  C   UNL A   1     -28.016  -0.814  28.878  0.00  0.00    +0.081 A 
ATOM      2  C   UNL A   1     -27.064  -0.119  28.608  0.00  0.00    +0.018 A 
ATOM      3  C   UNL A   1     -25.792  -0.430  29.076  0.00  0.00    +0.002 A 
ATOM      4  C   UNL A   1     -24.546   0.349  28.823  0.00  0.00    +0.004 A 
ATOM      5  C   UNL A   1     -24.659   1.420  27.888  0.00  0.00    +0.048 A 
ATOM      6  C   UNL A   1     -25.947   1.681  27.379  0.00  0.00    +0.004 A 
ATOM      7  C   UNL A   1     -27.044   0.974  27.687  0.00  0.00    +0.002 A 
ATOM      8  N   UNL A   1     -29.188  -0.147  29.092  0.00  0.00    -0.244 NA
ATOM      9  C   UNL A   1     -30.202  -0.783  29.730  0.00  0.00    +0.099 A 
ATOM     10  C   UNL A   1     -29.945  -2.019  30.298  0.00  0.00    +0.021 A 
ATOM     11  C   UNL A   1     -28.722  -2.624  30.292  0.00  0.00    +0.003 A 
ATOM     12  C   UNL A   1     -27.696  -1.938  29.760  0.00  0.00    +0.018 A 
ATOM     13  C   UNL A   1     -26.270  -2.170  29.789  0.00  0.00    +0.002 A 
ATOM     14  C   UNL A   1     -25.122  -1.992  29.215  0.00  0.00    +0.000 A 
ENDROOT
BRANCH   5  15
ATOM     15  C   UNL A   1     -23.451   2.152  27.601  0.00  0.00    +0.242 C 
ATOM     16  N   UNL A   1     -22.262   1.746  28.091  0.00  0.00    -0.116 NA
ATOM     17  F   UNL A   1     -23.527   2.997  26.683  0.00  0.00    -0.181 F 
ENDBRANCH   5  15
TORSDOF 1
