REMARK  Name = No_2628-gen_results/8p0m/2024-11-26-14-13-15/
REMARK  6 active torsions:
REMARK  status: ('A' for Active; 'I' for Inactive)
REMARK    1  A    between atoms: C_1  and  C_2
REMARK    2  A    between atoms: C_5  and  C_11
REMARK    3  A    between atoms: N_8  and  C_10
REMARK    4  A    between atoms: C_10  and  C_14
REMARK    5  A    between atoms: C_14  and  C_15
REMARK    6  A    between atoms: C_15  and  C_16
REMARK                            x       y       z     vdW  Elec       q    Type
REMARK                         _______ _______ _______ _____ _____    ______ ____
ROOT
ATOM      1  C   UNL A   1     -28.016  -0.814  28.878  0.00  0.00    +0.265 C 
ATOM      2  N   UNL A   1     -27.952  -1.752  29.938  0.00  0.00    -0.202 NA
ATOM      3  O   UNL A   1     -29.198  -0.534  28.526  0.00  0.00    -0.268 OA
ENDROOT
BRANCH   1   4
ATOM      4  C   UNL A   1     -27.064  -0.119  28.608  0.00  0.00    +0.055 A 
ATOM      5  C   UNL A   1     -25.792  -0.430  29.076  0.00  0.00    +0.005 A 
ATOM      6  C   UNL A   1     -24.546   0.349  28.823  0.00  0.00    +0.005 A 
ATOM      7  C   UNL A   1     -24.659   1.420  27.888  0.00  0.00    +0.057 A 
ATOM      8  C   UNL A   1     -25.947   1.681  27.379  0.00  0.00    +0.005 A 
ATOM      9  C   UNL A   1     -27.044   0.974  27.687  0.00  0.00    +0.005 A 
BRANCH   7  10
ATOM     10  C   UNL A   1     -23.461   2.167  27.599  0.00  0.00    +0.284 C 
ATOM     11  N   UNL A   1     -22.272   1.748  28.063  0.00  0.00    -0.084 NA
ATOM     12  O   UNL A   1     -23.541   3.082  26.722  0.00  0.00    -0.267 OA
ENDBRANCH   7  10
ENDBRANCH   1   4
BRANCH   2  13
ATOM     13  C   UNL A   1     -29.045  -2.572  30.446  0.00  0.00    +0.116 C 
BRANCH  13  14
ATOM     14  C   UNL A   1     -29.817  -3.055  29.747  0.00  0.00    +0.028 C 
BRANCH  14  15
ATOM     15  C   UNL A   1     -30.684  -4.161  30.374  0.00  0.00    +0.028 C 
BRANCH  15  16
ATOM     16  C   UNL A   1     -31.638  -4.766  29.594  0.00  0.00    -0.022 A 
ATOM     17  C   UNL A   1     -31.328  -5.872  28.940  0.00  0.00    -0.004 A 
ATOM     18  C   UNL A   1     -32.906  -4.180  29.303  0.00  0.00    -0.004 A 
ATOM     19  C   UNL A   1     -32.046  -6.492  27.865  0.00  0.00    -0.000 A 
ATOM     20  C   UNL A   1     -33.742  -4.780  28.332  0.00  0.00    -0.000 A 
ATOM     21  C   UNL A   1     -33.298  -5.942  27.669  0.00  0.00    -0.000 A 
ENDBRANCH  15  16
ENDBRANCH  14  15
ENDBRANCH  13  14
ENDBRANCH   2  13
TORSDOF 6
