MODEL 2628
MODEL 1
REMARK VINA RESULT:    -6.707      0.000      0.000
REMARK INTER + INTRA:          -9.701
REMARK INTER:                  -9.060
REMARK INTRA:                  -0.641
REMARK UNBOUND:                -0.641
REMARK  Name = No_2628-gen_results/8p0m/2024-11-26-14-13-15/
REMARK  6 active torsions:
REMARK  status: ('A' for Active; 'I' for Inactive)
REMARK    1  A    between atoms: C_1  and  C_2
REMARK    2  A    between atoms: C_5  and  C_11
REMARK    3  A    between atoms: N_8  and  C_10
REMARK    4  A    between atoms: C_10  and  C_14
REMARK    5  A    between atoms: C_14  and  C_15
REMARK    6  A    between atoms: C_15  and  C_16
REMARK                            x       y       z     vdW  Elec       q    Type
REMARK                         _______ _______ _______ _____ _____    ______ ____
ROOT
ATOM      1  C   UNL A   1      -8.231   0.241  34.779  0.00  0.00    +0.265 C 
ATOM      2  N   UNL A   1      -9.010   0.307  35.960  0.00  0.00    -0.202 NA
ATOM      3  O   UNL A   1      -8.641   1.011  33.863  0.00  0.00    -0.268 OA
ENDROOT
BRANCH   1   4
ATOM      4  C   UNL A   1      -7.117  -0.230  34.797  0.00  0.00    +0.055 A 
ATOM      5  C   UNL A   1      -6.903  -1.578  34.535  0.00  0.00    +0.005 A 
ATOM      6  C   UNL A   1      -5.585  -2.277  34.538  0.00  0.00    +0.005 A 
ATOM      7  C   UNL A   1      -4.437  -1.442  34.671  0.00  0.00    +0.057 A 
ATOM      8  C   UNL A   1      -4.675  -0.068  34.876  0.00  0.00    +0.005 A 
ATOM      9  C   UNL A   1      -5.891   0.495  34.916  0.00  0.00    +0.005 A 
BRANCH   7  10
ATOM     10  C   UNL A   1      -3.149  -2.089  34.641  0.00  0.00    +0.284 C 
ATOM     11  N   UNL A   1      -2.473  -2.306  35.782  0.00  0.00    -0.084 NA
ATOM     12  O   UNL A   1      -2.795  -2.635  33.551  0.00  0.00    -0.267 OA
ENDBRANCH   7  10
ENDBRANCH   1   4
BRANCH   2  13
ATOM     13  C   UNL A   1     -10.314   0.941  36.112  0.00  0.00    +0.116 C 
BRANCH  13  14
ATOM     14  C   UNL A   1     -11.165   0.445  36.702  0.00  0.00    +0.028 C 
BRANCH  14  15
ATOM     15  C   UNL A   1     -10.913  -1.007  37.143  0.00  0.00    +0.028 C 
BRANCH  15  16
ATOM     16  C   UNL A   1     -11.014  -1.313  38.477  0.00  0.00    -0.022 A 
ATOM     17  C   UNL A   1     -10.068  -0.906  39.305  0.00  0.00    -0.004 A 
ATOM     18  C   UNL A   1     -11.998  -2.199  39.010  0.00  0.00    -0.004 A 
ATOM     19  C   UNL A   1      -9.817  -1.349  40.645  0.00  0.00    -0.000 A 
ATOM     20  C   UNL A   1     -11.902  -2.612  40.360  0.00  0.00    -0.000 A 
ATOM     21  C   UNL A   1     -10.831  -2.142  41.146  0.00  0.00    -0.000 A 
ENDBRANCH  15  16
ENDBRANCH  14  15
ENDBRANCH  13  14
ENDBRANCH   2  13
TORSDOF 6
ENDMDL
ENDMDL
