MODEL 2629
MODEL 1
REMARK VINA RESULT:    -4.207      0.000      0.000
REMARK INTER + INTRA:          -4.207
REMARK INTER:                  -4.207
REMARK INTRA:                   0.000
REMARK UNBOUND:                 0.000
REMARK  Name = No_2629-gen_results/8p0m/2024-11-26-14-13-15/
REMARK  0 active torsions:
REMARK  status: ('A' for Active; 'I' for Inactive)
REMARK                            x       y       z     vdW  Elec       q    Type
REMARK                         _______ _______ _______ _____ _____    ______ ____
ROOT
ATOM      1  C   UNL A   1     -24.973  -5.340  28.966  0.00  0.00    +0.000 A 
ATOM      2  C   UNL A   1     -24.163  -4.680  28.830  0.00  0.00    +0.000 A 
ATOM      3  C   UNL A   1     -26.173  -4.787  29.613  0.00  0.00    +0.000 A 
ATOM      4  C   UNL A   1     -26.263  -3.394  29.902  0.00  0.00    +0.000 A 
ATOM      5  C   UNL A   1     -24.021  -3.207  28.985  0.00  0.00    +0.000 A 
ATOM      6  C   UNL A   1     -25.111  -2.658  29.593  0.00  0.00    +0.000 A 
ENDROOT
TORSDOF 0
ENDMDL
ENDMDL
