MODEL 262
MODEL 1
REMARK VINA RESULT:    -5.681      0.000      0.000
REMARK INTER + INTRA:          -6.154
REMARK INTER:                  -6.345
REMARK INTRA:                   0.191
REMARK UNBOUND:                 0.191
REMARK  Name = No_262-gen_results/8p0m/2024-11-26-14-13-15/
REMARK  2 active torsions:
REMARK  status: ('A' for Active; 'I' for Inactive)
REMARK    1  A    between atoms: C_2  and  N_7
REMARK    2  A    between atoms: C_8  and  C_10
REMARK                            x       y       z     vdW  Elec       q    Type
REMARK                         _______ _______ _______ _____ _____    ______ ____
ROOT
ATOM      1  C   UNL A   1     -25.442  -2.466  29.860  0.00  0.00    +0.017 A 
ATOM      2  C   UNL A   1     -24.573  -2.727  29.325  0.00  0.00    +0.073 A 
ATOM      3  C   UNL A   1     -26.471  -3.565  30.004  0.00  0.00    +0.001 A 
ATOM      4  C   UNL A   1     -26.159  -4.867  29.560  0.00  0.00    +0.000 A 
ATOM      5  C   UNL A   1     -23.998  -3.987  28.801  0.00  0.00    +0.017 A 
ATOM      6  C   UNL A   1     -24.914  -5.023  28.923  0.00  0.00    +0.001 A 
ENDROOT
BRANCH   2   7
ATOM      7  N   UNL A   1     -23.531  -1.646  29.178  0.00  0.00    -0.178 NA
ATOM      8  C   UNL A   1     -23.793  -0.711  28.359  0.00  0.00    +0.256 C 
ATOM      9  O   UNL A   1     -24.694  -0.721  27.699  0.00  0.00    -0.272 OA
BRANCH   8  10
ATOM     10  C   UNL A   1     -22.749   0.399  28.423  0.00  0.00    +0.135 C 
ATOM     11 BR   UNL A   1     -22.332   1.642  27.480  0.00  0.00    -0.072 Br
ATOM     12  C   UNL A   1     -21.398  -0.332  28.964  0.00  0.00    +0.022 C 
ENDBRANCH   8  10
ENDBRANCH   2   7
TORSDOF 2
ENDMDL
ENDMDL
