REMARK  Name = No_263-gen_results/8p0m/2024-11-26-14-13-15/
REMARK  1 active torsions:
REMARK  status: ('A' for Active; 'I' for Inactive)
REMARK    1  A    between atoms: C_3  and  C_7
REMARK                            x       y       z     vdW  Elec       q    Type
REMARK                         _______ _______ _______ _____ _____    ______ ____
ROOT
ATOM      1  C   UNL A   1     -26.388   0.291  27.233  0.00  0.00    +0.112 A 
ATOM      2  N   UNL A   1     -25.340   0.046  27.137  0.00  0.00    -0.222 NA
ATOM      3  C   UNL A   1     -27.170   0.646  26.042  0.00  0.00    +0.177 A 
ATOM      4  C   UNL A   1     -26.937   0.665  25.056  0.00  0.00    +0.132 A 
ATOM      5  C   UNL A   1     -24.649   0.157  25.890  0.00  0.00    +0.199 A 
ATOM      6  N   UNL A   1     -25.438   0.423  24.808  0.00  0.00    -0.220 NA
ATOM      7  F   UNL A   1     -28.610   0.691  26.419  0.00  0.00    -0.201 F 
ENDROOT
BRANCH   1  10
ATOM      8  C   UNL A   1     -28.016  -0.814  28.878  0.00  0.00    +0.002 A 
ATOM      9  C   UNL A   1     -28.469  -0.785  29.829  0.00  0.00    +0.000 A 
ATOM     10  C   UNL A   1     -27.136   0.236  28.535  0.00  0.00    +0.020 A 
ATOM     11  C   UNL A   1     -26.875   1.282  29.398  0.00  0.00    +0.002 A 
ATOM     12  C   UNL A   1     -28.361   0.199  30.924  0.00  0.00    +0.000 A 
ATOM     13  C   UNL A   1     -27.528   1.223  30.636  0.00  0.00    +0.000 A 
ENDBRANCH   1  10
TORSDOF 1
