MODEL 2630
MODEL 1
REMARK VINA RESULT:    -5.617      0.000      0.000
REMARK INTER + INTRA:          -7.529
REMARK INTER:                  -7.258
REMARK INTRA:                  -0.271
REMARK UNBOUND:                -0.271
REMARK  Name = No_2630-gen_results/8p0m/2024-11-26-14-13-15/
REMARK  5 active torsions:
REMARK  status: ('A' for Active; 'I' for Inactive)
REMARK    1  A    between atoms: C_1  and  C_2
REMARK    2  A    between atoms: C_1  and  N_8
REMARK    3  A    between atoms: C_5  and  C_9
REMARK    4  A    between atoms: N_10  and  C_15
REMARK    5  A    between atoms: N_13  and  C_17
REMARK                            x       y       z     vdW  Elec       q    Type
REMARK                         _______ _______ _______ _____ _____    ______ ____
ROOT
ATOM      1  C   UNL A   1     -23.546   0.013  29.335  0.00  0.00    +0.002 A 
ATOM      2  C   UNL A   1     -23.389  -0.797  30.342  0.00  0.00    -0.002 A 
ATOM      3  C   UNL A   1     -23.811  -2.219  30.399  0.00  0.00    +0.007 A 
ATOM      4  C   UNL A   1     -24.494  -2.722  29.256  0.00  0.00    +0.090 A 
ATOM      5  C   UNL A   1     -24.714  -1.855  28.216  0.00  0.00    +0.007 A 
ATOM      6  C   UNL A   1     -24.325  -0.558  28.209  0.00  0.00    -0.002 A 
ENDROOT
BRANCH   4   7
ATOM      7  C   UNL A   1     -24.920  -4.082  29.191  0.00  0.00    +0.413 C 
ATOM      8  N   UNL A   1     -26.095  -4.525  29.373  0.00  0.00    -0.028 NA
ATOM      9  N   UNL A   1     -24.000  -4.977  28.690  0.00  0.00    +0.197 NA
BRANCH   8  10
ATOM     10  C   UNL A   1     -27.035  -3.831  30.104  0.00  0.00    +0.252 C 
ATOM     11  C   UNL A   1     -28.195  -4.402  30.518  0.00  0.00    +0.060 C 
ENDBRANCH   8  10
ENDBRANCH   4   7
BRANCH   1  12
ATOM     12  C   UNL A   1     -23.218   1.175  29.259  0.00  0.00    +0.156 C 
BRANCH  12  13
ATOM     13  N   UNL A   1     -23.379   1.844  28.061  0.00  0.00    -0.225 NA
ATOM     14  C   UNL A   1     -22.922   2.247  27.235  0.00  0.00    +0.296 C 
ATOM     15  N   UNL A   1     -23.488   2.921  26.103  0.00  0.00    -0.168 NA
ATOM     16  F   UNL A   1     -21.788   1.713  26.849  0.00  0.00    -0.164 F 
BRANCH  15  17
ATOM     17  C   UNL A   1     -24.653   3.564  26.317  0.00  0.00    +0.090 C 
ATOM     18  C   UNL A   1     -25.500   3.122  25.872  0.00  0.00    +0.019 C 
ENDBRANCH  15  17
ENDBRANCH  12  13
ENDBRANCH   1  12
TORSDOF 5
ENDMDL
ENDMDL
