REMARK  Name = No_2630-gen_results/8p0m/2024-11-26-14-13-15/
REMARK  5 active torsions:
REMARK  status: ('A' for Active; 'I' for Inactive)
REMARK    1  A    between atoms: C_1  and  C_2
REMARK    2  A    between atoms: C_1  and  N_8
REMARK    3  A    between atoms: C_5  and  C_9
REMARK    4  A    between atoms: N_10  and  C_15
REMARK    5  A    between atoms: N_13  and  C_17
REMARK                            x       y       z     vdW  Elec       q    Type
REMARK                         _______ _______ _______ _____ _____    ______ ____
ROOT
ATOM      1  C   UNL A   1     -27.064  -0.119  28.608  0.00  0.00    +0.002 A 
ATOM      2  C   UNL A   1     -26.876   1.133  28.913  0.00  0.00    -0.002 A 
ATOM      3  C   UNL A   1     -25.688   1.952  28.567  0.00  0.00    +0.007 A 
ATOM      4  C   UNL A   1     -24.639   1.283  27.875  0.00  0.00    +0.090 A 
ATOM      5  C   UNL A   1     -24.807  -0.051  27.604  0.00  0.00    +0.007 A 
ATOM      6  C   UNL A   1     -25.902  -0.767  27.951  0.00  0.00    -0.002 A 
ENDROOT
BRANCH   4   7
ATOM      7  C   UNL A   1     -23.462   1.981  27.468  0.00  0.00    +0.413 C 
ATOM      8  N   UNL A   1     -22.258   1.634  27.671  0.00  0.00    -0.028 NA
ATOM      9  N   UNL A   1     -23.657   3.033  26.601  0.00  0.00    +0.197 NA
BRANCH   8  10
ATOM     10  C   UNL A   1     -21.903   0.787  28.699  0.00  0.00    +0.252 C 
ATOM     11  C   UNL A   1     -21.640  -0.529  28.493  0.00  0.00    +0.060 C 
ENDBRANCH   8  10
ENDBRANCH   4   7
BRANCH   1  12
ATOM     12  C   UNL A   1     -28.016  -0.814  28.878  0.00  0.00    +0.156 C 
BRANCH  12  13
ATOM     13  N   UNL A   1     -28.709  -0.583  30.050  0.00  0.00    -0.225 NA
ATOM     14  C   UNL A   1     -29.461  -0.890  30.677  0.00  0.00    +0.296 C 
ATOM     15  N   UNL A   1     -29.916  -0.332  31.917  0.00  0.00    -0.168 NA
ATOM     16  F   UNL A   1     -29.756  -2.168  30.689  0.00  0.00    -0.164 F 
BRANCH  15  17
ATOM     17  C   UNL A   1     -29.727   0.993  32.076  0.00  0.00    +0.090 C 
ATOM     18  C   UNL A   1     -29.011   1.426  31.435  0.00  0.00    +0.019 C 
ENDBRANCH  15  17
ENDBRANCH  12  13
ENDBRANCH   1  12
TORSDOF 5
