MODEL 2631
MODEL 1
REMARK VINA RESULT:    -8.520      0.000      0.000
REMARK INTER + INTRA:         -13.797
REMARK INTER:                 -11.509
REMARK INTRA:                  -2.288
REMARK UNBOUND:                -2.288
REMARK  Name = No_2631-gen_results/8p0m/2024-11-26-14-13-15/
REMARK  6 active torsions:
REMARK  status: ('A' for Active; 'I' for Inactive)
REMARK    1  A    between atoms: C_2  and  C_23
REMARK    2  A    between atoms: C_3  and  C_4
REMARK    3  A    between atoms: C_4  and  C_8
REMARK    4  A    between atoms: C_4  and  C_16
REMARK    5  A    between atoms: C_8  and  C_9
REMARK    6  A    between atoms: C_16  and  C_17
REMARK                            x       y       z     vdW  Elec       q    Type
REMARK                         _______ _______ _______ _____ _____    ______ ____
ROOT
ATOM      1  C   UNL A   1     -24.152  -0.660  29.534  0.00  0.00    +0.031 C 
ENDROOT
BRANCH   1   4
ATOM      2  C   UNL A   1     -23.591   0.980  27.641  0.00  0.00    +0.002 A 
ATOM      3  C   UNL A   1     -22.828   1.480  27.114  0.00  0.00    +0.080 A 
ATOM      4  C   UNL A   1     -23.207   0.047  28.630  0.00  0.00    -0.022 A 
ATOM      5  C   UNL A   1     -21.642   1.382  27.297  0.00  0.00    +0.007 A 
ATOM      6  C   UNL A   1     -20.967   0.571  28.207  0.00  0.00    -0.000 A 
ATOM      7  C   UNL A   1     -21.829  -0.120  28.978  0.00  0.00    -0.004 A 
BRANCH   3   8
ATOM      8  C   UNL A   1     -23.281   2.502  25.957  0.00  0.00    +0.388 C 
ATOM      9  O   UNL A   1     -24.132   3.193  25.927  0.00  0.00    -0.241 OA
ATOM     10  O   UNL A   1     -22.429   2.492  24.881  0.00  0.00    -0.241 OA
ENDBRANCH   3   8
ENDBRANCH   1   4
BRANCH   1  11
ATOM     11  C   UNL A   1     -25.052  -1.273  29.110  0.00  0.00    +0.027 C 
ATOM     12  C   UNL A   1     -26.347  -0.600  28.903  0.00  0.00    +0.005 C 
BRANCH  11  13
ATOM     13  C   UNL A   1     -25.146  -2.677  29.152  0.00  0.00    -0.022 A 
ATOM     14  C   UNL A   1     -24.055  -3.460  28.617  0.00  0.00    -0.004 A 
ATOM     15  C   UNL A   1     -24.151  -4.866  28.621  0.00  0.00    -0.000 A 
ATOM     16  C   UNL A   1     -24.894  -5.385  29.049  0.00  0.00    -0.000 A 
ATOM     17  C   UNL A   1     -26.101  -4.792  29.675  0.00  0.00    -0.000 A 
ATOM     18  C   UNL A   1     -26.187  -3.449  29.647  0.00  0.00    -0.004 A 
ENDBRANCH  11  13
ENDBRANCH   1  11
BRANCH   1  19
ATOM     19  C   UNL A   1     -23.924  -0.319  30.933  0.00  0.00    +0.031 C 
BRANCH  19  20
ATOM     20  C   UNL A   1     -24.420   0.836  31.577  0.00  0.00    -0.022 A 
ATOM     21  C   UNL A   1     -24.160   1.902  31.404  0.00  0.00    -0.004 A 
ATOM     22  C   UNL A   1     -24.854   3.033  32.110  0.00  0.00    -0.000 A 
ATOM     23  C   UNL A   1     -25.673   2.678  33.215  0.00  0.00    -0.000 A 
ATOM     24  C   UNL A   1     -25.444   0.450  32.667  0.00  0.00    -0.004 A 
ATOM     25  C   UNL A   1     -25.960   1.364  33.484  0.00  0.00    -0.000 A 
ENDBRANCH  19  20
ENDBRANCH   1  19
TORSDOF 6
ENDMDL
ENDMDL
