MODEL 2632
MODEL 1
REMARK VINA RESULT:    -5.120      0.000      0.000
REMARK INTER + INTRA:          -5.574
REMARK INTER:                  -5.419
REMARK INTRA:                  -0.155
REMARK UNBOUND:                -0.155
REMARK  Name = No_2632-gen_results/8p0m/2024-11-26-14-13-15/
REMARK  1 active torsions:
REMARK  status: ('A' for Active; 'I' for Inactive)
REMARK    1  A    between atoms: C_5  and  C_6
REMARK                            x       y       z     vdW  Elec       q    Type
REMARK                         _______ _______ _______ _____ _____    ______ ____
ROOT
ATOM      1 CL   UNL A   1     -23.984  -3.235  29.139  0.00  0.00    -0.082 Cl
ATOM      2  C   UNL A   1     -23.844  -1.807  28.993  0.00  0.00    +0.058 A 
ATOM      3  C   UNL A   1     -24.709  -1.080  28.189  0.00  0.00    +0.011 A 
ATOM      4  C   UNL A   1     -24.331   0.033  27.435  0.00  0.00    +0.005 A 
ATOM      5  C   UNL A   1     -23.096   0.731  27.741  0.00  0.00    +0.071 A 
ATOM      6  C   UNL A   1     -22.179   0.204  28.752  0.00  0.00    +0.005 A 
ATOM      7  C   UNL A   1     -22.508  -1.140  29.189  0.00  0.00    +0.011 A 
ENDROOT
BRANCH   5   8
ATOM      8  C   UNL A   1     -22.681   1.898  27.040  0.00  0.00    +0.419 C 
ATOM      9  F   UNL A   1     -22.632   1.861  25.871  0.00  0.00    -0.166 F 
ATOM     10  F   UNL A   1     -23.404   3.011  27.455  0.00  0.00    -0.166 F 
ATOM     11  F   UNL A   1     -21.396   2.233  27.460  0.00  0.00    -0.166 F 
ENDBRANCH   5   8
TORSDOF 1
ENDMDL
ENDMDL
