REMARK  Name = No_2632-gen_results/8p0m/2024-11-26-14-13-15/
REMARK  1 active torsions:
REMARK  status: ('A' for Active; 'I' for Inactive)
REMARK    1  A    between atoms: C_5  and  C_6
REMARK                            x       y       z     vdW  Elec       q    Type
REMARK                         _______ _______ _______ _____ _____    ______ ____
ROOT
ATOM      1 CL   UNL A   1     -28.149  -0.820  28.908  0.00  0.00    -0.082 Cl
ATOM      2  C   UNL A   1     -26.912  -0.080  28.945  0.00  0.00    +0.058 A 
ATOM      3  C   UNL A   1     -26.049  -0.072  27.859  0.00  0.00    +0.011 A 
ATOM      4  C   UNL A   1     -24.657  -0.037  27.964  0.00  0.00    +0.005 A 
ATOM      5  C   UNL A   1     -24.033   0.380  29.206  0.00  0.00    +0.071 A 
ATOM      6  C   UNL A   1     -24.849   0.643  30.392  0.00  0.00    +0.005 A 
ATOM      7  C   UNL A   1     -26.228   0.214  30.254  0.00  0.00    +0.011 A 
ENDROOT
BRANCH   5   8
ATOM      8  C   UNL A   1     -22.622   0.481  29.359  0.00  0.00    +0.419 C 
ATOM      9  F   UNL A   1     -22.196   0.898  30.366  0.00  0.00    -0.166 F 
ATOM     10  F   UNL A   1     -22.000  -0.721  29.036  0.00  0.00    -0.166 F 
ATOM     11  F   UNL A   1     -22.128   1.321  28.364  0.00  0.00    -0.166 F 
ENDBRANCH   5   8
TORSDOF 1
