MODEL 2633
MODEL 1
REMARK VINA RESULT:    -6.543      0.000      0.000
REMARK INTER + INTRA:          -7.240
REMARK INTER:                  -6.926
REMARK INTRA:                  -0.315
REMARK UNBOUND:                -0.315
REMARK  Name = No_2633-gen_results/8p0m/2024-11-26-14-13-15/
REMARK  1 active torsions:
REMARK  status: ('A' for Active; 'I' for Inactive)
REMARK    1  A    between atoms: C_3  and  C_7
REMARK                            x       y       z     vdW  Elec       q    Type
REMARK                         _______ _______ _______ _____ _____    ______ ____
ROOT
ATOM      1  C   UNL A   1     -24.781  -4.937  28.987  0.00  0.00    +0.000 A 
ATOM      2  C   UNL A   1     -24.137  -3.952  28.707  0.00  0.00    +0.000 A 
ATOM      3  C   UNL A   1     -24.558  -2.651  28.983  0.00  0.00    +0.000 A 
ATOM      4  C   UNL A   1     -25.861  -2.443  29.585  0.00  0.00    +0.000 A 
ATOM      5  C   UNL A   1     -26.559  -3.638  29.875  0.00  0.00    +0.000 A 
ATOM      6  C   UNL A   1     -26.083  -4.819  29.571  0.00  0.00    +0.000 A 
ENDROOT
BRANCH   3   7
ATOM      7  C   UNL A   1     -23.816  -1.399  28.681  0.00  0.00    +0.000 A 
ATOM      8  C   UNL A   1     -24.331  -0.432  27.872  0.00  0.00    +0.000 A 
ATOM      9  C   UNL A   1     -23.587   0.711  27.569  0.00  0.00    +0.000 A 
ATOM     10  C   UNL A   1     -22.284   0.916  28.128  0.00  0.00    +0.000 A 
ATOM     11  C   UNL A   1     -22.521  -1.124  29.157  0.00  0.00    +0.000 A 
ATOM     12  C   UNL A   1     -21.806  -0.016  28.879  0.00  0.00    +0.000 A 
ENDBRANCH   3   7
TORSDOF 1
ENDMDL
ENDMDL
