MODEL 2634
MODEL 1
REMARK VINA RESULT:    -5.011      0.000      0.000
REMARK INTER + INTRA:          -5.011
REMARK INTER:                  -5.011
REMARK INTRA:                   0.000
REMARK UNBOUND:                 0.000
REMARK  Name = No_2634-gen_results/8p0m/2024-11-26-14-13-15/
REMARK  0 active torsions:
REMARK  status: ('A' for Active; 'I' for Inactive)
REMARK                            x       y       z     vdW  Elec       q    Type
REMARK                         _______ _______ _______ _____ _____    ______ ____
ROOT
ATOM      1  C   UNL A   1     -10.539  -9.301  19.203  0.00  0.00    +0.042 A 
ATOM      2  C   UNL A   1      -9.814  -9.090  20.148  0.00  0.00    +0.003 A 
ATOM      3  C   UNL A   1      -8.508  -9.565  20.172  0.00  0.00    +0.000 A 
ATOM      4  C   UNL A   1      -7.991 -10.364  19.090  0.00  0.00    +0.003 A 
ATOM      5  C   UNL A   1      -8.903 -10.579  18.049  0.00  0.00    +0.042 A 
ATOM      6  C   UNL A   1     -10.134 -10.122  18.083  0.00  0.00    +0.196 A 
ATOM      7  O   UNL A   1     -10.969 -10.409  17.048  0.00  0.00    -0.287 OA
ENDROOT
TORSDOF 0
ENDMDL
ENDMDL
