MODEL 2635
MODEL 1
REMARK VINA RESULT:    -6.271      0.000      0.000
REMARK INTER + INTRA:          -8.342
REMARK INTER:                  -7.370
REMARK INTRA:                  -0.971
REMARK UNBOUND:                -0.971
REMARK  Name = No_2635-gen_results/8p0m/2024-11-26-14-13-15/
REMARK  3 active torsions:
REMARK  status: ('A' for Active; 'I' for Inactive)
REMARK    1  A    between atoms: C_7  and  O_12
REMARK    2  A    between atoms: O_12  and  C_13
REMARK    3  A    between atoms: C_14  and  C_15
REMARK                            x       y       z     vdW  Elec       q    Type
REMARK                         _______ _______ _______ _____ _____    ______ ____
ROOT
ATOM      1  C   UNL A   1     -25.037  -0.317  27.191  0.00  0.00    +0.003 A 
ATOM      2  C   UNL A   1     -25.469  -0.245  26.232  0.00  0.00    +0.000 A 
ATOM      3  C   UNL A   1     -24.110   0.719  27.548  0.00  0.00    +0.031 A 
ATOM      4  C   UNL A   1     -23.673   1.637  26.681  0.00  0.00    -0.015 A 
ATOM      5  C   UNL A   1     -25.134   0.646  25.130  0.00  0.00    -0.000 A 
ATOM      6  C   UNL A   1     -24.261   1.596  25.437  0.00  0.00    -0.004 A 
ATOM      7  C   UNL A   1     -23.548   0.701  28.976  0.00  0.00    +0.145 C 
ATOM      8  C   UNL A   1     -22.438   0.734  29.271  0.00  0.00    +0.037 C 
ATOM      9  C   UNL A   1     -21.437   0.771  28.232  0.00  0.00    -0.001 C 
ATOM     10  C   UNL A   1     -21.384   1.616  27.403  0.00  0.00    -0.021 C 
ATOM     11  C   UNL A   1     -22.421   1.806  26.399  0.00  0.00    +0.052 C 
ENDROOT
BRANCH   7  12
ATOM     12  O   UNL A   1     -24.599   0.410  29.887  0.00  0.00    -0.450 OA
BRANCH  12  13
ATOM     13  C   UNL A   1     -24.430  -0.254  31.122  0.00  0.00    +0.179 C 
ATOM     14  C   UNL A   1     -24.458  -1.304  31.363  0.00  0.00    +0.040 C 
BRANCH  14  15
ATOM     15  C   UNL A   1     -24.841  -2.402  30.359  0.00  0.00    -0.001 C 
ATOM     16  C   UNL A   1     -23.935  -3.000  29.432  0.00  0.00    -0.026 C 
ATOM     17  C   UNL A   1     -24.563  -3.818  28.669  0.00  0.00    +0.031 C 
ENDBRANCH  14  15
ENDBRANCH  12  13
ENDBRANCH   7  12
TORSDOF 3
ENDMDL
ENDMDL
