REMARK  Name = No_2635-gen_results/8p0m/2024-11-26-14-13-15/
REMARK  3 active torsions:
REMARK  status: ('A' for Active; 'I' for Inactive)
REMARK    1  A    between atoms: C_7  and  O_12
REMARK    2  A    between atoms: O_12  and  C_13
REMARK    3  A    between atoms: C_14  and  C_15
REMARK                            x       y       z     vdW  Elec       q    Type
REMARK                         _______ _______ _______ _____ _____    ______ ____
ROOT
ATOM      1  C   UNL A   1     -28.016  -0.814  28.878  0.00  0.00    +0.003 A 
ATOM      2  C   UNL A   1     -28.469  -0.785  29.829  0.00  0.00    +0.000 A 
ATOM      3  C   UNL A   1     -28.196   0.348  28.055  0.00  0.00    +0.031 A 
ATOM      4  C   UNL A   1     -29.019   1.350  28.378  0.00  0.00    -0.015 A 
ATOM      5  C   UNL A   1     -29.411   0.180  30.378  0.00  0.00    -0.000 A 
ATOM      6  C   UNL A   1     -29.606   1.250  29.619  0.00  0.00    -0.004 A 
ATOM      7  C   UNL A   1     -27.460   0.380  26.709  0.00  0.00    +0.145 C 
ATOM      8  C   UNL A   1     -27.930   0.584  25.680  0.00  0.00    +0.037 C 
ATOM      9  C   UNL A   1     -29.352   0.814  25.593  0.00  0.00    -0.001 C 
ATOM     10  C   UNL A   1     -29.913   1.681  26.175  0.00  0.00    -0.021 C 
ATOM     11  C   UNL A   1     -30.003   1.729  27.627  0.00  0.00    +0.052 C 
ENDROOT
BRANCH   7  12
ATOM     12  O   UNL A   1     -26.136  -0.105  26.890  0.00  0.00    -0.450 OA
BRANCH  12  13
ATOM     13  C   UNL A   1     -25.316   0.195  28.000  0.00  0.00    +0.179 C 
ATOM     14  C   UNL A   1     -24.738   1.076  28.227  0.00  0.00    +0.040 C 
BRANCH  14  15
ATOM     15  C   UNL A   1     -24.560   2.255  27.258  0.00  0.00    -0.001 C 
ATOM     16  C   UNL A   1     -23.531   3.239  27.364  0.00  0.00    -0.026 C 
ATOM     17  C   UNL A   1     -23.692   4.142  26.468  0.00  0.00    +0.031 C 
ENDBRANCH  14  15
ENDBRANCH  12  13
ENDBRANCH   7  12
TORSDOF 3
