MODEL 2636
MODEL 1
REMARK VINA RESULT:    -6.200      0.000      0.000
REMARK INTER + INTRA:          -6.792
REMARK INTER:                  -6.925
REMARK INTRA:                   0.134
REMARK UNBOUND:                 0.134
REMARK  Name = No_2636-gen_results/8p0m/2024-11-26-14-13-15/
REMARK  2 active torsions:
REMARK  status: ('A' for Active; 'I' for Inactive)
REMARK    1  A    between atoms: C_5  and  C_15
REMARK    2  A    between atoms: C_8  and  C_11
REMARK                            x       y       z     vdW  Elec       q    Type
REMARK                         _______ _______ _______ _____ _____    ______ ____
ROOT
ATOM      1  O   UNL A   1     -15.081 -21.824  20.516  0.00  0.00    -0.272 OA
ATOM      2  C   UNL A   1     -14.072 -21.293  20.995  0.00  0.00    +0.259 C 
ATOM      3  N   UNL A   1     -13.065 -21.136  20.903  0.00  0.00    -0.273 N 
ATOM      4  C   UNL A   1     -14.380 -20.965  22.644  0.00  0.00    +0.238 C 
ATOM      5  C   UNL A   1     -12.470 -21.325  19.526  0.00  0.00    +0.140 C 
ATOM      6  C   UNL A   1     -11.313 -21.988  19.479  0.00  0.00    +0.028 C 
ATOM      7  C   UNL A   1     -10.469 -21.945  20.525  0.00  0.00    +0.009 C 
ATOM      8  C   UNL A   1     -10.922 -21.490  21.811  0.00  0.00    +0.085 C 
ATOM      9  C   UNL A   1     -12.120 -21.203  21.918  0.00  0.00    +0.084 C 
ATOM     10  C   UNL A   1     -12.884 -21.060  23.139  0.00  0.00    +0.065 C 
ATOM     11  F   UNL A   1     -15.355 -20.856  23.286  0.00  0.00    -0.227 F 
ENDROOT
BRANCH   8  12
ATOM     12  C   UNL A   1      -9.933 -21.538  22.993  0.00  0.00    +0.320 C 
ATOM     13  F   UNL A   1     -10.332 -21.310  24.099  0.00  0.00    -0.198 F 
ATOM     14  F   UNL A   1      -8.685 -21.655  22.773  0.00  0.00    -0.198 F 
ENDBRANCH   8  12
BRANCH   5  15
ATOM     15  C   UNL A   1     -13.123 -20.710  18.484  0.00  0.00    +0.227 C 
ATOM     16  O   UNL A   1     -13.120 -19.589  18.141  0.00  0.00    -0.286 OA
ENDBRANCH   5  15
TORSDOF 2
ENDMDL
ENDMDL
