REMARK  Name = No_2636-gen_results/8p0m/2024-11-26-14-13-15/
REMARK  2 active torsions:
REMARK  status: ('A' for Active; 'I' for Inactive)
REMARK    1  A    between atoms: C_5  and  C_15
REMARK    2  A    between atoms: C_8  and  C_11
REMARK                            x       y       z     vdW  Elec       q    Type
REMARK                         _______ _______ _______ _____ _____    ______ ____
ROOT
ATOM      1  O   UNL A   1     -28.123  -1.335  28.487  0.00  0.00    -0.272 OA
ATOM      2  C   UNL A   1     -27.064  -0.824  28.869  0.00  0.00    +0.259 C 
ATOM      3  N   UNL A   1     -26.445  -0.010  28.827  0.00  0.00    -0.273 N 
ATOM      4  C   UNL A   1     -26.040  -2.078  29.417  0.00  0.00    +0.238 C 
ATOM      5  C   UNL A   1     -27.067   1.297  28.390  0.00  0.00    +0.140 C 
ATOM      6  C   UNL A   1     -26.354   2.018  27.523  0.00  0.00    +0.028 C 
ATOM      7  C   UNL A   1     -25.012   1.932  27.518  0.00  0.00    +0.009 C 
ATOM      8  C   UNL A   1     -24.348   0.843  28.179  0.00  0.00    +0.085 C 
ATOM      9  C   UNL A   1     -25.063  -0.026  28.692  0.00  0.00    +0.084 C 
ATOM     10  C   UNL A   1     -24.672  -1.359  29.100  0.00  0.00    +0.065 C 
ATOM     11  F   UNL A   1     -26.219  -3.182  29.771  0.00  0.00    -0.227 F 
ENDROOT
BRANCH   8  12
ATOM     12  C   UNL A   1     -22.812   0.750  28.073  0.00  0.00    +0.320 C 
ATOM     13  F   UNL A   1     -22.243  -0.156  28.610  0.00  0.00    -0.198 F 
ATOM     14  F   UNL A   1     -22.152   1.710  27.562  0.00  0.00    -0.198 F 
ENDBRANCH   8  12
BRANCH   5  15
ATOM     15  C   UNL A   1     -28.245   1.653  29.003  0.00  0.00    +0.227 C 
ATOM     16  O   UNL A   1     -28.463   1.948  30.117  0.00  0.00    -0.286 OA
ENDBRANCH   5  15
TORSDOF 2
