MODEL 2637
MODEL 1
REMARK VINA RESULT:    -5.902      0.000      0.000
REMARK INTER + INTRA:         -13.433
REMARK INTER:                  -9.698
REMARK INTRA:                  -3.735
REMARK UNBOUND:                -3.735
REMARK  Name = No_2637-gen_results/8p0m/2024-11-26-14-13-15/
REMARK  11 active torsions:
REMARK  status: ('A' for Active; 'I' for Inactive)
REMARK    1  A    between atoms: C_1  and  C_2
REMARK    2  A    between atoms: C_1  and  N_8
REMARK    3  A    between atoms: C_3  and  C_32
REMARK    4  A    between atoms: C_5  and  C_29
REMARK    5  A    between atoms: N_8  and  C_21
REMARK    6  A    between atoms: C_9  and  C_10
REMARK    7  A    between atoms: C_17  and  C_18
REMARK    8  A    between atoms: C_21  and  C_22
REMARK    9  A    between atoms: C_22  and  C_23
REMARK   10  A    between atoms: C_32  and  N_33
REMARK   11  A    between atoms: N_33  and  C_34
REMARK                            x       y       z     vdW  Elec       q    Type
REMARK                         _______ _______ _______ _____ _____    ______ ____
ROOT
ATOM      1  N   UNL A   1     -25.916   1.106  28.070  0.00  0.00    -0.271 N 
ATOM      2  C   UNL A   1     -25.082   1.497  28.613  0.00  0.00    +0.249 C 
ATOM      3  O   UNL A   1     -24.827   2.895  28.677  0.00  0.00    -0.270 OA
ENDROOT
BRANCH   2   4
ATOM      4  C   UNL A   1     -24.073   0.843  29.058  0.00  0.00    +0.054 A 
ATOM      5  C   UNL A   1     -23.075   0.399  28.189  0.00  0.00    +0.004 A 
ATOM      6  C   UNL A   1     -21.973  -0.381  28.654  0.00  0.00    +0.000 A 
ATOM      7  C   UNL A   1     -21.911  -0.693  30.047  0.00  0.00    +0.000 A 
ATOM      8  C   UNL A   1     -23.929   0.480  30.462  0.00  0.00    +0.004 A 
ATOM      9  C   UNL A   1     -24.916   1.003  31.473  0.00  0.00    +0.001 A 
ATOM     10  C   UNL A   1     -22.809  -0.263  30.984  0.00  0.00    +0.000 A 
ATOM     11  C   UNL A   1     -24.987   0.347  32.707  0.00  0.00    +0.044 A 
ATOM     12  C   UNL A   1     -24.186  -0.827  32.935  0.00  0.00    +0.001 A 
ATOM     13  C   UNL A   1     -23.088  -1.114  32.118  0.00  0.00    -0.000 A 
BRANCH  11  14
ATOM     14  C   UNL A   1     -25.926   0.833  33.629  0.00  0.00    +0.341 C 
ATOM     15  F   UNL A   1     -26.928   1.179  33.332  0.00  0.00    -0.193 F 
ATOM     16  F   UNL A   1     -25.918   0.202  34.796  0.00  0.00    -0.193 F 
ENDBRANCH  11  14
ENDBRANCH   2   4
BRANCH   1  17
ATOM     17  C   UNL A   1     -26.529  -0.132  28.188  0.00  0.00    +0.120 C 
BRANCH  17  18
ATOM     18  C   UNL A   1     -27.092  -0.424  29.217  0.00  0.00    -0.005 A 
ATOM     19  C   UNL A   1     -26.819  -1.569  29.940  0.00  0.00    -0.007 A 
ATOM     20  C   UNL A   1     -27.518  -2.002  31.135  0.00  0.00    +0.002 A 
ATOM     21  C   UNL A   1     -28.567  -1.201  31.637  0.00  0.00    +0.056 A 
ATOM     22  C   UNL A   1     -28.871  -0.010  30.885  0.00  0.00    +0.004 A 
ATOM     23  C   UNL A   1     -28.219   0.361  29.733  0.00  0.00    -0.003 A 
BRANCH  21  24
ATOM     24  C   UNL A   1     -29.229  -1.470  32.861  0.00  0.00    +0.284 C 
ATOM     25  N   UNL A   1     -30.371  -1.816  32.916  0.00  0.00    -0.084 NA
ATOM     26  O   UNL A   1     -28.500  -1.518  34.007  0.00  0.00    -0.267 OA
ENDBRANCH  21  24
BRANCH  19  27
ATOM     27  C   UNL A   1     -25.781  -2.545  29.495  0.00  0.00    +0.115 C 
BRANCH  27  28
ATOM     28  N   UNL A   1     -26.086  -3.816  29.540  0.00  0.00    -0.213 NA
BRANCH  28  29
ATOM     29  C   UNL A   1     -25.149  -4.773  29.300  0.00  0.00    +0.089 C 
ATOM     30  C   UNL A   1     -24.083  -4.419  28.606  0.00  0.00    +0.020 C 
ENDBRANCH  28  29
ENDBRANCH  27  28
ENDBRANCH  19  27
ENDBRANCH  17  18
ENDBRANCH   1  17
BRANCH   1  31
ATOM     31  C   UNL A   1     -26.431   1.889  26.798  0.00  0.00    +0.106 C 
BRANCH  31  32
ATOM     32  C   UNL A   1     -25.677   1.426  25.602  0.00  0.00    +0.136 C 
BRANCH  32  33
ATOM     33  C   UNL A   1     -26.396   0.536  24.792  0.00  0.00    +0.367 C 
ATOM     34  O   UNL A   1     -27.193   0.792  24.234  0.00  0.00    -0.246 OA
ATOM     35  O   UNL A   1     -25.766  -0.748  24.714  0.00  0.00    -0.246 OA
ENDBRANCH  32  33
ENDBRANCH  31  32
ENDBRANCH   1  31
TORSDOF 11
ENDMDL
ENDMDL
