REMARK  Name = No_2637-gen_results/8p0m/2024-11-26-14-13-15/
REMARK  11 active torsions:
REMARK  status: ('A' for Active; 'I' for Inactive)
REMARK    1  A    between atoms: C_1  and  C_2
REMARK    2  A    between atoms: C_1  and  N_8
REMARK    3  A    between atoms: C_3  and  C_32
REMARK    4  A    between atoms: C_5  and  C_29
REMARK    5  A    between atoms: N_8  and  C_21
REMARK    6  A    between atoms: C_9  and  C_10
REMARK    7  A    between atoms: C_17  and  C_18
REMARK    8  A    between atoms: C_21  and  C_22
REMARK    9  A    between atoms: C_22  and  C_23
REMARK   10  A    between atoms: C_32  and  N_33
REMARK   11  A    between atoms: N_33  and  C_34
REMARK                            x       y       z     vdW  Elec       q    Type
REMARK                         _______ _______ _______ _____ _____    ______ ____
ROOT
ATOM      1  N   UNL A   1     -28.757  -0.548  30.019  0.00  0.00    -0.271 N 
ATOM      2  C   UNL A   1     -28.932   0.389  30.503  0.00  0.00    +0.249 C 
ATOM      3  O   UNL A   1     -29.355   0.458  31.859  0.00  0.00    -0.270 OA
ENDROOT
BRANCH   2   4
ATOM      4  C   UNL A   1     -29.049   1.538  29.945  0.00  0.00    +0.054 A 
ATOM      5  C   UNL A   1     -30.048   1.769  28.998  0.00  0.00    +0.004 A 
ATOM      6  C   UNL A   1     -30.159   3.022  28.322  0.00  0.00    +0.000 A 
ATOM      7  C   UNL A   1     -29.219   4.048  28.647  0.00  0.00    +0.000 A 
ATOM      8  C   UNL A   1     -28.135   2.640  30.216  0.00  0.00    +0.004 A 
ATOM      9  C   UNL A   1     -27.091   2.496  31.294  0.00  0.00    +0.001 A 
ATOM     10  C   UNL A   1     -28.240   3.937  29.595  0.00  0.00    +0.000 A 
ATOM     11  C   UNL A   1     -26.009   3.384  31.269  0.00  0.00    +0.044 A 
ATOM     12  C   UNL A   1     -25.894   4.334  30.194  0.00  0.00    +0.001 A 
ATOM     13  C   UNL A   1     -26.996   4.643  29.391  0.00  0.00    -0.000 A 
BRANCH  11  14
ATOM     14  C   UNL A   1     -25.036   3.223  32.267  0.00  0.00    +0.341 C 
ATOM     15  F   UNL A   1     -24.760   4.029  32.964  0.00  0.00    -0.193 F 
ATOM     16  F   UNL A   1     -25.031   2.022  32.831  0.00  0.00    -0.193 F 
ENDBRANCH  11  14
ENDBRANCH   2   4
BRANCH   1  17
ATOM     17  C   UNL A   1     -28.016  -0.814  28.878  0.00  0.00    +0.120 C 
BRANCH  17  18
ATOM     18  C   UNL A   1     -27.064  -0.119  28.608  0.00  0.00    -0.005 A 
ATOM     19  C   UNL A   1     -27.001   0.691  27.491  0.00  0.00    -0.007 A 
ATOM     20  C   UNL A   1     -25.855   1.482  27.083  0.00  0.00    +0.002 A 
ATOM     21  C   UNL A   1     -24.690   1.453  27.881  0.00  0.00    +0.056 A 
ATOM     22  C   UNL A   1     -24.738   0.601  29.042  0.00  0.00    +0.004 A 
ATOM     23  C   UNL A   1     -25.823  -0.169  29.389  0.00  0.00    -0.003 A 
BRANCH  21  24
ATOM     24  C   UNL A   1     -23.565   2.280  27.638  0.00  0.00    +0.284 C 
ATOM     25  N   UNL A   1     -22.576   1.884  27.098  0.00  0.00    -0.084 NA
ATOM     26  O   UNL A   1     -23.671   3.617  27.858  0.00  0.00    -0.267 OA
ENDBRANCH  21  24
BRANCH  19  27
ATOM     27  C   UNL A   1     -28.132   0.773  26.520  0.00  0.00    +0.115 C 
BRANCH  27  28
ATOM     28  N   UNL A   1     -27.978   0.188  25.361  0.00  0.00    -0.213 NA
BRANCH  28  29
ATOM     29  C   UNL A   1     -29.051  -0.140  24.591  0.00  0.00    +0.089 C 
ATOM     30  C   UNL A   1     -30.133  -0.576  25.210  0.00  0.00    +0.020 C 
ENDBRANCH  28  29
ENDBRANCH  27  28
ENDBRANCH  19  27
ENDBRANCH  17  18
ENDBRANCH   1  17
BRANCH   1  31
ATOM     31  C   UNL A   1     -29.600  -1.806  30.470  0.00  0.00    +0.106 C 
BRANCH  31  32
ATOM     32  C   UNL A   1     -28.686  -2.817  31.067  0.00  0.00    +0.136 C 
BRANCH  32  33
ATOM     33  C   UNL A   1     -28.948  -4.129  30.651  0.00  0.00    +0.367 C 
ATOM     34  O   UNL A   1     -29.746  -4.670  30.941  0.00  0.00    -0.246 OA
ATOM     35  O   UNL A   1     -28.040  -4.561  29.630  0.00  0.00    -0.246 OA
ENDBRANCH  32  33
ENDBRANCH  31  32
ENDBRANCH   1  31
TORSDOF 11
