MODEL 2638
MODEL 1
REMARK VINA RESULT:    -5.904      0.000      0.000
REMARK INTER + INTRA:          -6.349
REMARK INTER:                  -6.249
REMARK INTRA:                  -0.100
REMARK UNBOUND:                -0.100
REMARK  Name = No_2638-gen_results/8p0m/2024-11-26-14-13-15/
REMARK  1 active torsions:
REMARK  status: ('A' for Active; 'I' for Inactive)
REMARK    1  A    between atoms: C_10  and  C_11
REMARK                            x       y       z     vdW  Elec       q    Type
REMARK                         _______ _______ _______ _____ _____    ______ ____
ROOT
ATOM      1  C   UNL A   1     -26.167  -4.577  29.706  0.00  0.00    +0.000 A 
ATOM      2  C   UNL A   1     -25.432  -5.114  29.175  0.00  0.00    +0.000 A 
ATOM      3  C   UNL A   1     -25.941  -3.201  29.934  0.00  0.00    +0.000 A 
ATOM      4  C   UNL A   1     -26.921  -2.280  30.566  0.00  0.00    +0.000 A 
ATOM      5  C   UNL A   1     -24.141  -4.692  28.605  0.00  0.00    +0.000 A 
ATOM      6  C   UNL A   1     -23.849  -3.341  28.794  0.00  0.00    +0.000 A 
ATOM      7  C   UNL A   1     -24.757  -2.549  29.420  0.00  0.00    +0.006 A 
ATOM      8  C   UNL A   1     -26.458  -0.980  30.937  0.00  0.00    +0.000 A 
ATOM      9  C   UNL A   1     -25.367  -0.400  30.367  0.00  0.00    +0.007 A 
ATOM     10  C   UNL A   1     -24.420  -1.223  29.728  0.00  0.00    +0.080 A 
ENDROOT
BRANCH  10  11
ATOM     11  C   UNL A   1     -23.159  -0.544  29.271  0.00  0.00    +0.388 C 
ATOM     12  O   UNL A   1     -22.121  -0.553  30.044  0.00  0.00    -0.241 OA
ATOM     13  O   UNL A   1     -23.179   0.063  28.131  0.00  0.00    -0.241 OA
ENDBRANCH  10  11
TORSDOF 1
ENDMDL
ENDMDL
