REMARK  Name = No_2639-gen_results/8p0m/2024-11-26-14-13-15/
REMARK  6 active torsions:
REMARK  status: ('A' for Active; 'I' for Inactive)
REMARK    1  A    between atoms: C_4  and  C_11
REMARK    2  A    between atoms: C_6  and  O_24
REMARK    3  A    between atoms: C_15  and  C_21
REMARK    4  A    between atoms: O_24  and  C_25
REMARK    5  A    between atoms: C_27  and  C_31
REMARK    6  A    between atoms: C_32  and  C_33
REMARK                            x       y       z     vdW  Elec       q    Type
REMARK                         _______ _______ _______ _____ _____    ______ ____
ROOT
ATOM      1  C   UNL A   1     -28.016  -0.814  28.878  0.00  0.00    +0.037 A 
ATOM      2  C   UNL A   1     -27.064  -0.119  28.608  0.00  0.00    +0.003 A 
ATOM      3  C   UNL A   1     -25.792  -0.430  29.076  0.00  0.00    +0.000 A 
ATOM      4  C   UNL A   1     -24.546   0.349  28.823  0.00  0.00    +0.000 A 
ATOM      5  C   UNL A   1     -23.241   0.022  29.332  0.00  0.00    +0.000 A 
ATOM      6  C   UNL A   1     -27.882  -1.899  29.863  0.00  0.00    +0.145 A 
ATOM      7  C   UNL A   1     -26.653  -2.314  30.314  0.00  0.00    +0.037 A 
ATOM      8  C   UNL A   1     -25.515  -1.561  29.979  0.00  0.00    +0.003 A 
ATOM      9  C   UNL A   1     -23.207  -1.229  30.031  0.00  0.00    +0.000 A 
ATOM     10  C   UNL A   1     -24.243  -1.936  30.388  0.00  0.00    +0.000 A 
ENDROOT
BRANCH   4  11
ATOM     11  C   UNL A   1     -24.577   1.565  27.957  0.00  0.00    +0.000 A 
ATOM     12  C   UNL A   1     -23.596   1.704  26.996  0.00  0.00    +0.000 A 
ATOM     13  C   UNL A   1     -25.487   2.542  28.200  0.00  0.00    +0.000 A 
ATOM     14  C   UNL A   1     -25.756   3.105  29.370  0.00  0.00    +0.007 A 
ATOM     15  C   UNL A   1     -26.711   4.096  29.606  0.00  0.00    +0.080 A 
ATOM     16  C   UNL A   1     -26.072   3.165  27.058  0.00  0.00    +0.000 A 
ATOM     17  C   UNL A   1     -26.988   4.245  27.193  0.00  0.00    +0.000 A 
ATOM     18  C   UNL A   1     -27.282   4.734  28.448  0.00  0.00    +0.007 A 
ATOM     19  C   UNL A   1     -23.893   1.994  25.709  0.00  0.00    +0.000 A 
ATOM     20  C   UNL A   1     -25.099   3.042  25.796  0.00  0.00    +0.000 A 
BRANCH  15  21
ATOM     21  C   UNL A   1     -27.103   4.541  30.990  0.00  0.00    +0.388 C 
ATOM     22  O   UNL A   1     -27.746   5.409  31.206  0.00  0.00    -0.241 OA
ATOM     23  O   UNL A   1     -26.561   3.751  31.921  0.00  0.00    -0.241 OA
ENDBRANCH  15  21
ENDBRANCH   4  11
BRANCH   6  24
ATOM     24  O   UNL A   1     -29.016  -2.607  30.156  0.00  0.00    -0.454 OA
BRANCH  24  25
ATOM     25  C   UNL A   1     -30.108  -1.991  30.618  0.00  0.00    +0.145 A 
ATOM     26  C   UNL A   1     -31.202  -2.538  30.103  0.00  0.00    +0.037 A 
ATOM     27  C   UNL A   1     -32.444  -1.830  30.183  0.00  0.00    +0.003 A 
ATOM     28  C   UNL A   1     -32.462  -0.696  31.032  0.00  0.00    +0.000 A 
ATOM     29  C   UNL A   1     -31.308  -0.211  31.571  0.00  0.00    +0.003 A 
ATOM     30  C   UNL A   1     -30.073  -0.819  31.303  0.00  0.00    +0.037 A 
BRANCH  27  31
ATOM     31  C   UNL A   1     -33.685  -2.422  29.751  0.00  0.00    +0.000 C 
ATOM     32  C   UNL A   1     -34.655  -2.581  30.316  0.00  0.00    -0.000 C 
BRANCH  32  33
ATOM     33  C   UNL A   1     -34.734  -2.191  31.751  0.00  0.00    -0.005 C 
ATOM     34  C   UNL A   1     -35.895  -2.492  32.448  0.00  0.00    -0.026 C 
ATOM     35  C   UNL A   1     -36.918  -3.102  31.723  0.00  0.00    +0.031 C 
ENDBRANCH  32  33
ENDBRANCH  27  31
ENDBRANCH  24  25
ENDBRANCH   6  24
TORSDOF 6
