MODEL 2639
MODEL 1
REMARK VINA RESULT:    -8.358      0.000      0.000
REMARK INTER + INTRA:         -14.024
REMARK INTER:                 -11.290
REMARK INTRA:                  -2.734
REMARK UNBOUND:                -2.734
REMARK  Name = No_2639-gen_results/8p0m/2024-11-26-14-13-15/
REMARK  6 active torsions:
REMARK  status: ('A' for Active; 'I' for Inactive)
REMARK    1  A    between atoms: C_4  and  C_11
REMARK    2  A    between atoms: C_6  and  O_24
REMARK    3  A    between atoms: C_15  and  C_21
REMARK    4  A    between atoms: O_24  and  C_25
REMARK    5  A    between atoms: C_27  and  C_31
REMARK    6  A    between atoms: C_32  and  C_33
REMARK                            x       y       z     vdW  Elec       q    Type
REMARK                         _______ _______ _______ _____ _____    ______ ____
ROOT
ATOM      1  C   UNL A   1     -32.386 -10.851   9.179  0.00  0.00    +0.037 A 
ATOM      2  C   UNL A   1     -32.166 -12.025   9.369  0.00  0.00    +0.003 A 
ATOM      3  C   UNL A   1     -31.535 -12.458  10.530  0.00  0.00    +0.000 A 
ATOM      4  C   UNL A   1     -31.199 -13.870  10.875  0.00  0.00    +0.000 A 
ATOM      5  C   UNL A   1     -30.528 -14.298  12.074  0.00  0.00    +0.000 A 
ATOM      6  C   UNL A   1     -31.821  -9.838  10.085  0.00  0.00    +0.145 A 
ATOM      7  C   UNL A   1     -31.251 -10.184  11.286  0.00  0.00    +0.037 A 
ATOM      8  C   UNL A   1     -31.025 -11.542  11.566  0.00  0.00    +0.003 A 
ATOM      9  C   UNL A   1     -30.304 -13.231  13.004  0.00  0.00    +0.000 A 
ATOM     10  C   UNL A   1     -30.469 -11.959  12.767  0.00  0.00    +0.000 A 
ENDROOT
BRANCH   4  11
ATOM     11  C   UNL A   1     -31.586 -14.985   9.961  0.00  0.00    +0.000 A 
ATOM     12  C   UNL A   1     -32.889 -15.438  10.003  0.00  0.00    +0.000 A 
ATOM     13  C   UNL A   1     -30.640 -15.590   9.199  0.00  0.00    +0.000 A 
ATOM     14  C   UNL A   1     -29.463 -16.045   9.605  0.00  0.00    +0.007 A 
ATOM     15  C   UNL A   1     -28.492 -16.647   8.803  0.00  0.00    +0.080 A 
ATOM     16  C   UNL A   1     -31.026 -15.952   7.874  0.00  0.00    +0.000 A 
ATOM     17  C   UNL A   1     -30.138 -16.650   7.010  0.00  0.00    +0.000 A 
ATOM     18  C   UNL A   1     -28.896 -17.028   7.474  0.00  0.00    +0.007 A 
ATOM     19  C   UNL A   1     -33.632 -15.585   8.883  0.00  0.00    +0.000 A 
ATOM     20  C   UNL A   1     -32.610 -16.152   7.789  0.00  0.00    +0.000 A 
BRANCH  15  21
ATOM     21  C   UNL A   1     -27.101 -16.953   9.292  0.00  0.00    +0.388 C 
ATOM     22  O   UNL A   1     -26.179 -16.593   8.809  0.00  0.00    -0.241 OA
ATOM     23  O   UNL A   1     -27.133 -17.725  10.381  0.00  0.00    -0.241 OA
ENDBRANCH  15  21
ENDBRANCH   4  11
BRANCH   6  24
ATOM     24  O   UNL A   1     -32.069  -8.529   9.774  0.00  0.00    -0.454 OA
BRANCH  24  25
ATOM     25  C   UNL A   1     -31.101  -7.744   9.291  0.00  0.00    +0.145 A 
ATOM     26  C   UNL A   1     -30.168  -8.474   8.693  0.00  0.00    +0.037 A 
ATOM     27  C   UNL A   1     -28.891  -7.889   8.415  0.00  0.00    +0.003 A 
ATOM     28  C   UNL A   1     -28.799  -6.485   8.580  0.00  0.00    +0.000 A 
ATOM     29  C   UNL A   1     -29.815  -5.784   9.158  0.00  0.00    +0.003 A 
ATOM     30  C   UNL A   1     -30.977  -6.429   9.605  0.00  0.00    +0.037 A 
BRANCH  27  31
ATOM     31  C   UNL A   1     -27.882  -8.590   7.662  0.00  0.00    +0.000 C 
ATOM     32  C   UNL A   1     -27.253  -9.491   7.943  0.00  0.00    -0.000 C 
BRANCH  32  33
ATOM     33  C   UNL A   1     -27.392 -10.079   9.304  0.00  0.00    -0.005 C 
ATOM     34  C   UNL A   1     -28.025 -11.307   9.425  0.00  0.00    -0.026 C 
ATOM     35  C   UNL A   1     -28.523 -11.871   8.251  0.00  0.00    +0.031 C 
ENDBRANCH  32  33
ENDBRANCH  27  31
ENDBRANCH  24  25
ENDBRANCH   6  24
TORSDOF 6
ENDMDL
ENDMDL
