MODEL 263
MODEL 1
REMARK VINA RESULT:    -6.351      0.000      0.000
REMARK INTER + INTRA:          -6.850
REMARK INTER:                  -6.722
REMARK INTRA:                  -0.128
REMARK UNBOUND:                -0.128
REMARK  Name = No_263-gen_results/8p0m/2024-11-26-14-13-15/
REMARK  1 active torsions:
REMARK  status: ('A' for Active; 'I' for Inactive)
REMARK    1  A    between atoms: C_3  and  C_7
REMARK                            x       y       z     vdW  Elec       q    Type
REMARK                         _______ _______ _______ _____ _____    ______ ____
ROOT
ATOM      1  C   UNL A   1     -23.454  -1.538  28.905  0.00  0.00    +0.112 A 
ATOM      2  N   UNL A   1     -22.431  -1.492  29.250  0.00  0.00    -0.222 NA
ATOM      3  C   UNL A   1     -24.002  -0.449  28.088  0.00  0.00    +0.177 A 
ATOM      4  C   UNL A   1     -23.582   0.387  27.698  0.00  0.00    +0.132 A 
ATOM      5  C   UNL A   1     -21.609  -0.343  29.025  0.00  0.00    +0.199 A 
ATOM      6  N   UNL A   1     -22.145   0.606  28.203  0.00  0.00    -0.220 NA
ATOM      7  F   UNL A   1     -25.324  -0.879  27.553  0.00  0.00    -0.201 F 
ENDROOT
BRANCH   1  10
ATOM      8  C   UNL A   1     -25.597  -2.588  29.845  0.00  0.00    +0.002 A 
ATOM      9  C   UNL A   1     -26.185  -3.456  29.950  0.00  0.00    +0.000 A 
ATOM     10  C   UNL A   1     -24.364  -2.705  29.166  0.00  0.00    +0.020 A 
ATOM     11  C   UNL A   1     -23.920  -3.911  28.660  0.00  0.00    +0.002 A 
ATOM     12  C   UNL A   1     -25.949  -4.845  29.507  0.00  0.00    +0.000 A 
ATOM     13  C   UNL A   1     -24.778  -5.001  28.853  0.00  0.00    +0.000 A 
ENDBRANCH   1  10
TORSDOF 1
ENDMDL
ENDMDL
