REMARK  Name = No_264-gen_results/8p0m/2024-11-26-14-13-15/
REMARK  2 active torsions:
REMARK  status: ('A' for Active; 'I' for Inactive)
REMARK    1  A    between atoms: C_3  and  C_4
REMARK    2  A    between atoms: N_5  and  C_6
REMARK                            x       y       z     vdW  Elec       q    Type
REMARK                         _______ _______ _______ _____ _____    ______ ____
ROOT
ATOM      1  O   UNL A   1     -28.123  -1.335  28.487  0.00  0.00    -0.275 OA
ATOM      2  C   UNL A   1     -27.064  -0.824  28.869  0.00  0.00    +0.229 C 
ATOM      3  C   UNL A   1     -25.946  -1.040  28.849  0.00  0.00    +0.077 C 
ATOM      4  N   UNL A   1     -27.290   0.408  29.741  0.00  0.00    -0.259 N 
ATOM      5  C   UNL A   1     -24.728  -0.073  29.040  0.00  0.00    +0.011 C 
ATOM      6  C   UNL A   1     -24.880   1.195  28.899  0.00  0.00    +0.022 C 
ATOM      7  C   UNL A   1     -26.268   1.559  29.627  0.00  0.00    +0.098 C 
ENDROOT
BRANCH   4   8
ATOM      8  C   UNL A   1     -28.531   0.946  29.976  0.00  0.00    +0.054 A 
ATOM      9  C   UNL A   1     -28.805   1.700  30.953  0.00  0.00    +0.015 A 
ATOM     10  C   UNL A   1     -30.129   2.157  31.283  0.00  0.00    +0.001 A 
ATOM     11  C   UNL A   1     -31.165   1.611  30.516  0.00  0.00    +0.000 A 
ATOM     12  C   UNL A   1     -30.924   0.722  29.494  0.00  0.00    +0.001 A 
ATOM     13  C   UNL A   1     -29.666   0.348  29.249  0.00  0.00    +0.015 A 
ENDBRANCH   4   8
BRANCH   3  14
ATOM     14  C   UNL A   1     -25.352  -2.252  28.547  0.00  0.00    +0.009 C 
ATOM     15  C   UNL A   1     -24.808  -3.094  29.655  0.00  0.00    +0.001 C 
ENDBRANCH   3  14
TORSDOF 2
