REMARK  Name = No_2640-gen_results/8p0m/2024-11-26-14-13-15/
REMARK  2 active torsions:
REMARK  status: ('A' for Active; 'I' for Inactive)
REMARK    1  A    between atoms: C_4  and  C_7
REMARK    2  A    between atoms: C_7  and  C_8
REMARK                            x       y       z     vdW  Elec       q    Type
REMARK                         _______ _______ _______ _____ _____    ______ ____
ROOT
ATOM      1  C   UNL A   1     -28.016  -0.814  28.878  0.00  0.00    +0.042 A 
ATOM      2  C   UNL A   1     -28.469  -0.785  29.829  0.00  0.00    +0.003 A 
ATOM      3  C   UNL A   1     -26.546  -0.876  28.850  0.00  0.00    +0.192 A 
ATOM      4  C   UNL A   1     -25.804  -1.032  30.057  0.00  0.00    +0.021 A 
ATOM      5  C   UNL A   1     -26.537  -1.039  31.217  0.00  0.00    -0.001 A 
ATOM      6  C   UNL A   1     -27.884  -0.953  31.186  0.00  0.00    -0.000 A 
ATOM      7  O   UNL A   1     -25.801  -0.841  27.703  0.00  0.00    -0.287 OA
ENDROOT
BRANCH   4   8
ATOM      8  C   UNL A   1     -24.412  -1.254  30.230  0.00  0.00    +0.056 C 
BRANCH   8   9
ATOM      9  C   UNL A   1     -23.457  -0.340  29.692  0.00  0.00    -0.018 A 
ATOM     10  C   UNL A   1     -23.610   1.004  29.808  0.00  0.00    -0.004 A 
ATOM     11  C   UNL A   1     -23.672   1.828  28.812  0.00  0.00    -0.000 A 
ATOM     12  C   UNL A   1     -22.683   1.505  27.769  0.00  0.00    -0.000 A 
ATOM     13  C   UNL A   1     -22.081   0.305  27.766  0.00  0.00    -0.000 A 
ATOM     14  C   UNL A   1     -22.590  -0.717  28.653  0.00  0.00    -0.004 A 
ENDBRANCH   8   9
ENDBRANCH   4   8
TORSDOF 2
