MODEL 2640
MODEL 1
REMARK VINA RESULT:    -6.500      0.000      0.000
REMARK INTER + INTRA:          -7.728
REMARK INTER:                  -7.259
REMARK INTRA:                  -0.469
REMARK UNBOUND:                -0.469
REMARK  Name = No_2640-gen_results/8p0m/2024-11-26-14-13-15/
REMARK  2 active torsions:
REMARK  status: ('A' for Active; 'I' for Inactive)
REMARK    1  A    between atoms: C_4  and  C_7
REMARK    2  A    between atoms: C_7  and  C_8
REMARK                            x       y       z     vdW  Elec       q    Type
REMARK                         _______ _______ _______ _____ _____    ______ ____
ROOT
ATOM      1  C   UNL A   1     -26.319  -4.264  29.673  0.00  0.00    +0.042 A 
ATOM      2  C   UNL A   1     -25.541  -4.860  29.286  0.00  0.00    +0.003 A 
ATOM      3  C   UNL A   1     -26.018  -2.839  29.878  0.00  0.00    +0.192 A 
ATOM      4  C   UNL A   1     -24.780  -2.288  29.435  0.00  0.00    +0.021 A 
ATOM      5  C   UNL A   1     -23.886  -3.177  28.893  0.00  0.00    -0.001 A 
ATOM      6  C   UNL A   1     -24.205  -4.482  28.752  0.00  0.00    -0.000 A 
ATOM      7  O   UNL A   1     -26.888  -1.947  30.443  0.00  0.00    -0.287 OA
ENDROOT
BRANCH   4   8
ATOM      8  C   UNL A   1     -24.361  -0.932  29.409  0.00  0.00    +0.056 C 
BRANCH   8   9
ATOM      9  C   UNL A   1     -23.838  -0.355  28.213  0.00  0.00    -0.018 A 
ATOM     10  C   UNL A   1     -22.668   0.333  28.204  0.00  0.00    -0.004 A 
ATOM     11  C   UNL A   1     -22.538   1.564  27.826  0.00  0.00    -0.000 A 
ATOM     12  C   UNL A   1     -23.320   1.851  26.611  0.00  0.00    -0.000 A 
ATOM     13  C   UNL A   1     -24.279   1.000  26.215  0.00  0.00    -0.000 A 
ATOM     14  C   UNL A   1     -24.670  -0.057  27.121  0.00  0.00    -0.004 A 
ENDBRANCH   8   9
ENDBRANCH   4   8
TORSDOF 2
ENDMDL
ENDMDL
