REMARK  Name = No_2641-gen_results/8p0m/2024-11-26-14-13-15/
REMARK  0 active torsions:
REMARK  status: ('A' for Active; 'I' for Inactive)
REMARK                            x       y       z     vdW  Elec       q    Type
REMARK                         _______ _______ _______ _____ _____    ______ ____
ROOT
ATOM      1  C   UNL A   1     -28.016  -0.814  28.878  0.00  0.00    +0.002 A 
ATOM      2  C   UNL A   1     -28.469  -0.785  29.829  0.00  0.00    +0.019 A 
ATOM      3  C   UNL A   1     -27.136   0.236  28.535  0.00  0.00    +0.000 A 
ATOM      4  C   UNL A   1     -26.805   1.051  29.276  0.00  0.00    +0.000 A 
ATOM      5  C   UNL A   1     -29.412  -1.889  30.314  0.00  0.00    +0.099 A 
ATOM      6  C   UNL A   1     -27.321   1.128  30.607  0.00  0.00    +0.000 A 
ATOM      7  C   UNL A   1     -28.197   0.082  30.980  0.00  0.00    +0.003 A 
ATOM      8  N   UNL A   1     -29.842  -1.830  31.583  0.00  0.00    -0.242 NA
ATOM      9  C   UNL A   1     -29.619  -0.936  32.506  0.00  0.00    +0.099 A 
ATOM     10  C   UNL A   1     -28.791   0.049  32.269  0.00  0.00    +0.021 A 
ATOM     11  C   UNL A   1     -26.468   0.193  27.075  0.00  0.00    +0.000 A 
ATOM     12  C   UNL A   1     -26.254   1.047  26.415  0.00  0.00    +0.000 A 
ATOM     13  C   UNL A   1     -25.979   2.360  27.092  0.00  0.00    +0.000 A 
ATOM     14  C   UNL A   1     -26.339   2.371  28.521  0.00  0.00    +0.000 A 
ENDROOT
TORSDOF 0
