MODEL 2641
MODEL 1
REMARK VINA RESULT:    -6.556      0.000      0.000
REMARK INTER + INTRA:          -6.556
REMARK INTER:                  -6.556
REMARK INTRA:                   0.000
REMARK UNBOUND:                 0.000
REMARK  Name = No_2641-gen_results/8p0m/2024-11-26-14-13-15/
REMARK  0 active torsions:
REMARK  status: ('A' for Active; 'I' for Inactive)
REMARK                            x       y       z     vdW  Elec       q    Type
REMARK                         _______ _______ _______ _____ _____    ______ ____
ROOT
ATOM      1  C   UNL A   1     -25.730  -1.072  29.192  0.00  0.00    +0.002 A 
ATOM      2  C   UNL A   1     -25.035  -0.369  28.826  0.00  0.00    +0.019 A 
ATOM      3  C   UNL A   1     -25.285  -2.398  29.384  0.00  0.00    +0.000 A 
ATOM      4  C   UNL A   1     -24.187  -2.720  29.272  0.00  0.00    +0.000 A 
ATOM      5  C   UNL A   1     -25.402   1.102  28.613  0.00  0.00    +0.099 A 
ATOM      6  C   UNL A   1     -23.167  -1.815  28.841  0.00  0.00    +0.000 A 
ATOM      7  C   UNL A   1     -23.583  -0.477  28.651  0.00  0.00    +0.003 A 
ATOM      8  N   UNL A   1     -24.421   1.946  28.263  0.00  0.00    -0.242 NA
ATOM      9  C   UNL A   1     -23.160   1.717  28.024  0.00  0.00    +0.099 A 
ATOM     10  C   UNL A   1     -22.671   0.518  28.210  0.00  0.00    +0.021 A 
ATOM     11  C   UNL A   1     -26.358  -3.466  29.922  0.00  0.00    +0.000 A 
ATOM     12  C   UNL A   1     -26.445  -4.525  29.636  0.00  0.00    +0.000 A 
ATOM     13  C   UNL A   1     -25.174  -5.207  29.214  0.00  0.00    +0.000 A 
ATOM     14  C   UNL A   1     -24.064  -4.274  28.955  0.00  0.00    +0.000 A 
ENDROOT
TORSDOF 0
ENDMDL
ENDMDL
