MODEL 2642
MODEL 1
REMARK VINA RESULT:    -6.576      0.000      0.000
REMARK INTER + INTRA:          -7.300
REMARK INTER:                  -6.961
REMARK INTRA:                  -0.339
REMARK UNBOUND:                -0.339
REMARK  Name = No_2642-gen_results/8p0m/2024-11-26-14-13-15/
REMARK  1 active torsions:
REMARK  status: ('A' for Active; 'I' for Inactive)
REMARK    1  A    between atoms: C_3  and  C_7
REMARK                            x       y       z     vdW  Elec       q    Type
REMARK                         _______ _______ _______ _____ _____    ______ ____
ROOT
ATOM      1  C   UNL A   1     -24.684  -5.022  28.852  0.00  0.00    +0.000 A 
ATOM      2  C   UNL A   1     -24.052  -3.998  28.731  0.00  0.00    +0.000 A 
ATOM      3  C   UNL A   1     -24.520  -2.731  29.032  0.00  0.00    +0.000 A 
ATOM      4  C   UNL A   1     -25.844  -2.636  29.554  0.00  0.00    +0.000 A 
ATOM      5  C   UNL A   1     -26.465  -3.795  29.827  0.00  0.00    +0.000 A 
ATOM      6  C   UNL A   1     -25.927  -4.947  29.550  0.00  0.00    +0.000 A 
ENDROOT
BRANCH   3   7
ATOM      7  C   UNL A   1     -23.743  -1.475  28.732  0.00  0.00    +0.000 A 
ATOM      8  C   UNL A   1     -24.450  -0.564  28.043  0.00  0.00    +0.000 A 
ATOM      9  C   UNL A   1     -23.755   0.627  27.541  0.00  0.00    +0.000 A 
ATOM     10  C   UNL A   1     -22.540   0.930  28.125  0.00  0.00    +0.000 A 
ATOM     11  C   UNL A   1     -22.487  -1.136  29.170  0.00  0.00    +0.000 A 
ATOM     12  C   UNL A   1     -21.841  -0.001  28.806  0.00  0.00    +0.000 A 
ENDBRANCH   3   7
TORSDOF 1
ENDMDL
ENDMDL
