MODEL 2643
MODEL 1
REMARK VINA RESULT:    -7.325      0.000      0.000
REMARK INTER + INTRA:          -9.401
REMARK INTER:                  -8.609
REMARK INTRA:                  -0.791
REMARK UNBOUND:                -0.791
REMARK  Name = No_2643-gen_results/8p0m/2024-11-26-14-13-15/
REMARK  3 active torsions:
REMARK  status: ('A' for Active; 'I' for Inactive)
REMARK    1  A    between atoms: C_3  and  C_7
REMARK    2  A    between atoms: C_7  and  C_8
REMARK    3  A    between atoms: C_8  and  C_9
REMARK                            x       y       z     vdW  Elec       q    Type
REMARK                         _______ _______ _______ _____ _____    ______ ____
ROOT
ATOM      1  C   UNL A   1     -24.522  -1.270  29.780  0.00  0.00    +0.177 C 
ATOM      2  O   UNL A   1     -25.254  -0.637  30.543  0.00  0.00    -0.291 OA
ENDROOT
BRANCH   1   5
ATOM      3  C   UNL A   1     -26.006  -3.319  29.964  0.00  0.00    +0.003 A 
ATOM      4  C   UNL A   1     -26.200  -4.317  29.685  0.00  0.00    +0.000 A 
ATOM      5  C   UNL A   1     -24.780  -2.752  29.480  0.00  0.00    +0.035 A 
ATOM      6  C   UNL A   1     -23.843  -3.469  28.853  0.00  0.00    +0.003 A 
ATOM      7  C   UNL A   1     -25.328  -5.282  29.031  0.00  0.00    +0.000 A 
ATOM      8  C   UNL A   1     -24.180  -4.779  28.597  0.00  0.00    +0.000 A 
ENDBRANCH   1   5
BRANCH   1   9
ATOM      9  C   UNL A   1     -23.274  -0.743  29.297  0.00  0.00    +0.084 C 
ATOM     10  C   UNL A   1     -22.389  -0.413  30.401  0.00  0.00    +0.013 C 
BRANCH   9  11
ATOM     11  C   UNL A   1     -23.279   0.132  28.132  0.00  0.00    -0.015 A 
ATOM     12  C   UNL A   1     -22.291   1.051  27.984  0.00  0.00    -0.004 A 
ATOM     13  C   UNL A   1     -22.226   1.942  26.880  0.00  0.00    -0.000 A 
ATOM     14  C   UNL A   1     -23.359   1.961  25.956  0.00  0.00    -0.000 A 
ATOM     15  C   UNL A   1     -24.364   1.069  26.167  0.00  0.00    -0.000 A 
ATOM     16  C   UNL A   1     -24.366   0.176  27.216  0.00  0.00    -0.004 A 
ENDBRANCH   9  11
ENDBRANCH   1   9
TORSDOF 3
ENDMDL
ENDMDL
