MODEL 2644
MODEL 1
REMARK VINA RESULT:    -7.178      0.000      0.000
REMARK INTER + INTRA:          -8.222
REMARK INTER:                  -8.017
REMARK INTRA:                  -0.205
REMARK UNBOUND:                -0.205
REMARK  Name = No_2644-gen_results/8p0m/2024-11-26-14-13-15/
REMARK  2 active torsions:
REMARK  status: ('A' for Active; 'I' for Inactive)
REMARK    1  A    between atoms: C_1  and  C_9
REMARK    2  A    between atoms: C_2  and  C_3
REMARK                            x       y       z     vdW  Elec       q    Type
REMARK                         _______ _______ _______ _____ _____    ______ ____
ROOT
ATOM      1  C   UNL A   1     -24.607  -1.151  28.900  0.00  0.00    +0.143 C 
ATOM      2  C   UNL A   1     -24.812  -2.485  29.036  0.00  0.00    -0.007 A 
ATOM      3  C   UNL A   1     -26.025  -3.161  29.554  0.00  0.00    -0.024 A 
ATOM      4  C   UNL A   1     -27.029  -2.322  30.082  0.00  0.00    +0.034 C 
ATOM      5  C   UNL A   1     -26.865  -0.958  30.032  0.00  0.00    +0.070 C 
ATOM      6  C   UNL A   1     -25.782  -0.377  29.536  0.00  0.00    +0.167 C 
ATOM      7  C   UNL A   1     -23.798  -3.471  28.576  0.00  0.00    -0.003 A 
ATOM      8  C   UNL A   1     -24.113  -4.761  28.558  0.00  0.00    -0.000 A 
ATOM      9  C   UNL A   1     -25.098  -5.342  29.300  0.00  0.00    -0.000 A 
ATOM     10  C   UNL A   1     -26.135  -4.599  29.721  0.00  0.00    -0.004 A 
ATOM     11  O   UNL A   1     -25.654   0.960  29.476  0.00  0.00    -0.295 OA
ENDROOT
BRANCH   1  13
ATOM     12  C   UNL A   1     -22.909   0.431  28.202  0.00  0.00    +0.009 C 
ATOM     13  C   UNL A   1     -23.633  -0.506  28.448  0.00  0.00    -0.072 C 
BRANCH  12  14
ATOM     14  C   UNL A   1     -22.603   1.490  27.436  0.00  0.00    +0.459 C 
ATOM     15  F   UNL A   1     -22.891   2.517  27.828  0.00  0.00    -0.159 F 
ATOM     16  F   UNL A   1     -23.199   1.319  26.238  0.00  0.00    -0.159 F 
ATOM     17  F   UNL A   1     -21.279   1.489  27.172  0.00  0.00    -0.159 F 
ENDBRANCH  12  14
ENDBRANCH   1  13
TORSDOF 2
ENDMDL
ENDMDL
