REMARK  Name = No_2644-gen_results/8p0m/2024-11-26-14-13-15/
REMARK  2 active torsions:
REMARK  status: ('A' for Active; 'I' for Inactive)
REMARK    1  A    between atoms: C_1  and  C_9
REMARK    2  A    between atoms: C_2  and  C_3
REMARK                            x       y       z     vdW  Elec       q    Type
REMARK                         _______ _______ _______ _____ _____    ______ ____
ROOT
ATOM      1  C   UNL A   1     -26.407   0.883  28.242  0.00  0.00    +0.143 C 
ATOM      2  C   UNL A   1     -25.085   1.171  28.339  0.00  0.00    -0.007 A 
ATOM      3  C   UNL A   1     -24.401   2.412  27.904  0.00  0.00    -0.024 A 
ATOM      4  C   UNL A   1     -25.189   3.345  27.198  0.00  0.00    +0.034 C 
ATOM      5  C   UNL A   1     -26.528   3.094  27.011  0.00  0.00    +0.070 C 
ATOM      6  C   UNL A   1     -27.123   1.988  27.435  0.00  0.00    +0.167 C 
ATOM      7  C   UNL A   1     -24.140   0.236  29.004  0.00  0.00    -0.003 A 
ATOM      8  C   UNL A   1     -22.895   0.635  29.240  0.00  0.00    -0.000 A 
ATOM      9  C   UNL A   1     -22.250   1.636  28.577  0.00  0.00    -0.000 A 
ATOM     10  C   UNL A   1     -22.965   2.611  27.992  0.00  0.00    -0.004 A 
ATOM     11  O   UNL A   1     -28.439   1.775  27.261  0.00  0.00    -0.295 OA
ENDROOT
BRANCH   1  13
ATOM     12  C   UNL A   1     -28.016  -0.814  28.878  0.00  0.00    +0.009 C 
ATOM     13  C   UNL A   1     -27.064  -0.119  28.608  0.00  0.00    -0.072 C 
BRANCH  12  14
ATOM     14  C   UNL A   1     -28.957  -1.203  29.753  0.00  0.00    +0.459 C 
ATOM     15  F   UNL A   1     -28.996  -0.661  30.751  0.00  0.00    -0.159 F 
ATOM     16  F   UNL A   1     -28.774  -2.517  29.999  0.00  0.00    -0.159 F 
ATOM     17  F   UNL A   1     -30.174  -1.121  29.174  0.00  0.00    -0.159 F 
ENDBRANCH  12  14
ENDBRANCH   1  13
TORSDOF 2
