MODEL 2645
MODEL 1
REMARK VINA RESULT:    -4.283      0.000      0.000
REMARK INTER + INTRA:          -4.283
REMARK INTER:                  -4.283
REMARK INTRA:                   0.000
REMARK UNBOUND:                 0.000
REMARK  Name = No_2645-gen_results/8p0m/2024-11-26-14-13-15/
REMARK  0 active torsions:
REMARK  status: ('A' for Active; 'I' for Inactive)
REMARK                            x       y       z     vdW  Elec       q    Type
REMARK                         _______ _______ _______ _____ _____    ______ ____
ROOT
ATOM      1  C   UNL A   1     -26.067  -4.756  29.676  0.00  0.00    +0.000 A 
ATOM      2  C   UNL A   1     -26.128  -3.549  29.716  0.00  0.00    +0.000 A 
ATOM      3  C   UNL A   1     -25.112  -2.718  29.286  0.00  0.00    +0.000 A 
ATOM      4  C   UNL A   1     -23.948  -3.319  28.729  0.00  0.00    +0.000 A 
ATOM      5  C   UNL A   1     -23.999  -4.659  28.549  0.00  0.00    +0.000 A 
ATOM      6  C   UNL A   1     -25.032  -5.372  28.956  0.00  0.00    +0.000 A 
ENDROOT
TORSDOF 0
ENDMDL
ENDMDL
