MODEL 2646
MODEL 1
REMARK VINA RESULT:    -6.889      0.000      0.000
REMARK INTER + INTRA:          -9.153
REMARK INTER:                  -8.499
REMARK INTRA:                  -0.653
REMARK UNBOUND:                -0.653
REMARK  Name = No_2646-gen_results/8p0m/2024-11-26-14-13-15/
REMARK  4 active torsions:
REMARK  status: ('A' for Active; 'I' for Inactive)
REMARK    1  A    between atoms: C_3  and  C_8
REMARK    2  A    between atoms: C_6  and  O_7
REMARK    3  A    between atoms: O_7  and  C_14
REMARK    4  A    between atoms: C_19  and  C_20
REMARK                            x       y       z     vdW  Elec       q    Type
REMARK                         _______ _______ _______ _____ _____    ______ ____
ROOT
ATOM      1  C   UNL A   1     -26.061   0.794  24.849  0.00  0.00    +0.037 A 
ATOM      2  C   UNL A   1     -27.050   0.276  24.385  0.00  0.00    +0.003 A 
ATOM      3  C   UNL A   1     -28.270   0.944  24.367  0.00  0.00    +0.000 A 
ATOM      4  C   UNL A   1     -28.403   2.257  24.943  0.00  0.00    +0.003 A 
ATOM      5  C   UNL A   1     -27.216   2.772  25.478  0.00  0.00    +0.037 A 
ATOM      6  C   UNL A   1     -26.092   2.092  25.486  0.00  0.00    +0.145 A 
ENDROOT
BRANCH   3   7
ATOM      7  C   UNL A   1     -29.566   0.410  23.808  0.00  0.00    +0.000 A 
ATOM      8  C   UNL A   1     -30.444   1.230  23.258  0.00  0.00    +0.000 A 
ATOM      9  C   UNL A   1     -31.714   0.725  22.794  0.00  0.00    +0.000 A 
ATOM     10  C   UNL A   1     -32.099  -0.610  23.014  0.00  0.00    +0.000 A 
ATOM     11  C   UNL A   1     -29.817  -1.010  23.797  0.00  0.00    +0.000 A 
ATOM     12  C   UNL A   1     -31.160  -1.459  23.464  0.00  0.00    +0.000 A 
ENDBRANCH   3   7
BRANCH   6  13
ATOM     13  O   UNL A   1     -24.992   2.650  26.061  0.00  0.00    -0.454 OA
BRANCH  13  14
ATOM     14  C   UNL A   1     -24.122   1.915  26.775  0.00  0.00    +0.145 A 
ATOM     15  C   UNL A   1     -23.030   1.957  26.730  0.00  0.00    +0.038 A 
ATOM     16  C   UNL A   1     -22.129   1.204  27.647  0.00  0.00    +0.010 A 
ATOM     17  C   UNL A   1     -24.847   1.035  27.728  0.00  0.00    +0.038 A 
ATOM     18  C   UNL A   1     -24.133   0.319  28.640  0.00  0.00    +0.010 A 
ATOM     19  C   UNL A   1     -22.739   0.368  28.530  0.00  0.00    +0.080 A 
BRANCH  19  20
ATOM     20  C   UNL A   1     -21.921  -0.463  29.462  0.00  0.00    +0.388 C 
ATOM     21  O   UNL A   1     -22.218  -0.605  30.561  0.00  0.00    -0.241 OA
ATOM     22  O   UNL A   1     -20.874  -0.980  28.881  0.00  0.00    -0.241 OA
ENDBRANCH  19  20
ENDBRANCH  13  14
ENDBRANCH   6  13
TORSDOF 4
ENDMDL
ENDMDL
