REMARK  Name = No_2646-gen_results/8p0m/2024-11-26-14-13-15/
REMARK  4 active torsions:
REMARK  status: ('A' for Active; 'I' for Inactive)
REMARK    1  A    between atoms: C_3  and  C_8
REMARK    2  A    between atoms: C_6  and  O_7
REMARK    3  A    between atoms: O_7  and  C_14
REMARK    4  A    between atoms: C_19  and  C_20
REMARK                            x       y       z     vdW  Elec       q    Type
REMARK                         _______ _______ _______ _____ _____    ______ ____
ROOT
ATOM      1  C   UNL A   1     -28.016  -0.814  28.878  0.00  0.00    +0.037 A 
ATOM      2  C   UNL A   1     -27.064  -0.119  28.608  0.00  0.00    +0.003 A 
ATOM      3  C   UNL A   1     -25.792  -0.430  29.076  0.00  0.00    +0.000 A 
ATOM      4  C   UNL A   1     -25.576  -1.565  29.936  0.00  0.00    +0.003 A 
ATOM      5  C   UNL A   1     -26.735  -2.300  30.217  0.00  0.00    +0.037 A 
ATOM      6  C   UNL A   1     -27.918  -1.954  29.763  0.00  0.00    +0.145 A 
ENDROOT
BRANCH   3   7
ATOM      7  C   UNL A   1     -24.529   0.349  28.800  0.00  0.00    +0.000 A 
ATOM      8  C   UNL A   1     -24.481   1.211  27.800  0.00  0.00    +0.000 A 
ATOM      9  C   UNL A   1     -23.248   1.897  27.495  0.00  0.00    +0.000 A 
ATOM     10  C   UNL A   1     -22.050   1.589  28.164  0.00  0.00    +0.000 A 
ATOM     11  C   UNL A   1     -23.393   0.217  29.679  0.00  0.00    +0.000 A 
ATOM     12  C   UNL A   1     -22.133   0.803  29.251  0.00  0.00    +0.000 A 
ENDBRANCH   3   7
BRANCH   6  13
ATOM     13  O   UNL A   1     -29.000  -2.701  30.115  0.00  0.00    -0.454 OA
BRANCH  13  14
ATOM     14  C   UNL A   1     -30.125  -2.133  30.582  0.00  0.00    +0.145 A 
ATOM     15  C   UNL A   1     -30.223  -1.144  31.040  0.00  0.00    +0.038 A 
ATOM     16  C   UNL A   1     -31.526  -0.526  31.415  0.00  0.00    +0.010 A 
ATOM     17  C   UNL A   1     -31.293  -3.019  30.339  0.00  0.00    +0.038 A 
ATOM     18  C   UNL A   1     -32.543  -2.553  30.613  0.00  0.00    +0.010 A 
ATOM     19  C   UNL A   1     -32.629  -1.301  31.230  0.00  0.00    +0.080 A 
BRANCH  19  20
ATOM     20  C   UNL A   1     -33.977  -0.788  31.616  0.00  0.00    +0.388 C 
ATOM     21  O   UNL A   1     -34.171  -0.320  32.645  0.00  0.00    -0.241 OA
ATOM     22  O   UNL A   1     -34.858  -0.937  30.666  0.00  0.00    -0.241 OA
ENDBRANCH  19  20
ENDBRANCH  13  14
ENDBRANCH   6  13
TORSDOF 4
