MODEL 2647
MODEL 1
REMARK VINA RESULT:    -7.196      0.000      0.000
REMARK INTER + INTRA:         -10.892
REMARK INTER:                 -10.140
REMARK INTRA:                  -0.752
REMARK UNBOUND:                -0.752
REMARK  Name = No_2647-gen_results/8p0m/2024-11-26-14-13-15/
REMARK  7 active torsions:
REMARK  status: ('A' for Active; 'I' for Inactive)
REMARK    1  A    between atoms: C_2  and  C_3
REMARK    2  A    between atoms: N_4  and  C_10
REMARK    3  A    between atoms: C_8  and  C_11
REMARK    4  A    between atoms: C_10  and  C_15
REMARK    5  A    between atoms: C_10  and  C_23
REMARK    6  A    between atoms: N_25  and  C_27
REMARK    7  A    between atoms: C_27  and  C_28
REMARK                            x       y       z     vdW  Elec       q    Type
REMARK                         _______ _______ _______ _____ _____    ______ ____
ROOT
ATOM      1  C   UNL A   1     -23.963  -1.486  29.762  0.00  0.00    +0.197 C 
ENDROOT
BRANCH   1   2
ATOM      2  C   UNL A   1     -24.484  -2.495  29.427  0.00  0.00    +0.048 A 
ATOM      3  C   UNL A   1     -23.756  -3.644  28.857  0.00  0.00    +0.001 A 
ATOM      4  C   UNL A   1     -24.333  -4.879  28.664  0.00  0.00    +0.003 A 
ATOM      5  C   UNL A   1     -25.614  -5.160  29.228  0.00  0.00    +0.045 A 
ATOM      6  C   UNL A   1     -26.336  -4.143  29.901  0.00  0.00    +0.234 A 
ATOM      7  C   UNL A   1     -25.819  -2.962  29.979  0.00  0.00    +0.232 A 
ATOM      8  O   UNL A   1     -26.854  -2.233  29.274  0.00  0.00    -0.283 OA
ATOM      9  O   UNL A   1     -27.542  -4.508  30.336  0.00  0.00    -0.283 OA
ENDBRANCH   1   2
BRANCH   1  10
ATOM     10  C   UNL A   1     -22.893  -0.707  29.119  0.00  0.00    +0.250 C 
ATOM     11  O   UNL A   1     -21.826  -0.725  29.307  0.00  0.00    -0.273 OA
ATOM     12  N   UNL A   1     -23.502   0.293  28.289  0.00  0.00    -0.268 N 
ATOM     13  C   UNL A   1     -22.669   1.261  27.619  0.00  0.00    +0.115 C 
BRANCH  12  14
ATOM     14  C   UNL A   1     -24.894   0.420  28.009  0.00  0.00    +0.197 C 
BRANCH  14  15
ATOM     15  C   UNL A   1     -25.436  -0.095  26.841  0.00  0.00    +0.416 C 
ATOM     16  F   UNL A   1     -25.228  -1.013  26.438  0.00  0.00    -0.168 F 
ATOM     17  F   UNL A   1     -26.852   0.077  27.060  0.00  0.00    -0.168 F 
ATOM     18  F   UNL A   1     -25.325   0.858  25.817  0.00  0.00    -0.168 F 
ENDBRANCH  14  15
ENDBRANCH  12  14
ENDBRANCH   1  10
BRANCH   1  21
ATOM     19  O   UNL A   1     -23.019  -1.164  32.337  0.00  0.00    -0.268 OA
ATOM     20  C   UNL A   1     -23.957  -0.559  32.049  0.00  0.00    +0.266 C 
ATOM     21  N   UNL A   1     -24.602  -0.639  30.725  0.00  0.00    -0.189 NA
BRANCH  20  22
ATOM     22  C   UNL A   1     -24.644   0.194  32.980  0.00  0.00    +0.066 A 
ATOM     23  C   UNL A   1     -25.350   1.383  32.661  0.00  0.00    +0.062 A 
ATOM     24  C   UNL A   1     -26.016   2.125  33.670  0.00  0.00    +0.012 A 
ATOM     25  C   UNL A   1     -26.744   1.699  34.483  0.00  0.00    +0.005 A 
ATOM     26  C   UNL A   1     -26.458   0.243  34.902  0.00  0.00    +0.048 A 
ATOM     27  C   UNL A   1     -25.421  -0.512  34.164  0.00  0.00    +0.009 A 
ATOM     28 CL   UNL A   1     -24.450   2.283  31.461  0.00  0.00    -0.082 Cl
BRANCH  26  29
ATOM     29  C   UNL A   1     -27.181  -0.393  35.984  0.00  0.00    +0.242 C 
ATOM     30  N   UNL A   1     -27.961   0.366  36.720  0.00  0.00    -0.116 NA
ATOM     31  F   UNL A   1     -26.910  -1.537  36.262  0.00  0.00    -0.181 F 
ENDBRANCH  26  29
ENDBRANCH  20  22
ENDBRANCH   1  21
TORSDOF 7
ENDMDL
ENDMDL
