REMARK  Name = No_2647-gen_results/8p0m/2024-11-26-14-13-15/
REMARK  7 active torsions:
REMARK  status: ('A' for Active; 'I' for Inactive)
REMARK    1  A    between atoms: C_2  and  C_3
REMARK    2  A    between atoms: N_4  and  C_10
REMARK    3  A    between atoms: C_8  and  C_11
REMARK    4  A    between atoms: C_10  and  C_15
REMARK    5  A    between atoms: C_10  and  C_23
REMARK    6  A    between atoms: N_25  and  C_27
REMARK    7  A    between atoms: C_27  and  C_28
REMARK                            x       y       z     vdW  Elec       q    Type
REMARK                         _______ _______ _______ _____ _____    ______ ____
ROOT
ATOM      1  C   UNL A   1     -28.746   0.089  30.769  0.00  0.00    +0.197 C 
ENDROOT
BRANCH   1   2
ATOM      2  C   UNL A   1     -28.785  -0.994  31.246  0.00  0.00    +0.048 A 
ATOM      3  C   UNL A   1     -29.833  -1.440  32.183  0.00  0.00    +0.001 A 
ATOM      4  C   UNL A   1     -29.987  -2.753  32.569  0.00  0.00    +0.003 A 
ATOM      5  C   UNL A   1     -29.268  -3.782  31.888  0.00  0.00    +0.045 A 
ATOM      6  C   UNL A   1     -28.324  -3.449  30.885  0.00  0.00    +0.234 A 
ATOM      7  C   UNL A   1     -28.120  -2.203  30.613  0.00  0.00    +0.232 A 
ATOM      8  O   UNL A   1     -26.712  -2.143  30.947  0.00  0.00    -0.283 OA
ATOM      9  O   UNL A   1     -27.676  -4.489  30.360  0.00  0.00    -0.283 OA
ENDBRANCH   1   2
BRANCH   1  10
ATOM     10  C   UNL A   1     -29.436   1.328  31.162  0.00  0.00    +0.250 C 
ATOM     11  O   UNL A   1     -29.401   1.862  32.104  0.00  0.00    -0.273 OA
ATOM     12  N   UNL A   1     -30.383   1.659  30.135  0.00  0.00    -0.268 N 
ATOM     13  C   UNL A   1     -31.267   2.783  30.323  0.00  0.00    +0.115 C 
BRANCH  12  14
ATOM     14  C   UNL A   1     -30.529   0.998  28.881  0.00  0.00    +0.197 C 
BRANCH  14  15
ATOM     15  C   UNL A   1     -31.026   1.670  27.774  0.00  0.00    +0.416 C 
ATOM     16  F   UNL A   1     -30.473   2.212  27.104  0.00  0.00    -0.168 F 
ATOM     17  F   UNL A   1     -31.799   0.645  27.115  0.00  0.00    -0.168 F 
ATOM     18  F   UNL A   1     -32.121   2.458  28.162  0.00  0.00    -0.168 F 
ENDBRANCH  14  15
ENDBRANCH  12  14
ENDBRANCH   1  10
BRANCH   1  21
ATOM     19  O   UNL A   1     -28.123  -1.335  28.487  0.00  0.00    -0.268 OA
ATOM     20  C   UNL A   1     -27.481  -0.404  28.709  0.00  0.00    +0.266 C 
ATOM     21  N   UNL A   1     -27.666   0.447  29.899  0.00  0.00    -0.189 NA
BRANCH  20  22
ATOM     22  C   UNL A   1     -26.380  -0.087  27.939  0.00  0.00    +0.066 A 
ATOM     23  C   UNL A   1     -26.409   0.857  26.880  0.00  0.00    +0.062 A 
ATOM     24  C   UNL A   1     -25.247   1.120  26.110  0.00  0.00    +0.012 A 
ATOM     25  C   UNL A   1     -24.174   1.349  26.522  0.00  0.00    +0.005 A 
ATOM     26  C   UNL A   1     -23.855   0.694  27.881  0.00  0.00    +0.048 A 
ATOM     27  C   UNL A   1     -24.940  -0.018  28.592  0.00  0.00    +0.009 A 
ATOM     28 CL   UNL A   1     -27.927   0.716  26.024  0.00  0.00    -0.082 Cl
BRANCH  26  29
ATOM     29  C   UNL A   1     -22.534   0.769  28.469  0.00  0.00    +0.242 C 
ATOM     30  N   UNL A   1     -21.597   1.381  27.780  0.00  0.00    -0.116 NA
ATOM     31  F   UNL A   1     -22.314   0.131  29.472  0.00  0.00    -0.181 F 
ENDBRANCH  26  29
ENDBRANCH  20  22
ENDBRANCH   1  21
TORSDOF 7
