MODEL 2648
MODEL 1
REMARK VINA RESULT:    -4.333      0.000      0.000
REMARK INTER + INTRA:          -4.333
REMARK INTER:                  -4.333
REMARK INTRA:                   0.000
REMARK UNBOUND:                 0.000
REMARK  Name = No_2648-gen_results/8p0m/2024-11-26-14-13-15/
REMARK  0 active torsions:
REMARK  status: ('A' for Active; 'I' for Inactive)
REMARK                            x       y       z     vdW  Elec       q    Type
REMARK                         _______ _______ _______ _____ _____    ______ ____
ROOT
ATOM      1  C   UNL A   1     -24.866  -2.665  29.099  0.00  0.00    +0.000 A 
ATOM      2  C   UNL A   1     -24.082  -3.267  28.735  0.00  0.00    +0.000 A 
ATOM      3  C   UNL A   1     -25.970  -3.435  29.686  0.00  0.00    +0.000 A 
ATOM      4  C   UNL A   1     -26.046  -4.763  29.593  0.00  0.00    +0.000 A 
ATOM      5  C   UNL A   1     -23.948  -4.686  28.513  0.00  0.00    +0.000 A 
ATOM      6  C   UNL A   1     -24.994  -5.382  29.043  0.00  0.00    +0.000 A 
ENDROOT
TORSDOF 0
ENDMDL
ENDMDL
