REMARK  Name = No_2649-gen_results/8p0m/2024-11-26-14-13-15/
REMARK  1 active torsions:
REMARK  status: ('A' for Active; 'I' for Inactive)
REMARK    1  A    between atoms: C_5  and  C_15
REMARK                            x       y       z     vdW  Elec       q    Type
REMARK                         _______ _______ _______ _____ _____    ______ ____
ROOT
ATOM      1  C   UNL A   1     -28.016  -0.814  28.878  0.00  0.00    +0.080 C 
ATOM      2  C   UNL A   1     -27.064  -0.119  28.608  0.00  0.00    -0.012 A 
ATOM      3  C   UNL A   1     -27.001   0.691  27.491  0.00  0.00    -0.003 A 
ATOM      4  C   UNL A   1     -25.855   1.482  27.083  0.00  0.00    +0.004 A 
ATOM      5  C   UNL A   1     -24.690   1.453  27.881  0.00  0.00    +0.056 A 
ATOM      6  C   UNL A   1     -24.738   0.601  29.042  0.00  0.00    +0.000 A 
ATOM      7  C   UNL A   1     -25.823  -0.169  29.389  0.00  0.00    -0.023 A 
ATOM      8  N   UNL A   1     -27.952  -1.629  30.064  0.00  0.00    -0.270 NA
ATOM      9  C   UNL A   1     -29.036  -2.369  30.486  0.00  0.00    +0.072 C 
ATOM     10  C   UNL A   1     -30.159  -1.901  30.408  0.00  0.00    +0.017 C 
ATOM     11  C   UNL A   1     -30.423  -0.935  29.360  0.00  0.00    +0.003 C 
ATOM     12  C   UNL A   1     -29.321  -0.309  28.780  0.00  0.00    +0.021 C 
ATOM     13  C   UNL A   1     -26.577  -2.016  30.471  0.00  0.00    +0.077 C 
ATOM     14  C   UNL A   1     -25.643  -1.137  30.353  0.00  0.00    +0.043 C 
ENDROOT
BRANCH   5  15
ATOM     15  C   UNL A   1     -23.390   1.854  27.555  0.00  0.00    +0.284 C 
ATOM     16  N   UNL A   1     -23.174   2.745  26.567  0.00  0.00    -0.084 NA
ATOM     17  O   UNL A   1     -22.307   1.651  28.204  0.00  0.00    -0.267 OA
ENDBRANCH   5  15
TORSDOF 1
