MODEL 2649
MODEL 1
REMARK VINA RESULT:    -6.478      0.000      0.000
REMARK INTER + INTRA:          -6.929
REMARK INTER:                  -6.857
REMARK INTRA:                  -0.073
REMARK UNBOUND:                -0.073
REMARK  Name = No_2649-gen_results/8p0m/2024-11-26-14-13-15/
REMARK  1 active torsions:
REMARK  status: ('A' for Active; 'I' for Inactive)
REMARK    1  A    between atoms: C_5  and  C_15
REMARK                            x       y       z     vdW  Elec       q    Type
REMARK                         _______ _______ _______ _____ _____    ______ ____
ROOT
ATOM      1  C   UNL A   1     -30.581  -9.871  29.553  0.00  0.00    +0.080 C 
ATOM      2  C   UNL A   1     -29.962 -10.270  30.512  0.00  0.00    -0.012 A 
ATOM      3  C   UNL A   1     -29.906  -9.600  31.719  0.00  0.00    -0.003 A 
ATOM      4  C   UNL A   1     -29.117  -9.996  32.871  0.00  0.00    +0.004 A 
ATOM      5  C   UNL A   1     -28.336 -11.170  32.789  0.00  0.00    +0.056 A 
ATOM      6  C   UNL A   1     -28.375 -11.871  31.530  0.00  0.00    +0.000 A 
ATOM      7  C   UNL A   1     -29.101 -11.456  30.439  0.00  0.00    -0.023 A 
ATOM      8  N   UNL A   1     -30.546 -10.653  28.344  0.00  0.00    -0.270 NA
ATOM      9  C   UNL A   1     -31.306 -10.312  27.246  0.00  0.00    +0.072 C 
ATOM     10  C   UNL A   1     -32.443  -9.900  27.398  0.00  0.00    +0.017 C 
ATOM     11  C   UNL A   1     -32.754  -9.194  28.625  0.00  0.00    +0.003 C 
ATOM     12  C   UNL A   1     -31.885  -9.375  29.700  0.00  0.00    +0.021 C 
ATOM     13  C   UNL A   1     -29.321 -11.478  28.180  0.00  0.00    +0.077 C 
ATOM     14  C   UNL A   1     -28.837 -12.054  29.226  0.00  0.00    +0.043 C 
ENDROOT
BRANCH   5  15
ATOM     15  C   UNL A   1     -27.279 -11.583  33.608  0.00  0.00    +0.284 C 
ATOM     16  N   UNL A   1     -26.843 -10.798  34.612  0.00  0.00    -0.084 NA
ATOM     17  O   UNL A   1     -26.743 -12.741  33.694  0.00  0.00    -0.267 OA
ENDBRANCH   5  15
TORSDOF 1
ENDMDL
ENDMDL
