MODEL 264
MODEL 1
REMARK VINA RESULT:    -6.553      0.000      0.000
REMARK INTER + INTRA:          -7.776
REMARK INTER:                  -7.319
REMARK INTRA:                  -0.457
REMARK UNBOUND:                -0.457
REMARK  Name = No_264-gen_results/8p0m/2024-11-26-14-13-15/
REMARK  2 active torsions:
REMARK  status: ('A' for Active; 'I' for Inactive)
REMARK    1  A    between atoms: C_3  and  C_4
REMARK    2  A    between atoms: N_5  and  C_6
REMARK                            x       y       z     vdW  Elec       q    Type
REMARK                         _______ _______ _______ _____ _____    ______ ____
ROOT
ATOM      1  O   UNL A   1     -24.921  -0.726  27.107  0.00  0.00    -0.275 OA
ATOM      2  C   UNL A   1     -24.203  -0.337  28.035  0.00  0.00    +0.229 C 
ATOM      3  C   UNL A   1     -23.546   0.554  28.302  0.00  0.00    +0.077 C 
ATOM      4  N   UNL A   1     -24.017  -1.399  29.115  0.00  0.00    -0.259 N 
ATOM      5  C   UNL A   1     -23.028   1.044  29.697  0.00  0.00    +0.011 C 
ATOM      6  C   UNL A   1     -23.607   0.653  30.776  0.00  0.00    +0.022 C 
ATOM      7  C   UNL A   1     -23.901  -0.917  30.577  0.00  0.00    +0.098 C 
ENDROOT
BRANCH   4   8
ATOM      8  C   UNL A   1     -24.670  -2.607  29.104  0.00  0.00    +0.054 A 
ATOM      9  C   UNL A   1     -25.765  -2.828  29.696  0.00  0.00    +0.015 A 
ATOM     10  C   UNL A   1     -26.386  -4.122  29.802  0.00  0.00    +0.001 A 
ATOM     11  C   UNL A   1     -25.637  -5.195  29.307  0.00  0.00    +0.000 A 
ATOM     12  C   UNL A   1     -24.402  -5.014  28.727  0.00  0.00    +0.001 A 
ATOM     13  C   UNL A   1     -23.894  -3.781  28.664  0.00  0.00    +0.015 A 
ENDBRANCH   4   8
BRANCH   3  14
ATOM     14  C   UNL A   1     -23.091   1.526  27.429  0.00  0.00    +0.009 C 
ATOM     15  C   UNL A   1     -21.622   1.767  27.307  0.00  0.00    +0.001 C 
ENDBRANCH   3  14
TORSDOF 2
ENDMDL
ENDMDL
