REMARK  Name = No_2650-gen_results/8p0m/2024-11-26-14-13-15/
REMARK  7 active torsions:
REMARK  status: ('A' for Active; 'I' for Inactive)
REMARK    1  A    between atoms: C_1  and  C_17
REMARK    2  A    between atoms: C_5  and  C_7
REMARK    3  A    between atoms: N_9  and  C_10
REMARK    4  A    between atoms: C_15  and  C_20
REMARK    5  A    between atoms: C_23  and  C_26
REMARK    6  A    between atoms: C_30  and  O_32
REMARK    7  A    between atoms: O_32  and  C_33
REMARK                            x       y       z     vdW  Elec       q    Type
REMARK                         _______ _______ _______ _____ _____    ______ ____
ROOT
ATOM      1  C   UNL A   1     -31.865   0.273  28.213  0.00  0.00    +0.054 A 
ATOM      2  C   UNL A   1     -32.562  -0.669  28.759  0.00  0.00    +0.015 A 
ATOM      3  C   UNL A   1     -32.682  -0.688  30.178  0.00  0.00    +0.001 A 
ATOM      4  C   UNL A   1     -32.119   0.378  30.944  0.00  0.00    +0.000 A 
ATOM      5  C   UNL A   1     -31.405   1.371  30.284  0.00  0.00    +0.001 A 
ATOM      6  C   UNL A   1     -31.191   1.308  28.938  0.00  0.00    +0.015 A 
ENDROOT
BRANCH   5   7
ATOM      7  C   UNL A   1     -30.778   2.476  31.091  0.00  0.00    +0.000 A 
ATOM      8  C   UNL A   1     -31.256   3.030  32.007  0.00  0.00    +0.000 A 
ATOM      9  C   UNL A   1     -29.414   2.871  30.586  0.00  0.00    +0.000 A 
ATOM     10  C   UNL A   1     -28.703   3.848  31.297  0.00  0.00    +0.000 A 
ATOM     11  C   UNL A   1     -30.586   4.091  32.772  0.00  0.00    +0.000 A 
ATOM     12  C   UNL A   1     -29.295   4.473  32.354  0.00  0.00    +0.000 A 
BRANCH  10  13
ATOM     13  C   UNL A   1     -27.350   4.243  30.850  0.00  0.00    +0.003 A 
ATOM     14  C   UNL A   1     -27.100   5.500  30.639  0.00  0.00    +0.000 A 
ATOM     15  C   UNL A   1     -25.820   5.855  30.089  0.00  0.00    +0.003 A 
ATOM     16  C   UNL A   1     -25.155   4.845  29.362  0.00  0.00    +0.037 A 
ATOM     17  C   UNL A   1     -25.514   3.543  29.391  0.00  0.00    +0.145 A 
ATOM     18  C   UNL A   1     -26.654   3.186  30.118  0.00  0.00    +0.037 A 
BRANCH  17  19
ATOM     19  O   UNL A   1     -24.747   2.643  28.795  0.00  0.00    -0.451 OA
BRANCH  19  20
ATOM     20  C   UNL A   1     -23.846   1.872  29.502  0.00  0.00    +0.175 C 
ATOM     21  C   UNL A   1     -22.932   1.123  28.663  0.00  0.00    +0.015 C 
ATOM     22  C   UNL A   1     -22.148   0.106  29.213  0.00  0.00    +0.034 C 
ENDBRANCH  19  20
ENDBRANCH  17  19
ENDBRANCH  10  13
ENDBRANCH   5   7
BRANCH   1  25
ATOM     23  C   UNL A   1     -30.415   0.159  26.182  0.00  0.00    +0.253 C 
ATOM     24  O   UNL A   1     -30.389   0.053  24.990  0.00  0.00    -0.270 OA
ATOM     25  N   UNL A   1     -31.668   0.143  26.816  0.00  0.00    -0.253 N 
ATOM     26  C   UNL A   1     -32.853   0.195  25.924  0.00  0.00    +0.120 C 
BRANCH  23  31
ATOM     27  C   UNL A   1     -28.016  -0.814  28.878  0.00  0.00    +0.080 A 
ATOM     28  C   UNL A   1     -27.064  -0.119  28.608  0.00  0.00    +0.007 A 
ATOM     29  C   UNL A   1     -27.001   0.691  27.491  0.00  0.00    +0.000 A 
ATOM     30  C   UNL A   1     -28.137   0.736  26.635  0.00  0.00    +0.004 A 
ATOM     31  C   UNL A   1     -29.236   0.076  27.069  0.00  0.00    +0.054 A 
ATOM     32  C   UNL A   1     -29.218  -0.643  28.175  0.00  0.00    +0.011 A 
BRANCH  27  33
ATOM     33  C   UNL A   1     -28.053  -1.632  30.195  0.00  0.00    +0.388 C 
ATOM     34  O   UNL A   1     -28.719  -1.664  30.978  0.00  0.00    -0.241 OA
ATOM     35  O   UNL A   1     -26.994  -2.490  30.165  0.00  0.00    -0.241 OA
ENDBRANCH  27  33
ENDBRANCH  23  31
ENDBRANCH   1  25
TORSDOF 7
