MODEL 2650
MODEL 1
REMARK VINA RESULT:    -8.207      0.000      0.000
REMARK INTER + INTRA:         -13.349
REMARK INTER:                 -11.566
REMARK INTRA:                  -1.783
REMARK UNBOUND:                -1.783
REMARK  Name = No_2650-gen_results/8p0m/2024-11-26-14-13-15/
REMARK  7 active torsions:
REMARK  status: ('A' for Active; 'I' for Inactive)
REMARK    1  A    between atoms: C_1  and  C_17
REMARK    2  A    between atoms: C_5  and  C_7
REMARK    3  A    between atoms: N_9  and  C_10
REMARK    4  A    between atoms: C_15  and  C_20
REMARK    5  A    between atoms: C_23  and  C_26
REMARK    6  A    between atoms: C_30  and  O_32
REMARK    7  A    between atoms: O_32  and  C_33
REMARK                            x       y       z     vdW  Elec       q    Type
REMARK                         _______ _______ _______ _____ _____    ______ ____
ROOT
ATOM      1  C   UNL A   1     -11.889  -0.994  40.217  0.00  0.00    +0.054 A 
ATOM      2  C   UNL A   1     -12.256  -2.226  40.076  0.00  0.00    +0.015 A 
ATOM      3  C   UNL A   1     -12.143  -2.824  38.788  0.00  0.00    +0.001 A 
ATOM      4  C   UNL A   1     -11.541  -2.087  37.723  0.00  0.00    +0.000 A 
ATOM      5  C   UNL A   1     -11.146  -0.776  37.957  0.00  0.00    +0.001 A 
ATOM      6  C   UNL A   1     -11.377  -0.175  39.160  0.00  0.00    +0.015 A 
ENDROOT
BRANCH   5   7
ATOM      7  C   UNL A   1     -10.546   0.017  36.827  0.00  0.00    +0.000 A 
ATOM      8  C   UNL A   1     -10.998   0.977  36.329  0.00  0.00    +0.000 A 
ATOM      9  C   UNL A   1      -9.250  -0.566  36.324  0.00  0.00    +0.000 A 
ATOM     10  C   UNL A   1      -8.564   0.121  35.313  0.00  0.00    +0.000 A 
ATOM     11  C   UNL A   1     -10.355   1.723  35.239  0.00  0.00    +0.000 A 
ATOM     12  C   UNL A   1      -9.126   1.231  34.755  0.00  0.00    +0.000 A 
BRANCH  10  13
ATOM     13  C   UNL A   1      -7.276  -0.403  34.812  0.00  0.00    +0.003 A 
ATOM     14  C   UNL A   1      -7.113  -1.689  34.723  0.00  0.00    +0.000 A 
ATOM     15  C   UNL A   1      -5.816  -2.185  34.351  0.00  0.00    +0.003 A 
ATOM     16  C   UNL A   1      -4.726  -1.325  34.604  0.00  0.00    +0.037 A 
ATOM     17  C   UNL A   1      -4.861  -0.016  34.906  0.00  0.00    +0.145 A 
ATOM     18  C   UNL A   1      -6.152   0.500  35.054  0.00  0.00    +0.037 A 
BRANCH  17  19
ATOM     19  O   UNL A   1      -3.783   0.749  34.985  0.00  0.00    -0.451 OA
BRANCH  19  20
ATOM     20  C   UNL A   1      -2.907   0.884  33.925  0.00  0.00    +0.175 C 
ATOM     21  C   UNL A   1      -3.294   1.906  32.974  0.00  0.00    +0.015 C 
ATOM     22  C   UNL A   1      -2.665   1.980  31.729  0.00  0.00    +0.034 C 
ENDBRANCH  19  20
ENDBRANCH  17  19
ENDBRANCH  10  13
ENDBRANCH   5   7
BRANCH   1  25
ATOM     23  C   UNL A   1     -11.349  -0.559  42.617  0.00  0.00    +0.253 C 
ATOM     24  O   UNL A   1     -11.708  -0.037  43.632  0.00  0.00    -0.270 OA
ATOM     25  N   UNL A   1     -12.168  -0.425  41.484  0.00  0.00    -0.253 N 
ATOM     26  C   UNL A   1     -13.502   0.186  41.710  0.00  0.00    +0.120 C 
BRANCH  23  31
ATOM     27  C   UNL A   1      -8.466  -2.917  42.308  0.00  0.00    +0.080 A 
ATOM     28  C   UNL A   1      -7.605  -2.183  41.882  0.00  0.00    +0.007 A 
ATOM     29  C   UNL A   1      -7.825  -0.861  41.546  0.00  0.00    +0.000 A 
ATOM     30  C   UNL A   1      -9.130  -0.330  41.750  0.00  0.00    +0.004 A 
ATOM     31  C   UNL A   1     -10.009  -1.138  42.386  0.00  0.00    +0.054 A 
ATOM     32  C   UNL A   1      -9.698  -2.379  42.709  0.00  0.00    +0.011 A 
BRANCH  27  33
ATOM     33  C   UNL A   1      -8.127  -4.365  42.748  0.00  0.00    +0.388 C 
ATOM     34  O   UNL A   1      -7.768  -5.183  42.238  0.00  0.00    -0.241 OA
ATOM     35  O   UNL A   1      -8.305  -4.428  44.098  0.00  0.00    -0.241 OA
ENDBRANCH  27  33
ENDBRANCH  23  31
ENDBRANCH   1  25
TORSDOF 7
ENDMDL
ENDMDL
