MODEL 2651
MODEL 1
REMARK VINA RESULT:    -7.299      0.000      0.000
REMARK INTER + INTRA:          -7.299
REMARK INTER:                  -7.299
REMARK INTRA:                   0.000
REMARK UNBOUND:                 0.000
REMARK  Name = No_2651-gen_results/8p0m/2024-11-26-14-13-15/
REMARK  0 active torsions:
REMARK  status: ('A' for Active; 'I' for Inactive)
REMARK                            x       y       z     vdW  Elec       q    Type
REMARK                         _______ _______ _______ _____ _____    ______ ____
ROOT
ATOM      1  C   UNL A   1     -25.458  -0.457  25.877  0.00  0.00    +0.004 C 
ATOM      2  C   UNL A   1     -25.165   0.355  25.274  0.00  0.00    +0.000 C 
ATOM      3  C   UNL A   1     -25.028  -0.417  27.246  0.00  0.00    +0.022 C 
ATOM      4  C   UNL A   1     -24.169   0.493  27.714  0.00  0.00    +0.007 C 
ATOM      5  C   UNL A   1     -23.780   1.468  26.838  0.00  0.00    +0.001 C 
ATOM      6  C   UNL A   1     -24.260   1.450  25.555  0.00  0.00    +0.000 C 
ATOM      7  C   UNL A   1     -25.530  -1.534  28.177  0.00  0.00    -0.026 C 
ATOM      8  C   UNL A   1     -25.190  -2.245  28.982  0.00  0.00    -0.005 C 
ATOM      9  C   UNL A   1     -23.724  -2.157  29.223  0.00  0.00    -0.005 C 
ATOM     10  C   UNL A   1     -22.985  -1.197  28.933  0.00  0.00    -0.026 C 
ATOM     11  C   UNL A   1     -23.153  -0.067  28.252  0.00  0.00    +0.022 C 
ATOM     12  C   UNL A   1     -25.098   1.164  28.791  0.00  0.00    +0.001 C 
ATOM     13  C   UNL A   1     -21.770   0.562  28.031  0.00  0.00    +0.004 C 
ATOM     14  C   UNL A   1     -22.655   2.271  27.058  0.00  0.00    +0.000 C 
ATOM     15  C   UNL A   1     -21.581   1.691  27.412  0.00  0.00    +0.000 C 
ATOM     16  C   UNL A   1     -20.656  -0.246  28.722  0.00  0.00    +0.000 C 
ENDROOT
TORSDOF 0
ENDMDL
ENDMDL
