REMARK  Name = No_2651-gen_results/8p0m/2024-11-26-14-13-15/
REMARK  0 active torsions:
REMARK  status: ('A' for Active; 'I' for Inactive)
REMARK                            x       y       z     vdW  Elec       q    Type
REMARK                         _______ _______ _______ _____ _____    ______ ____
ROOT
ATOM      1  C   UNL A   1     -28.016  -0.814  28.878  0.00  0.00    +0.004 C 
ATOM      2  C   UNL A   1     -28.469  -0.785  29.829  0.00  0.00    +0.000 C 
ATOM      3  C   UNL A   1     -28.196   0.348  28.055  0.00  0.00    +0.022 C 
ATOM      4  C   UNL A   1     -29.019   1.350  28.378  0.00  0.00    +0.007 C 
ATOM      5  C   UNL A   1     -29.625   1.268  29.601  0.00  0.00    +0.001 C 
ATOM      6  C   UNL A   1     -29.382   0.182  30.400  0.00  0.00    +0.000 C 
ATOM      7  C   UNL A   1     -27.459   0.379  26.705  0.00  0.00    -0.026 C 
ATOM      8  C   UNL A   1     -27.599   0.636  25.618  0.00  0.00    -0.005 C 
ATOM      9  C   UNL A   1     -29.001   1.033  25.313  0.00  0.00    -0.005 C 
ATOM     10  C   UNL A   1     -29.844   1.447  26.131  0.00  0.00    -0.026 C 
ATOM     11  C   UNL A   1     -29.880   1.554  27.456  0.00  0.00    +0.022 C 
ATOM     12  C   UNL A   1     -27.961   2.512  28.449  0.00  0.00    +0.001 C 
ATOM     13  C   UNL A   1     -31.321   1.893  27.864  0.00  0.00    +0.004 C 
ATOM     14  C   UNL A   1     -30.746   2.036  29.938  0.00  0.00    +0.000 C 
ATOM     15  C   UNL A   1     -31.696   2.087  29.095  0.00  0.00    +0.000 C 
ATOM     16  C   UNL A   1     -32.234   2.083  26.639  0.00  0.00    +0.000 C 
ENDROOT
TORSDOF 0
