REMARK  Name = No_2652-gen_results/8p0m/2024-11-26-14-13-15/
REMARK  3 active torsions:
REMARK  status: ('A' for Active; 'I' for Inactive)
REMARK    1  A    between atoms: C_1  and  C_3
REMARK    2  A    between atoms: C_6  and  C_16
REMARK    3  A    between atoms: C_8  and  O_13
REMARK                            x       y       z     vdW  Elec       q    Type
REMARK                         _______ _______ _______ _____ _____    ______ ____
ROOT
ATOM      1  C   UNL A   1     -28.016  -0.814  28.878  0.00  0.00    +0.003 A 
ATOM      2  C   UNL A   1     -28.469  -0.785  29.829  0.00  0.00    +0.007 A 
ATOM      3  C   UNL A   1     -28.308  -1.988  30.863  0.00  0.00    +0.083 A 
ATOM      4  C   UNL A   1     -27.528  -3.019  30.360  0.00  0.00    +0.043 A 
ATOM      5  C   UNL A   1     -26.739  -2.848  29.272  0.00  0.00    +0.139 A 
ATOM      6  C   UNL A   1     -26.909  -1.658  28.534  0.00  0.00    +0.037 A 
ENDROOT
BRANCH   1   7
ATOM      7  C   UNL A   1     -28.182   0.428  28.113  0.00  0.00    +0.001 A 
ATOM      8  C   UNL A   1     -27.450   0.643  26.850  0.00  0.00    +0.011 A 
ATOM      9  C   UNL A   1     -27.860   1.457  25.908  0.00  0.00    +0.058 A 
ATOM     10  C   UNL A   1     -28.956   2.352  26.093  0.00  0.00    +0.011 A 
ATOM     11  C   UNL A   1     -29.616   2.233  27.310  0.00  0.00    +0.001 A 
ATOM     12  C   UNL A   1     -29.278   1.238  28.255  0.00  0.00    +0.000 A 
ATOM     13 CL   UNL A   1     -26.889   1.632  24.503  0.00  0.00    -0.082 Cl
ENDBRANCH   1   7
BRANCH   3  14
ATOM     14  C   UNL A   1     -29.209  -2.217  32.044  0.00  0.00    +0.388 C 
ATOM     15  O   UNL A   1     -30.074  -1.602  32.093  0.00  0.00    -0.241 OA
ATOM     16  O   UNL A   1     -28.733  -3.049  32.831  0.00  0.00    -0.241 OA
ENDBRANCH   3  14
BRANCH   5  17
ATOM     17  O   UNL A   1     -25.792  -3.757  28.972  0.00  0.00    -0.471 OA
ATOM     18  C   UNL A   1     -24.440  -3.339  29.068  0.00  0.00    +0.253 C 
ENDBRANCH   5  17
TORSDOF 3
