MODEL 2652
MODEL 1
REMARK VINA RESULT:    -6.962      0.000      0.000
REMARK INTER + INTRA:          -8.680
REMARK INTER:                  -8.183
REMARK INTRA:                  -0.496
REMARK UNBOUND:                -0.496
REMARK  Name = No_2652-gen_results/8p0m/2024-11-26-14-13-15/
REMARK  3 active torsions:
REMARK  status: ('A' for Active; 'I' for Inactive)
REMARK    1  A    between atoms: C_1  and  C_3
REMARK    2  A    between atoms: C_6  and  C_16
REMARK    3  A    between atoms: C_8  and  O_13
REMARK                            x       y       z     vdW  Elec       q    Type
REMARK                         _______ _______ _______ _____ _____    ______ ____
ROOT
ATOM      1  C   UNL A   1     -29.233 -10.842  30.673  0.00  0.00    +0.003 A 
ATOM      2  C   UNL A   1     -28.664 -11.621  31.097  0.00  0.00    +0.007 A 
ATOM      3  C   UNL A   1     -28.157 -11.552  32.607  0.00  0.00    +0.083 A 
ATOM      4  C   UNL A   1     -28.552 -10.386  33.247  0.00  0.00    +0.043 A 
ATOM      5  C   UNL A   1     -29.527  -9.593  32.740  0.00  0.00    +0.139 A 
ATOM      6  C   UNL A   1     -29.968  -9.871  31.429  0.00  0.00    +0.037 A 
ENDROOT
BRANCH   1   7
ATOM      7  C   UNL A   1     -29.702 -11.135  29.313  0.00  0.00    +0.001 A 
ATOM      8  C   UNL A   1     -30.700 -10.271  28.653  0.00  0.00    +0.011 A 
ATOM      9  C   UNL A   1     -30.824 -10.175  27.352  0.00  0.00    +0.058 A 
ATOM     10  C   UNL A   1     -30.130 -11.037  26.451  0.00  0.00    +0.011 A 
ATOM     11  C   UNL A   1     -29.242 -11.924  27.049  0.00  0.00    +0.001 A 
ATOM     12  C   UNL A   1     -28.985 -11.909  28.438  0.00  0.00    +0.000 A 
ATOM     13 CL   UNL A   1     -32.051  -9.152  26.724  0.00  0.00    -0.082 Cl
ENDBRANCH   1   7
BRANCH   3  14
ATOM     14  C   UNL A   1     -27.042 -12.390  33.167  0.00  0.00    +0.388 C 
ATOM     15  O   UNL A   1     -26.410 -12.857  32.452  0.00  0.00    -0.241 OA
ATOM     16  O   UNL A   1     -27.102 -12.469  34.403  0.00  0.00    -0.241 OA
ENDBRANCH   3  14
BRANCH   5  17
ATOM     17  O   UNL A   1     -30.084  -8.633  33.503  0.00  0.00    -0.471 OA
ATOM     18  C   UNL A   1     -29.210  -7.679  34.084  0.00  0.00    +0.253 C 
ENDBRANCH   5  17
TORSDOF 3
ENDMDL
ENDMDL
