REMARK  Name = No_2653-gen_results/8p0m/2024-11-26-14-13-15/
REMARK  9 active torsions:
REMARK  status: ('A' for Active; 'I' for Inactive)
REMARK    1  A    between atoms: C_4  and  C_11
REMARK    2  A    between atoms: C_7  and  C_18
REMARK    3  A    between atoms: C_11  and  N_12
REMARK    4  A    between atoms: N_12  and  C_14
REMARK    5  A    between atoms: C_14  and  C_15
REMARK    6  A    between atoms: N_20  and  C_21
REMARK    7  A    between atoms: C_21  and  C_22
REMARK    8  A    between atoms: C_25  and  C_26
REMARK    9  A    between atoms: C_26  and  C_30
REMARK                            x       y       z     vdW  Elec       q    Type
REMARK                         _______ _______ _______ _____ _____    ______ ____
ROOT
ATOM      1  C   UNL A   1     -29.029  -2.732  30.247  0.00  0.00    +0.265 C 
ATOM      2  O   UNL A   1     -30.078  -2.181  30.336  0.00  0.00    -0.268 OA
ATOM      3  N   UNL A   1     -28.770  -3.918  30.881  0.00  0.00    -0.197 NA
ENDROOT
BRANCH   1  10
ATOM      4  C   UNL A   1     -28.016  -0.814  28.878  0.00  0.00    +0.005 A 
ATOM      5  C   UNL A   1     -27.064  -0.119  28.608  0.00  0.00    -0.000 A 
ATOM      6  C   UNL A   1     -25.765  -0.390  29.036  0.00  0.00    -0.002 A 
ATOM      7  C   UNL A   1     -24.552   0.406  28.765  0.00  0.00    +0.009 A 
ATOM      8  C   UNL A   1     -23.230   0.118  29.258  0.00  0.00    -0.002 A 
ATOM      9  C   UNL A   1     -23.094  -1.131  29.873  0.00  0.00    -0.000 A 
ATOM     10  C   UNL A   1     -27.798  -1.934  29.856  0.00  0.00    +0.055 A 
ATOM     11  C   UNL A   1     -26.542  -2.327  30.258  0.00  0.00    +0.005 A 
ATOM     12  C   UNL A   1     -25.451  -1.552  29.908  0.00  0.00    -0.000 A 
ATOM     13  C   UNL A   1     -24.156  -1.910  30.281  0.00  0.00    -0.000 A 
BRANCH   7  14
ATOM     14  C   UNL A   1     -24.645   1.658  27.946  0.00  0.00    +0.175 C 
ATOM     15 CL   UNL A   1     -24.441   1.526  26.306  0.00  0.00    -0.091 Cl
BRANCH  14  16
ATOM     16  N   UNL A   1     -24.882   2.702  28.494  0.00  0.00    -0.188 NA
BRANCH  16  17
ATOM     17  C   UNL A   1     -25.059   3.916  27.793  0.00  0.00    +0.204 C 
BRANCH  17  18
ATOM     18  C   UNL A   1     -25.682   5.045  28.537  0.00  0.00    +0.382 C 
ATOM     19  O   UNL A   1     -26.826   5.252  28.218  0.00  0.00    -0.244 OA
ATOM     20  O   UNL A   1     -25.037   5.685  29.427  0.00  0.00    -0.244 OA
ENDBRANCH  17  18
ENDBRANCH  16  17
ENDBRANCH  14  16
ENDBRANCH   7  14
ENDBRANCH   1  10
BRANCH   3  21
ATOM     21  C   UNL A   1     -29.847  -4.809  31.284  0.00  0.00    +0.142 C 
BRANCH  21  22
ATOM     22  C   UNL A   1     -30.613  -5.263  30.259  0.00  0.00    -0.001 A 
ATOM     23  C   UNL A   1     -30.464  -5.055  29.048  0.00  0.00    -0.003 A 
ATOM     24  C   UNL A   1     -31.169  -5.668  27.950  0.00  0.00    -0.003 A 
ATOM     25  C   UNL A   1     -32.037  -6.708  28.273  0.00  0.00    -0.003 A 
ATOM     26  C   UNL A   1     -31.434  -6.464  30.472  0.00  0.00    -0.003 A 
ATOM     27  C   UNL A   1     -32.086  -7.108  29.541  0.00  0.00    -0.003 A 
BRANCH  25  28
ATOM     28  C   UNL A   1     -32.663  -7.331  27.208  0.00  0.00    +0.124 C 
ATOM     29 CL   UNL A   1     -33.756  -6.571  26.289  0.00  0.00    -0.105 Cl
BRANCH  28  30
ATOM     30  C   UNL A   1     -32.286  -8.787  26.693  0.00  0.00    -0.003 A 
ATOM     31  C   UNL A   1     -31.967  -8.922  25.578  0.00  0.00    -0.003 A 
ATOM     32  C   UNL A   1     -31.200 -10.041  25.157  0.00  0.00    -0.000 A 
ATOM     33  C   UNL A   1     -30.932 -11.002  26.127  0.00  0.00    -0.000 A 
ATOM     34  C   UNL A   1     -31.229 -10.784  27.453  0.00  0.00    -0.000 A 
ATOM     35  C   UNL A   1     -31.784  -9.580  27.808  0.00  0.00    -0.003 A 
ENDBRANCH  28  30
ENDBRANCH  25  28
ENDBRANCH  21  22
ENDBRANCH   3  21
TORSDOF 9
