MODEL 2653
MODEL 1
REMARK VINA RESULT:    -8.190      0.000      0.000
REMARK INTER + INTRA:         -13.677
REMARK INTER:                 -12.499
REMARK INTRA:                  -1.178
REMARK UNBOUND:                -1.178
REMARK  Name = No_2653-gen_results/8p0m/2024-11-26-14-13-15/
REMARK  9 active torsions:
REMARK  status: ('A' for Active; 'I' for Inactive)
REMARK    1  A    between atoms: C_4  and  C_11
REMARK    2  A    between atoms: C_7  and  C_18
REMARK    3  A    between atoms: C_11  and  N_12
REMARK    4  A    between atoms: N_12  and  C_14
REMARK    5  A    between atoms: C_14  and  C_15
REMARK    6  A    between atoms: N_20  and  C_21
REMARK    7  A    between atoms: C_21  and  C_22
REMARK    8  A    between atoms: C_25  and  C_26
REMARK    9  A    between atoms: C_26  and  C_30
REMARK                            x       y       z     vdW  Elec       q    Type
REMARK                         _______ _______ _______ _____ _____    ______ ____
ROOT
ATOM      1  C   UNL A   1     -29.510  -4.928  31.207  0.00  0.00    +0.265 C 
ATOM      2  O   UNL A   1     -30.515  -4.302  31.315  0.00  0.00    -0.268 OA
ATOM      3  N   UNL A   1     -29.309  -6.108  31.873  0.00  0.00    -0.197 NA
ENDROOT
BRANCH   1  10
ATOM      4  C   UNL A   1     -28.202  -2.739  30.926  0.00  0.00    +0.005 A 
ATOM      5  C   UNL A   1     -27.175  -2.172  30.632  0.00  0.00    -0.000 A 
ATOM      6  C   UNL A   1     -26.099  -2.800  30.005  0.00  0.00    -0.002 A 
ATOM      7  C   UNL A   1     -24.810  -2.191  29.623  0.00  0.00    +0.009 A 
ATOM      8  C   UNL A   1     -23.703  -2.881  29.013  0.00  0.00    -0.002 A 
ATOM      9  C   UNL A   1     -23.987  -4.182  28.587  0.00  0.00    -0.000 A 
ATOM     10  C   UNL A   1     -28.243  -4.231  30.744  0.00  0.00    +0.055 A 
ATOM     11  C   UNL A   1     -27.269  -4.917  30.057  0.00  0.00    +0.005 A 
ATOM     12  C   UNL A   1     -26.115  -4.251  29.683  0.00  0.00    -0.000 A 
ATOM     13  C   UNL A   1     -25.101  -4.896  28.976  0.00  0.00    -0.000 A 
BRANCH   7  14
ATOM     14  C   UNL A   1     -24.553  -0.742  29.905  0.00  0.00    +0.175 C 
ATOM     15 CL   UNL A   1     -23.980  -0.336  31.407  0.00  0.00    -0.091 Cl
BRANCH  14  16
ATOM     16  N   UNL A   1     -24.749   0.069  29.039  0.00  0.00    -0.188 NA
BRANCH  16  17
ATOM     17  C   UNL A   1     -23.889   0.231  27.929  0.00  0.00    +0.204 C 
BRANCH  17  18
ATOM     18  C   UNL A   1     -22.668   1.059  28.132  0.00  0.00    +0.382 C 
ATOM     19  O   UNL A   1     -21.668   0.403  28.283  0.00  0.00    -0.244 OA
ATOM     20  O   UNL A   1     -22.722   2.329  28.118  0.00  0.00    -0.244 OA
ENDBRANCH  17  18
ENDBRANCH  16  17
ENDBRANCH  14  16
ENDBRANCH   7  14
ENDBRANCH   1  10
BRANCH   3  21
ATOM     21  C   UNL A   1     -30.428  -6.908  32.346  0.00  0.00    +0.142 C 
BRANCH  21  22
ATOM     22  C   UNL A   1     -30.423  -8.193  31.909  0.00  0.00    -0.001 A 
ATOM     23  C   UNL A   1     -30.823  -8.629  30.822  0.00  0.00    -0.003 A 
ATOM     24  C   UNL A   1     -30.666  -9.959  30.288  0.00  0.00    -0.003 A 
ATOM     25  C   UNL A   1     -29.866 -10.831  31.021  0.00  0.00    -0.003 A 
ATOM     26  C   UNL A   1     -29.481  -9.141  32.522  0.00  0.00    -0.003 A 
ATOM     27  C   UNL A   1     -29.247 -10.354  32.097  0.00  0.00    -0.003 A 
BRANCH  25  28
ATOM     28  C   UNL A   1     -29.672 -12.086  30.470  0.00  0.00    +0.124 C 
ATOM     29 CL   UNL A   1     -29.430 -13.398  31.385  0.00  0.00    -0.105 Cl
BRANCH  28  30
ATOM     30  C   UNL A   1     -29.799 -12.396  28.916  0.00  0.00    -0.003 A 
ATOM     31  C   UNL A   1     -29.085 -11.845  28.174  0.00  0.00    -0.003 A 
ATOM     32  C   UNL A   1     -28.812 -12.368  26.882  0.00  0.00    -0.000 A 
ATOM     33  C   UNL A   1     -29.509 -13.518  26.525  0.00  0.00    -0.000 A 
ATOM     34  C   UNL A   1     -30.270 -14.209  27.441  0.00  0.00    -0.000 A 
ATOM     35  C   UNL A   1     -30.314 -13.747  28.733  0.00  0.00    -0.003 A 
ENDBRANCH  28  30
ENDBRANCH  25  28
ENDBRANCH  21  22
ENDBRANCH   3  21
TORSDOF 9
ENDMDL
ENDMDL
