MODEL 2654
MODEL 1
REMARK VINA RESULT:    -5.891      0.000      0.000
REMARK INTER + INTRA:          -7.672
REMARK INTER:                  -7.269
REMARK INTRA:                  -0.403
REMARK UNBOUND:                -0.403
REMARK  Name = No_2654-gen_results/8p0m/2024-11-26-14-13-15/
REMARK  4 active torsions:
REMARK  status: ('A' for Active; 'I' for Inactive)
REMARK    1  A    between atoms: C_2  and  C_8
REMARK    2  A    between atoms: C_8  and  O_10
REMARK    3  A    between atoms: O_10  and  C_11
REMARK    4  A    between atoms: C_11  and  C_12
REMARK                            x       y       z     vdW  Elec       q    Type
REMARK                         _______ _______ _______ _____ _____    ______ ____
ROOT
ATOM      1  C   UNL A   1     -22.790  -0.453  29.180  0.00  0.00    +0.342 C 
ATOM      2  O   UNL A   1     -22.671   0.042  30.126  0.00  0.00    -0.245 OA
ENDROOT
BRANCH   1   4
ATOM      3  C   UNL A   1     -24.209   0.056  27.305  0.00  0.00    +0.013 A 
ATOM      4  C   UNL A   1     -23.228   0.304  27.967  0.00  0.00    +0.076 A 
ATOM      5  C   UNL A   1     -22.396   1.371  27.646  0.00  0.00    +0.006 A 
ATOM      6  C   UNL A   1     -22.651   2.187  26.488  0.00  0.00    +0.001 A 
ATOM      7  C   UNL A   1     -23.793   1.817  25.766  0.00  0.00    +0.007 A 
ATOM      8  C   UNL A   1     -24.538   0.788  26.101  0.00  0.00    +0.035 A 
ATOM      9 BR   UNL A   1     -26.002   0.351  25.021  0.00  0.00    -0.049 Br
ENDBRANCH   1   4
BRANCH   1  10
ATOM     10  O   UNL A   1     -22.825  -1.835  29.089  0.00  0.00    -0.436 OA
BRANCH  10  11
ATOM     11  C   UNL A   1     -23.786  -2.552  29.809  0.00  0.00    +0.311 C 
BRANCH  11  12
ATOM     12  C   UNL A   1     -24.484  -3.499  28.966  0.00  0.00    +0.438 C 
ATOM     13  F   UNL A   1     -25.101  -2.956  28.002  0.00  0.00    -0.166 F 
ATOM     14  F   UNL A   1     -23.595  -4.435  28.402  0.00  0.00    -0.166 F 
ATOM     15  F   UNL A   1     -25.343  -4.314  29.602  0.00  0.00    -0.166 F 
ENDBRANCH  11  12
ENDBRANCH  10  11
ENDBRANCH   1  10
TORSDOF 4
ENDMDL
ENDMDL
