REMARK  Name = No_2654-gen_results/8p0m/2024-11-26-14-13-15/
REMARK  4 active torsions:
REMARK  status: ('A' for Active; 'I' for Inactive)
REMARK    1  A    between atoms: C_2  and  C_8
REMARK    2  A    between atoms: C_8  and  O_10
REMARK    3  A    between atoms: O_10  and  C_11
REMARK    4  A    between atoms: C_11  and  C_12
REMARK                            x       y       z     vdW  Elec       q    Type
REMARK                         _______ _______ _______ _____ _____    ______ ____
ROOT
ATOM      1  C   UNL A   1     -27.105   1.111  27.759  0.00  0.00    +0.342 C 
ATOM      2  O   UNL A   1     -28.037   1.491  27.383  0.00  0.00    -0.245 OA
ENDROOT
BRANCH   1   4
ATOM      3  C   UNL A   1     -28.016  -0.814  28.878  0.00  0.00    +0.013 A 
ATOM      4  C   UNL A   1     -27.064  -0.119  28.608  0.00  0.00    +0.076 A 
ATOM      5  C   UNL A   1     -25.792  -0.430  29.076  0.00  0.00    +0.006 A 
ATOM      6  C   UNL A   1     -25.576  -1.565  29.936  0.00  0.00    +0.001 A 
ATOM      7  C   UNL A   1     -26.735  -2.300  30.217  0.00  0.00    +0.007 A 
ATOM      8  C   UNL A   1     -27.918  -1.954  29.763  0.00  0.00    +0.035 A 
ATOM      9 BR   UNL A   1     -29.403  -2.979  30.260  0.00  0.00    -0.049 Br
ENDBRANCH   1   4
BRANCH   1  10
ATOM     10  O   UNL A   1     -25.949   1.874  27.725  0.00  0.00    -0.436 OA
BRANCH  10  11
ATOM     11  C   UNL A   1     -25.573   2.507  26.536  0.00  0.00    +0.311 C 
BRANCH  11  12
ATOM     12  C   UNL A   1     -24.366   3.288  26.709  0.00  0.00    +0.438 C 
ATOM     13  F   UNL A   1     -23.683   3.400  25.648  0.00  0.00    -0.166 F 
ATOM     14  F   UNL A   1     -24.660   4.596  27.142  0.00  0.00    -0.166 F 
ATOM     15  F   UNL A   1     -23.546   2.873  27.690  0.00  0.00    -0.166 F 
ENDBRANCH  11  12
ENDBRANCH  10  11
ENDBRANCH   1  10
TORSDOF 4
