MODEL 2655
MODEL 1
REMARK VINA RESULT:    -7.394      0.000      0.000
REMARK INTER + INTRA:          -9.245
REMARK INTER:                  -8.691
REMARK INTRA:                  -0.555
REMARK UNBOUND:                -0.555
REMARK  Name = No_2655-gen_results/8p0m/2024-11-26-14-13-15/
REMARK  3 active torsions:
REMARK  status: ('A' for Active; 'I' for Inactive)
REMARK    1  A    between atoms: C_2  and  C_11
REMARK    2  A    between atoms: C_6  and  C_8
REMARK    3  A    between atoms: C_11  and  C_12
REMARK                            x       y       z     vdW  Elec       q    Type
REMARK                         _______ _______ _______ _____ _____    ______ ____
ROOT
ATOM      1  C   UNL A   1     -24.225   0.281  27.398  0.00  0.00    +0.007 A 
ATOM      2  C   UNL A   1     -23.271   0.128  28.126  0.00  0.00    +0.010 A 
ATOM      3  C   UNL A   1     -22.137   0.767  28.101  0.00  0.00    +0.139 A 
ATOM      4  C   UNL A   1     -21.952   1.768  27.099  0.00  0.00    +0.059 A 
ATOM      5  C   UNL A   1     -23.028   2.024  26.319  0.00  0.00    +0.149 A 
ATOM      6  C   UNL A   1     -24.201   1.327  26.457  0.00  0.00    +0.107 A 
ATOM      7  F   UNL A   1     -21.112   0.511  28.904  0.00  0.00    -0.204 F 
ATOM      8  F   UNL A   1     -22.976   2.965  25.382  0.00  0.00    -0.204 F 
ENDROOT
BRANCH   6   9
ATOM      9  C   UNL A   1     -25.427   1.560  25.636  0.00  0.00    +0.390 C 
ATOM     10  O   UNL A   1     -25.818   0.809  24.923  0.00  0.00    -0.240 OA
ATOM     11  O   UNL A   1     -26.077   2.735  25.864  0.00  0.00    -0.240 OA
ENDBRANCH   6   9
BRANCH   2  12
ATOM     12  C   UNL A   1     -23.300  -0.978  29.303  0.00  0.00    +0.055 C 
BRANCH  12  13
ATOM     13  C   UNL A   1     -24.464  -1.840  29.363  0.00  0.00    -0.021 C 
ATOM     14  C   UNL A   1     -24.734  -2.843  29.110  0.00  0.00    -0.004 C 
ATOM     15  C   UNL A   1     -25.940  -3.553  29.582  0.00  0.00    -0.000 C 
ATOM     16  C   UNL A   1     -26.079  -4.842  29.630  0.00  0.00    -0.000 C 
ATOM     17  C   UNL A   1     -25.026  -5.589  28.913  0.00  0.00    -0.000 C 
ATOM     18  C   UNL A   1     -23.879  -4.092  28.729  0.00  0.00    -0.000 C 
ENDBRANCH  12  13
ENDBRANCH   2  12
TORSDOF 3
ENDMDL
ENDMDL
