REMARK  Name = No_2655-gen_results/8p0m/2024-11-26-14-13-15/
REMARK  3 active torsions:
REMARK  status: ('A' for Active; 'I' for Inactive)
REMARK    1  A    between atoms: C_2  and  C_11
REMARK    2  A    between atoms: C_6  and  C_8
REMARK    3  A    between atoms: C_11  and  C_12
REMARK                            x       y       z     vdW  Elec       q    Type
REMARK                         _______ _______ _______ _____ _____    ______ ____
ROOT
ATOM      1  C   UNL A   1     -28.016  -0.814  28.878  0.00  0.00    +0.007 A 
ATOM      2  C   UNL A   1     -27.064  -0.119  28.608  0.00  0.00    +0.010 A 
ATOM      3  C   UNL A   1     -26.876   1.133  28.913  0.00  0.00    +0.139 A 
ATOM      4  C   UNL A   1     -27.901   1.807  29.644  0.00  0.00    +0.059 A 
ATOM      5  C   UNL A   1     -28.945   1.039  30.036  0.00  0.00    +0.149 A 
ATOM      6  C   UNL A   1     -29.027  -0.289  29.705  0.00  0.00    +0.107 A 
ATOM      7  F   UNL A   1     -25.823   1.848  28.539  0.00  0.00    -0.204 F 
ATOM      8  F   UNL A   1     -29.934   1.558  30.756  0.00  0.00    -0.204 F 
ENDROOT
BRANCH   6   9
ATOM      9  C   UNL A   1     -30.145  -1.195  30.107  0.00  0.00    +0.390 C 
ATOM     10  O   UNL A   1     -31.133  -1.180  29.607  0.00  0.00    -0.240 OA
ATOM     11  O   UNL A   1     -29.855  -2.091  31.090  0.00  0.00    -0.240 OA
ENDBRANCH   6   9
BRANCH   2  12
ATOM     12  C   UNL A   1     -25.820  -0.714  27.766  0.00  0.00    +0.055 C 
BRANCH  12  13
ATOM     13  C   UNL A   1     -24.491  -0.370  28.231  0.00  0.00    -0.021 C 
ATOM     14  C   UNL A   1     -24.021  -0.003  29.119  0.00  0.00    -0.004 C 
ATOM     15  C   UNL A   1     -22.572  -0.043  29.403  0.00  0.00    -0.000 C 
ATOM     16  C   UNL A   1     -22.039   0.009  30.584  0.00  0.00    -0.000 C 
ATOM     17  C   UNL A   1     -22.983   0.391  31.655  0.00  0.00    -0.000 C 
ATOM     18  C   UNL A   1     -24.528   0.143  30.587  0.00  0.00    -0.000 C 
ENDBRANCH  12  13
ENDBRANCH   2  12
TORSDOF 3
