MODEL 2656
MODEL 1
REMARK VINA RESULT:    -6.616      0.000      0.000
REMARK INTER + INTRA:         -10.647
REMARK INTER:                  -8.936
REMARK INTRA:                  -1.711
REMARK UNBOUND:                -1.711
REMARK  Name = No_2656-gen_results/8p0m/2024-11-26-14-13-15/
REMARK  6 active torsions:
REMARK  status: ('A' for Active; 'I' for Inactive)
REMARK    1  A    between atoms: C_2  and  C_7
REMARK    2  A    between atoms: C_7  and  C_8
REMARK    3  A    between atoms: C_7  and  C_9
REMARK    4  A    between atoms: C_9  and  C_10
REMARK    5  A    between atoms: C_15  and  C_16
REMARK    6  A    between atoms: C_16  and  C_17
REMARK                            x       y       z     vdW  Elec       q    Type
REMARK                         _______ _______ _______ _____ _____    ______ ____
ROOT
ATOM      1  C   UNL A   1     -23.224  -1.095  29.568  0.00  0.00    +0.048 C 
ENDROOT
BRANCH   1   3
ATOM      2  C   UNL A   1     -24.813  -0.209  31.136  0.00  0.00    -0.001 A 
ATOM      3  C   UNL A   1     -23.792  -0.831  30.956  0.00  0.00    -0.018 A 
ATOM      4  C   UNL A   1     -23.050  -1.375  31.954  0.00  0.00    -0.001 A 
ATOM      5  C   UNL A   1     -23.490  -1.209  33.281  0.00  0.00    +0.042 A 
ATOM      6  C   UNL A   1     -25.373  -0.083  32.458  0.00  0.00    +0.042 A 
ATOM      7  C   UNL A   1     -24.651  -0.586  33.498  0.00  0.00    +0.196 A 
ATOM      8  O   UNL A   1     -25.207  -0.428  34.779  0.00  0.00    -0.287 OA
ENDBRANCH   1   3
BRANCH   1   9
ATOM      9  C   UNL A   1     -21.941  -0.633  29.254  0.00  0.00    -0.026 C 
ATOM     10  C   UNL A   1     -21.465   0.331  28.599  0.00  0.00    -0.025 C 
BRANCH  10  11
ATOM     11  C   UNL A   1     -22.357   1.359  28.109  0.00  0.00    +0.064 C 
BRANCH  11  12
ATOM     12  C   UNL A   1     -22.257   1.836  26.809  0.00  0.00    +0.040 C 
ATOM     13  C   UNL A   1     -23.508   2.577  26.376  0.00  0.00    +0.008 C 
ATOM     14 CL   UNL A   1     -23.122   2.197  27.224  0.00  0.00    -0.087 Cl
ENDBRANCH  11  12
ENDBRANCH  10  11
ENDBRANCH   1   9
BRANCH   1  15
ATOM     15  C   UNL A   1     -23.805  -2.030  28.662  0.00  0.00    +0.034 C 
BRANCH  15  16
ATOM     16  C   UNL A   1     -23.915  -3.404  28.873  0.00  0.00    -0.034 C 
ATOM     17  C   UNL A   1     -24.829  -4.099  29.133  0.00  0.00    -0.048 C 
ATOM     18  C   UNL A   1     -24.890  -5.511  29.191  0.00  0.00    +0.026 C 
ATOM     19  C   UNL A   1     -26.099  -3.489  29.747  0.00  0.00    +0.026 C 
ENDBRANCH  15  16
ENDBRANCH   1  15
TORSDOF 6
ENDMDL
ENDMDL
