REMARK  Name = No_2656-gen_results/8p0m/2024-11-26-14-13-15/
REMARK  6 active torsions:
REMARK  status: ('A' for Active; 'I' for Inactive)
REMARK    1  A    between atoms: C_2  and  C_7
REMARK    2  A    between atoms: C_7  and  C_8
REMARK    3  A    between atoms: C_7  and  C_9
REMARK    4  A    between atoms: C_9  and  C_10
REMARK    5  A    between atoms: C_15  and  C_16
REMARK    6  A    between atoms: C_16  and  C_17
REMARK                            x       y       z     vdW  Elec       q    Type
REMARK                         _______ _______ _______ _____ _____    ______ ____
ROOT
ATOM      1  C   UNL A   1     -25.881  -0.626  27.794  0.00  0.00    +0.048 C 
ENDROOT
BRANCH   1   3
ATOM      2  C   UNL A   1     -28.016  -0.814  28.878  0.00  0.00    -0.001 A 
ATOM      3  C   UNL A   1     -27.064  -0.119  28.608  0.00  0.00    -0.018 A 
ATOM      4  C   UNL A   1     -26.929   1.171  29.008  0.00  0.00    -0.001 A 
ATOM      5  C   UNL A   1     -27.956   1.741  29.784  0.00  0.00    +0.042 A 
ATOM      6  C   UNL A   1     -29.057  -0.327  29.747  0.00  0.00    +0.042 A 
ATOM      7  C   UNL A   1     -28.983   0.972  30.152  0.00  0.00    +0.196 A 
ATOM      8  O   UNL A   1     -30.024   1.429  30.979  0.00  0.00    -0.287 OA
ENDBRANCH   1   3
BRANCH   1   9
ATOM      9  C   UNL A   1     -25.422   0.130  26.710  0.00  0.00    -0.026 C 
ATOM     10  C   UNL A   1     -25.779   1.192  26.135  0.00  0.00    -0.025 C 
BRANCH  10  11
ATOM     11  C   UNL A   1     -26.831   1.992  26.723  0.00  0.00    +0.064 C 
BRANCH  11  12
ATOM     12  C   UNL A   1     -26.878   2.222  28.091  0.00  0.00    +0.040 C 
ATOM     13  C   UNL A   1     -26.540   3.660  28.439  0.00  0.00    +0.008 C 
ATOM     14 CL   UNL A   1     -26.735   3.118  27.614  0.00  0.00    -0.087 Cl
ENDBRANCH  11  12
ENDBRANCH  10  11
ENDBRANCH   1   9
BRANCH   1  15
ATOM     15  C   UNL A   1     -25.033  -1.682  28.240  0.00  0.00    +0.034 C 
BRANCH  15  16
ATOM     16  C   UNL A   1     -24.398  -1.744  29.480  0.00  0.00    -0.034 C 
ATOM     17  C   UNL A   1     -23.764  -0.961  30.090  0.00  0.00    -0.048 C 
ATOM     18  C   UNL A   1     -23.270  -1.048  31.412  0.00  0.00    +0.026 C 
ATOM     19  C   UNL A   1     -23.125   0.233  29.363  0.00  0.00    +0.026 C 
ENDBRANCH  15  16
ENDBRANCH   1  15
TORSDOF 6
