MODEL 2657
MODEL 1
REMARK VINA RESULT:    -6.032      0.000      0.000
REMARK INTER + INTRA:          -6.032
REMARK INTER:                  -6.032
REMARK INTRA:                   0.000
REMARK UNBOUND:                 0.000
REMARK  Name = No_2657-gen_results/8p0m/2024-11-26-14-13-15/
REMARK  0 active torsions:
REMARK  status: ('A' for Active; 'I' for Inactive)
REMARK                            x       y       z     vdW  Elec       q    Type
REMARK                         _______ _______ _______ _____ _____    ______ ____
ROOT
ATOM      1  N   UNL A   1     -23.240   0.724  29.172  0.00  0.00    -0.201 NA
ATOM      2  C   UNL A   1     -23.985   1.313  29.724  0.00  0.00    +0.120 C 
ATOM      3  C   UNL A   1     -23.420  -0.628  29.222  0.00  0.00    +0.264 C 
ATOM      4  C   UNL A   1     -24.528  -1.079  29.532  0.00  0.00    +0.050 A 
ATOM      5  C   UNL A   1     -24.842  -2.552  29.614  0.00  0.00    -0.002 A 
ATOM      6  C   UNL A   1     -25.321   1.135  30.090  0.00  0.00    +0.051 C 
ATOM      7  C   UNL A   1     -25.635  -0.280  30.079  0.00  0.00    +0.003 A 
ATOM      8  C   UNL A   1     -24.296  -3.441  28.793  0.00  0.00    +0.063 C 
ATOM      9  C   UNL A   1     -24.609  -4.867  28.890  0.00  0.00    +0.171 C 
ATOM     10  C   UNL A   1     -26.160  -3.192  29.748  0.00  0.00    +0.058 A 
ATOM     11  N   UNL A   1     -27.058  -2.280  30.534  0.00  0.00    -0.249 NA
ATOM     12  C   UNL A   1     -26.886  -0.861  30.514  0.00  0.00    +0.094 A 
ATOM     13  C   UNL A   1     -26.314  -4.507  29.715  0.00  0.00    +0.081 C 
ATOM     14  O   UNL A   1     -22.368  -1.367  28.853  0.00  0.00    -0.268 OA
ATOM     15  F   UNL A   1     -24.683  -5.835  28.423  0.00  0.00    -0.236 F 
ENDROOT
TORSDOF 0
ENDMDL
ENDMDL
