REMARK  Name = No_2657-gen_results/8p0m/2024-11-26-14-13-15/
REMARK  0 active torsions:
REMARK  status: ('A' for Active; 'I' for Inactive)
REMARK                            x       y       z     vdW  Elec       q    Type
REMARK                         _______ _______ _______ _____ _____    ______ ____
ROOT
ATOM      1  N   UNL A   1     -28.054  -1.050  28.725  0.00  0.00    -0.201 NA
ATOM      2  C   UNL A   1     -28.654  -0.567  29.508  0.00  0.00    +0.120 C 
ATOM      3  C   UNL A   1     -26.778  -0.581  28.603  0.00  0.00    +0.264 C 
ATOM      4  C   UNL A   1     -26.270   0.040  29.543  0.00  0.00    +0.050 A 
ATOM      5  C   UNL A   1     -24.868   0.598  29.521  0.00  0.00    -0.002 A 
ATOM      6  C   UNL A   1     -28.380   0.069  30.721  0.00  0.00    +0.051 C 
ATOM      7  C   UNL A   1     -27.003   0.523  30.722  0.00  0.00    +0.003 A 
ATOM      8  C   UNL A   1     -23.869  -0.016  28.898  0.00  0.00    +0.063 C 
ATOM      9  C   UNL A   1     -22.517   0.543  28.884  0.00  0.00    +0.171 C 
ATOM     10  C   UNL A   1     -24.093   1.146  30.645  0.00  0.00    +0.058 A 
ATOM     11  N   UNL A   1     -25.043   1.784  31.617  0.00  0.00    -0.249 NA
ATOM     12  C   UNL A   1     -26.390   1.325  31.758  0.00  0.00    +0.094 A 
ATOM     13  C   UNL A   1     -22.830   1.522  30.515  0.00  0.00    +0.081 C 
ATOM     14  O   UNL A   1     -26.147  -0.904  27.468  0.00  0.00    -0.268 OA
ATOM     15  F   UNL A   1     -21.453   0.396  28.803  0.00  0.00    -0.236 F 
ENDROOT
TORSDOF 0
