REMARK  Name = No_2658-gen_results/8p0m/2024-11-26-14-13-15/
REMARK  2 active torsions:
REMARK  status: ('A' for Active; 'I' for Inactive)
REMARK    1  A    between atoms: C_3  and  C_7
REMARK    2  A    between atoms: C_11  and  C_12
REMARK                            x       y       z     vdW  Elec       q    Type
REMARK                         _______ _______ _______ _____ _____    ______ ____
ROOT
ATOM      1  C   UNL A   1     -24.544   0.413  28.738  0.00  0.00    +0.087 C 
ATOM      2  N   UNL A   1     -23.365   0.004  28.953  0.00  0.00    -0.226 NA
ATOM      3  C   UNL A   1     -22.311   0.821  28.569  0.00  0.00    +0.195 C 
ATOM      4  N   UNL A   1     -22.913   1.799  27.799  0.00  0.00    -0.241 NA
ATOM      5  C   UNL A   1     -24.402   1.547  27.914  0.00  0.00    +0.167 C 
ENDROOT
BRANCH   1   8
ATOM      6  C   UNL A   1     -28.016  -0.814  28.878  0.00  0.00    +0.000 A 
ATOM      7  C   UNL A   1     -27.064  -0.119  28.608  0.00  0.00    +0.001 A 
ATOM      8  C   UNL A   1     -25.765  -0.390  29.036  0.00  0.00    +0.016 A 
ATOM      9  C   UNL A   1     -25.530  -1.530  29.901  0.00  0.00    +0.001 A 
ATOM     10  C   UNL A   1     -26.658  -2.292  30.203  0.00  0.00    +0.000 A 
ATOM     11  C   UNL A   1     -27.855  -1.956  29.763  0.00  0.00    +0.000 A 
ENDBRANCH   1   8
BRANCH   5  12
ATOM     12  C   UNL A   1     -25.285   2.346  27.207  0.00  0.00    +0.005 A 
ATOM     13  C   UNL A   1     -25.542   2.055  25.898  0.00  0.00    -0.002 A 
ATOM     14  C   UNL A   1     -25.818   3.476  27.861  0.00  0.00    -0.002 A 
ATOM     15  C   UNL A   1     -26.798   4.287  27.291  0.00  0.00    -0.000 A 
ATOM     16  C   UNL A   1     -26.615   2.833  25.240  0.00  0.00    -0.000 A 
ATOM     17  C   UNL A   1     -27.154   3.948  25.952  0.00  0.00    -0.000 A 
ENDBRANCH   5  12
TORSDOF 2
