MODEL 2658
MODEL 1
REMARK VINA RESULT:    -7.189      0.000      0.000
REMARK INTER + INTRA:          -8.665
REMARK INTER:                  -8.030
REMARK INTRA:                  -0.636
REMARK UNBOUND:                -0.636
REMARK  Name = No_2658-gen_results/8p0m/2024-11-26-14-13-15/
REMARK  2 active torsions:
REMARK  status: ('A' for Active; 'I' for Inactive)
REMARK    1  A    between atoms: C_3  and  C_7
REMARK    2  A    between atoms: C_11  and  C_12
REMARK                            x       y       z     vdW  Elec       q    Type
REMARK                         _______ _______ _______ _____ _____    ______ ____
ROOT
ATOM      1  C   UNL A   1     -24.288  -0.117  29.289  0.00  0.00    +0.087 C 
ATOM      2  N   UNL A   1     -24.229   0.777  30.184  0.00  0.00    -0.226 NA
ATOM      3  C   UNL A   1     -24.106   0.371  31.505  0.00  0.00    +0.195 C 
ATOM      4  N   UNL A   1     -24.339  -0.991  31.456  0.00  0.00    -0.241 NA
ATOM      5  C   UNL A   1     -24.449  -1.332  29.984  0.00  0.00    +0.167 C 
ENDROOT
BRANCH   1   8
ATOM      6  C   UNL A   1     -25.536  -0.144  25.821  0.00  0.00    +0.000 A 
ATOM      7  C   UNL A   1     -25.415  -0.429  26.990  0.00  0.00    +0.001 A 
ATOM      8  C   UNL A   1     -24.490   0.175  27.840  0.00  0.00    +0.016 A 
ATOM      9  C   UNL A   1     -23.574   1.161  27.300  0.00  0.00    +0.001 A 
ATOM     10  C   UNL A   1     -23.735   1.445  25.944  0.00  0.00    +0.000 A 
ATOM     11  C   UNL A   1     -24.632   0.815  25.210  0.00  0.00    +0.000 A 
ENDBRANCH   1   8
BRANCH   5  12
ATOM     12  C   UNL A   1     -24.731  -2.633  29.605  0.00  0.00    +0.005 A 
ATOM     13  C   UNL A   1     -23.826  -3.314  28.842  0.00  0.00    -0.002 A 
ATOM     14  C   UNL A   1     -25.986  -3.166  29.964  0.00  0.00    -0.002 A 
ATOM     15  C   UNL A   1     -26.336  -4.496  29.736  0.00  0.00    -0.000 A 
ATOM     16  C   UNL A   1     -24.096  -4.750  28.608  0.00  0.00    -0.000 A 
ATOM     17  C   UNL A   1     -25.366  -5.258  29.021  0.00  0.00    -0.000 A 
ENDBRANCH   5  12
TORSDOF 2
ENDMDL
ENDMDL
