REMARK  Name = No_2659-gen_results/8p0m/2024-11-26-14-13-15/
REMARK  4 active torsions:
REMARK  status: ('A' for Active; 'I' for Inactive)
REMARK    1  A    between atoms: C_2  and  C_4
REMARK    2  A    between atoms: C_4  and  C_5
REMARK    3  A    between atoms: C_5  and  C_7
REMARK    4  A    between atoms: C_6  and  C_9
REMARK                            x       y       z     vdW  Elec       q    Type
REMARK                         _______ _______ _______ _____ _____    ______ ____
ROOT
ATOM      1  C   UNL A   1     -25.716   3.115  30.936  0.00  0.00    +0.027 A 
ATOM      2  C   UNL A   1     -25.842   4.320  30.329  0.00  0.00    +0.002 A 
ATOM      3  C   UNL A   1     -27.052   4.601  29.702  0.00  0.00    +0.000 A 
ATOM      4  C   UNL A   1     -28.023   3.940  30.022  0.00  0.00    +0.002 A 
ATOM      5  C   UNL A   1     -29.274   4.164  29.372  0.00  0.00    +0.000 A 
ATOM      6  C   UNL A   1     -30.416   3.389  29.733  0.00  0.00    +0.000 A 
ATOM      7  C   UNL A   1     -30.210   2.450  30.742  0.00  0.00    +0.000 A 
ATOM      8  C   UNL A   1     -29.064   2.278  31.410  0.00  0.00    +0.002 A 
ATOM      9  C   UNL A   1     -27.942   3.051  31.046  0.00  0.00    +0.028 A 
ATOM     10  C   UNL A   1     -26.680   2.585  31.493  0.00  0.00    +0.140 A 
ATOM     11  F   UNL A   1     -26.595   3.023  32.893  0.00  0.00    -0.204 F 
ENDROOT
BRANCH   1  13
ATOM     12  C   UNL A   1     -25.169   1.052  30.092  0.00  0.00    -0.018 C 
ATOM     13  C   UNL A   1     -24.693   2.044  30.444  0.00  0.00    -0.002 C 
BRANCH  12  14
ATOM     14  C   UNL A   1     -24.037   0.037  29.686  0.00  0.00    -0.009 C 
ATOM     15  C   UNL A   1     -22.707   0.471  29.607  0.00  0.00    -0.026 C 
ATOM     16  C   UNL A   1     -21.785  -0.483  29.082  0.00  0.00    +0.031 C 
ENDBRANCH  12  14
BRANCH  12  17
ATOM     17  C   UNL A   1     -26.333   0.580  30.097  0.00  0.00    +0.079 C 
BRANCH  17  19
ATOM     18 CL   UNL A   1     -28.149  -0.820  28.908  0.00  0.00    -0.076 Cl
ATOM     19  C   UNL A   1     -26.912  -0.080  28.945  0.00  0.00    +0.243 C 
ATOM     20  F   UNL A   1     -26.283  -0.188  27.988  0.00  0.00    -0.219 F 
ENDBRANCH  17  19
ENDBRANCH  12  17
ENDBRANCH   1  13
TORSDOF 4
