MODEL 2659
MODEL 1
REMARK VINA RESULT:    -6.743      0.000      0.000
REMARK INTER + INTRA:          -9.424
REMARK INTER:                  -8.320
REMARK INTRA:                  -1.104
REMARK UNBOUND:                -1.104
REMARK  Name = No_2659-gen_results/8p0m/2024-11-26-14-13-15/
REMARK  4 active torsions:
REMARK  status: ('A' for Active; 'I' for Inactive)
REMARK    1  A    between atoms: C_2  and  C_4
REMARK    2  A    between atoms: C_4  and  C_5
REMARK    3  A    between atoms: C_5  and  C_7
REMARK    4  A    between atoms: C_6  and  C_9
REMARK                            x       y       z     vdW  Elec       q    Type
REMARK                         _______ _______ _______ _____ _____    ______ ____
ROOT
ATOM      1  C   UNL A   1     -23.154   0.142  29.037  0.00  0.00    +0.027 A 
ATOM      2  C   UNL A   1     -21.924   0.397  28.528  0.00  0.00    +0.002 A 
ATOM      3  C   UNL A   1     -21.853   1.170  27.373  0.00  0.00    +0.000 A 
ATOM      4  C   UNL A   1     -22.818   1.856  27.090  0.00  0.00    +0.002 A 
ATOM      5  C   UNL A   1     -22.806   2.630  25.891  0.00  0.00    +0.000 A 
ATOM      6  C   UNL A   1     -23.935   3.430  25.545  0.00  0.00    +0.000 A 
ATOM      7  C   UNL A   1     -24.993   3.400  26.452  0.00  0.00    +0.000 A 
ATOM      8  C   UNL A   1     -24.991   2.737  27.614  0.00  0.00    +0.002 A 
ATOM      9  C   UNL A   1     -23.868   1.951  27.947  0.00  0.00    +0.028 A 
ATOM     10  C   UNL A   1     -24.053   0.983  28.966  0.00  0.00    +0.140 A 
ATOM     11  F   UNL A   1     -23.961   1.740  30.221  0.00  0.00    -0.204 F 
ENDROOT
BRANCH   1  13
ATOM     12  C   UNL A   1     -23.810  -1.747  30.163  0.00  0.00    -0.018 C 
ATOM     13  C   UNL A   1     -23.740  -1.303  29.098  0.00  0.00    -0.002 C 
BRANCH  12  14
ATOM     14  C   UNL A   1     -24.351  -3.223  30.085  0.00  0.00    -0.009 C 
ATOM     15  C   UNL A   1     -24.193  -3.963  28.906  0.00  0.00    -0.026 C 
ATOM     16  C   UNL A   1     -24.853  -5.228  28.886  0.00  0.00    +0.031 C 
ENDBRANCH  12  14
BRANCH  12  17
ATOM     17  C   UNL A   1     -23.433  -1.376  31.302  0.00  0.00    +0.079 C 
BRANCH  17  19
ATOM     18 CL   UNL A   1     -25.679  -0.477  32.208  0.00  0.00    -0.076 Cl
ATOM     19  C   UNL A   1     -24.363  -1.046  32.362  0.00  0.00    +0.243 C 
ATOM     20  F   UNL A   1     -23.998  -1.072  33.453  0.00  0.00    -0.219 F 
ENDBRANCH  17  19
ENDBRANCH  12  17
ENDBRANCH   1  13
TORSDOF 4
ENDMDL
ENDMDL
