MODEL 265
MODEL 1
REMARK VINA RESULT:    -5.481      0.000      0.000
REMARK INTER + INTRA:          -5.871
REMARK INTER:                  -5.802
REMARK INTRA:                  -0.069
REMARK UNBOUND:                -0.069
REMARK  Name = No_265-gen_results/8p0m/2024-11-26-14-13-15/
REMARK  1 active torsions:
REMARK  status: ('A' for Active; 'I' for Inactive)
REMARK    1  A    between atoms: C_2  and  C_7
REMARK                            x       y       z     vdW  Elec       q    Type
REMARK                         _______ _______ _______ _____ _____    ______ ____
ROOT
ATOM      1  C   UNL A   1      -8.603 -10.508  18.362  0.00  0.00    +0.006 A 
ATOM      2  C   UNL A   1      -9.569 -10.090  18.316  0.00  0.00    +0.068 A 
ATOM      3  C   UNL A   1      -7.802 -10.186  19.554  0.00  0.00    +0.000 A 
ATOM      4  C   UNL A   1      -8.376  -9.463  20.640  0.00  0.00    +0.000 A 
ATOM      5  C   UNL A   1     -10.409  -9.369  19.312  0.00  0.00    +0.006 A 
ATOM      6  C   UNL A   1      -9.697  -9.044  20.428  0.00  0.00    +0.000 A 
ENDROOT
BRANCH   2   7
ATOM      7  C   UNL A   1     -10.274 -10.471  16.967  0.00  0.00    +0.333 C 
ATOM      8  O   UNL A   1     -11.439 -10.495  16.837  0.00  0.00    -0.254 OA
ATOM      9  F   UNL A   1      -9.512 -10.754  16.024  0.00  0.00    -0.159 F 
ENDBRANCH   2   7
TORSDOF 1
ENDMDL
ENDMDL
