REMARK  Name = No_266-gen_results/8p0m/2024-11-26-14-13-15/
REMARK  2 active torsions:
REMARK  status: ('A' for Active; 'I' for Inactive)
REMARK    1  A    between atoms: C_3  and  C_7
REMARK    2  A    between atoms: C_5  and  C_13
REMARK                            x       y       z     vdW  Elec       q    Type
REMARK                         _______ _______ _______ _____ _____    ______ ____
ROOT
ATOM      1  C   UNL A   1     -28.016  -0.814  28.878  0.00  0.00    +0.000 A 
ATOM      2  C   UNL A   1     -27.064  -0.119  28.608  0.00  0.00    +0.000 A 
ATOM      3  C   UNL A   1     -26.972   0.714  27.506  0.00  0.00    +0.000 A 
ATOM      4  C   UNL A   1     -28.105   0.774  26.642  0.00  0.00    +0.005 A 
ATOM      5  C   UNL A   1     -29.204   0.118  27.048  0.00  0.00    +0.055 A 
ATOM      6  C   UNL A   1     -29.213  -0.609  28.128  0.00  0.00    +0.005 A 
ENDROOT
BRANCH   3   7
ATOM      7  C   UNL A   1     -25.711   1.452  27.138  0.00  0.00    +0.000 A 
ATOM      8  C   UNL A   1     -25.377   2.046  26.174  0.00  0.00    +0.000 A 
ATOM      9  C   UNL A   1     -24.075   2.719  25.978  0.00  0.00    +0.000 A 
ATOM     10  C   UNL A   1     -23.077   2.499  26.948  0.00  0.00    +0.000 A 
ATOM     11  C   UNL A   1     -23.364   1.622  28.010  0.00  0.00    +0.000 A 
ATOM     12  C   UNL A   1     -24.624   1.088  28.175  0.00  0.00    +0.000 A 
ENDBRANCH   3   7
BRANCH   5  13
ATOM     13  C   UNL A   1     -30.403   0.268  26.186  0.00  0.00    +0.265 C 
ATOM     14  O   UNL A   1     -30.338   0.281  25.114  0.00  0.00    -0.268 OA
ATOM     15  N   UNL A   1     -31.618   0.206  26.826  0.00  0.00    -0.200 NA
ATOM     16  C   UNL A   1     -32.606   0.282  26.572  0.00  0.00    +0.139 C 
ENDBRANCH   5  13
TORSDOF 2
