MODEL 2660
MODEL 1
REMARK VINA RESULT:    -4.265      0.000      0.000
REMARK INTER + INTRA:          -4.265
REMARK INTER:                  -4.265
REMARK INTRA:                   0.000
REMARK UNBOUND:                 0.000
REMARK  Name = No_2660-gen_results/8p0m/2024-11-26-14-13-15/
REMARK  0 active torsions:
REMARK  status: ('A' for Active; 'I' for Inactive)
REMARK                            x       y       z     vdW  Elec       q    Type
REMARK                         _______ _______ _______ _____ _____    ______ ____
ROOT
ATOM      1  C   UNL A   1     -26.077  -4.846  29.655  0.00  0.00    +0.000 A 
ATOM      2  C   UNL A   1     -26.221  -3.647  29.720  0.00  0.00    +0.000 A 
ATOM      3  C   UNL A   1     -25.258  -2.739  29.325  0.00  0.00    +0.000 A 
ATOM      4  C   UNL A   1     -24.047  -3.247  28.777  0.00  0.00    +0.000 A 
ATOM      5  C   UNL A   1     -24.003  -4.584  28.568  0.00  0.00    +0.000 A 
ATOM      6  C   UNL A   1     -24.991  -5.374  28.941  0.00  0.00    +0.000 A 
ENDROOT
TORSDOF 0
ENDMDL
ENDMDL
