REMARK  Name = No_2661-gen_results/8p0m/2024-11-26-14-13-15/
REMARK  0 active torsions:
REMARK  status: ('A' for Active; 'I' for Inactive)
REMARK                            x       y       z     vdW  Elec       q    Type
REMARK                         _______ _______ _______ _____ _____    ______ ____
ROOT
ATOM      1 CL   UNL A   1     -28.149  -0.820  28.908  0.00  0.00    -0.082 Cl
ATOM      2  C   UNL A   1     -26.912  -0.080  28.945  0.00  0.00    +0.058 A 
ATOM      3  C   UNL A   1     -25.966  -0.212  29.623  0.00  0.00    +0.011 A 
ATOM      4  C   UNL A   1     -24.762   0.606  29.631  0.00  0.00    +0.001 A 
ATOM      5  C   UNL A   1     -24.677   1.606  28.629  0.00  0.00    +0.000 A 
ATOM      6  C   UNL A   1     -25.734   1.756  27.811  0.00  0.00    +0.001 A 
ATOM      7  C   UNL A   1     -26.798   0.965  27.890  0.00  0.00    +0.011 A 
ENDROOT
TORSDOF 0
