MODEL 2661
MODEL 1
REMARK VINA RESULT:    -4.409      0.000      0.000
REMARK INTER + INTRA:          -4.409
REMARK INTER:                  -4.409
REMARK INTRA:                   0.000
REMARK UNBOUND:                 0.000
REMARK  Name = No_2661-gen_results/8p0m/2024-11-26-14-13-15/
REMARK  0 active torsions:
REMARK  status: ('A' for Active; 'I' for Inactive)
REMARK                            x       y       z     vdW  Elec       q    Type
REMARK                         _______ _______ _______ _____ _____    ______ ____
ROOT
ATOM      1 CL   UNL A   1     -27.518  -3.123  30.497  0.00  0.00    -0.082 Cl
ATOM      2  C   UNL A   1     -26.276  -3.436  29.834  0.00  0.00    +0.058 A 
ATOM      3  C   UNL A   1     -25.391  -2.742  29.509  0.00  0.00    +0.011 A 
ATOM      4  C   UNL A   1     -24.178  -3.127  28.802  0.00  0.00    +0.001 A 
ATOM      5  C   UNL A   1     -23.995  -4.515  28.582  0.00  0.00    +0.000 A 
ATOM      6  C   UNL A   1     -24.980  -5.342  28.979  0.00  0.00    +0.001 A 
ATOM      7  C   UNL A   1     -26.059  -4.892  29.608  0.00  0.00    +0.011 A 
ENDROOT
TORSDOF 0
ENDMDL
ENDMDL
