MODEL 2662
MODEL 1
REMARK VINA RESULT:    -4.448      0.000      0.000
REMARK INTER + INTRA:          -4.448
REMARK INTER:                  -4.448
REMARK INTRA:                   0.000
REMARK UNBOUND:                 0.000
REMARK  Name = No_2662-gen_results/8p0m/2024-11-26-14-13-15/
REMARK  0 active torsions:
REMARK  status: ('A' for Active; 'I' for Inactive)
REMARK                            x       y       z     vdW  Elec       q    Type
REMARK                         _______ _______ _______ _____ _____    ______ ____
ROOT
ATOM      1  C   UNL A   1     -24.012  -4.143  28.781  0.00  0.00    +0.011 A 
ATOM      2  C   UNL A   1     -24.243  -3.009  29.133  0.00  0.00    +0.058 A 
ATOM      3  C   UNL A   1     -25.411  -2.614  29.700  0.00  0.00    +0.011 A 
ATOM      4  C   UNL A   1     -26.420  -3.577  29.891  0.00  0.00    +0.001 A 
ATOM      5  C   UNL A   1     -24.961  -5.197  29.034  0.00  0.00    +0.001 A 
ATOM      6  C   UNL A   1     -26.162  -4.847  29.574  0.00  0.00    +0.000 A 
ATOM      7 CL   UNL A   1     -23.060  -1.745  28.950  0.00  0.00    -0.082 Cl
ENDROOT
TORSDOF 0
ENDMDL
ENDMDL
