REMARK  Name = No_2663-gen_results/8p0m/2024-11-26-14-13-15/
REMARK  1 active torsions:
REMARK  status: ('A' for Active; 'I' for Inactive)
REMARK    1  A    between atoms: C_3  and  C_4
REMARK                            x       y       z     vdW  Elec       q    Type
REMARK                         _______ _______ _______ _____ _____    ______ ____
ROOT
ATOM      1  C   UNL A   1     -28.016  -0.814  28.878  0.00  0.00    +0.030 A 
ATOM      2  C   UNL A   1     -27.064  -0.119  28.608  0.00  0.00    +0.002 A 
ATOM      3  C   UNL A   1     -25.792  -0.430  29.076  0.00  0.00    +0.000 A 
ATOM      4  C   UNL A   1     -27.882  -1.899  29.863  0.00  0.00    +0.140 A 
ATOM      5  C   UNL A   1     -26.671  -2.327  30.321  0.00  0.00    +0.030 A 
ATOM      6  C   UNL A   1     -25.543  -1.585  29.932  0.00  0.00    +0.002 A 
ATOM      7  F   UNL A   1     -28.952  -2.640  30.205  0.00  0.00    -0.204 F 
ENDROOT
BRANCH   3   8
ATOM      8  C   UNL A   1     -24.546   0.349  28.823  0.00  0.00    +0.000 A 
ATOM      9  C   UNL A   1     -23.241   0.022  29.332  0.00  0.00    +0.000 A 
ATOM     10  C   UNL A   1     -22.192   0.830  29.000  0.00  0.00    +0.000 A 
ATOM     11  C   UNL A   1     -22.117   1.453  27.822  0.00  0.00    +0.000 A 
ATOM     12  C   UNL A   1     -24.493   1.290  27.709  0.00  0.00    +0.000 A 
ATOM     13  C   UNL A   1     -23.322   1.853  27.268  0.00  0.00    +0.000 A 
ENDBRANCH   3   8
TORSDOF 1
