MODEL 2663
MODEL 1
REMARK VINA RESULT:    -6.753      0.000      0.000
REMARK INTER + INTRA:          -7.474
REMARK INTER:                  -7.147
REMARK INTRA:                  -0.327
REMARK UNBOUND:                -0.327
REMARK  Name = No_2663-gen_results/8p0m/2024-11-26-14-13-15/
REMARK  1 active torsions:
REMARK  status: ('A' for Active; 'I' for Inactive)
REMARK    1  A    between atoms: C_3  and  C_4
REMARK                            x       y       z     vdW  Elec       q    Type
REMARK                         _______ _______ _______ _____ _____    ______ ____
ROOT
ATOM      1  C   UNL A   1     -21.666  -0.027  28.782  0.00  0.00    +0.030 A 
ATOM      2  C   UNL A   1     -22.240  -1.019  29.168  0.00  0.00    +0.002 A 
ATOM      3  C   UNL A   1     -23.554  -1.279  28.797  0.00  0.00    +0.000 A 
ATOM      4  C   UNL A   1     -22.408   1.022  28.064  0.00  0.00    +0.140 A 
ATOM      5  C   UNL A   1     -23.673   0.832  27.592  0.00  0.00    +0.030 A 
ATOM      6  C   UNL A   1     -24.315  -0.365  27.952  0.00  0.00    +0.002 A 
ATOM      7  F   UNL A   1     -21.784   2.150  27.680  0.00  0.00    -0.204 F 
ENDROOT
BRANCH   3   8
ATOM      8  C   UNL A   1     -24.370  -2.456  29.213  0.00  0.00    +0.000 A 
ATOM      9  C   UNL A   1     -25.778  -2.431  29.507  0.00  0.00    +0.000 A 
ATOM     10  C   UNL A   1     -26.389  -3.599  29.864  0.00  0.00    +0.000 A 
ATOM     11  C   UNL A   1     -26.011  -4.780  29.372  0.00  0.00    +0.000 A 
ATOM     12  C   UNL A   1     -23.872  -3.806  28.972  0.00  0.00    +0.000 A 
ATOM     13  C   UNL A   1     -24.660  -4.922  29.099  0.00  0.00    +0.000 A 
ENDBRANCH   3   8
TORSDOF 1
ENDMDL
ENDMDL
