MODEL 2664
MODEL 1
REMARK VINA RESULT:    -6.072      0.000      0.000
REMARK INTER + INTRA:           2.289
REMARK INTER:                  -7.847
REMARK INTRA:                  10.136
REMARK UNBOUND:                10.136
REMARK  Name = No_2664-gen_results/8p0m/2024-11-26-14-13-15/
REMARK  7 active torsions:
REMARK  status: ('A' for Active; 'I' for Inactive)
REMARK    1  A    between atoms: C_2  and  C_3
REMARK    2  A    between atoms: C_3  and  C_9
REMARK    3  A    between atoms: C_5  and  C_6
REMARK    4  A    between atoms: C_7  and  C_8
REMARK    5  A    between atoms: C_9  and  C_12
REMARK    6  A    between atoms: C_12  and  C_13
REMARK    7  A    between atoms: C_12  and  C_16
REMARK                            x       y       z     vdW  Elec       q    Type
REMARK                         _______ _______ _______ _____ _____    ______ ____
ROOT
ATOM      1  C   UNL A   1     -24.060  -1.229  29.777  0.00  0.00    +0.069 C 
ATOM      2  C   UNL A   1     -24.419  -0.168  28.906  0.00  0.00    +0.003 C 
ENDROOT
BRANCH   1   4
ATOM      3  O   UNL A   1     -22.523  -0.776  31.303  0.00  0.00    -0.267 OA
ATOM      4  C   UNL A   1     -23.621  -1.038  31.072  0.00  0.00    +0.283 C 
ATOM      5  N   UNL A   1     -24.687  -1.050  32.091  0.00  0.00    -0.084 NA
ENDBRANCH   1   4
BRANCH   2   6
ATOM      6  C   UNL A   1     -24.886  -0.433  27.593  0.00  0.00    -0.002 C 
ATOM      7  C   UNL A   1     -24.478   0.375  26.539  0.00  0.00    +0.006 C 
BRANCH   7   8
ATOM      8  C   UNL A   1     -23.538   1.364  26.795  0.00  0.00    +0.181 C 
ATOM      9 CL   UNL A   1     -22.943   2.303  25.483  0.00  0.00    -0.092 Cl
ATOM     10 CL   UNL A   1     -23.556   2.397  26.657  0.00  0.00    -0.092 Cl
ENDBRANCH   7   8
ENDBRANCH   2   6
BRANCH   1  11
ATOM     11  C   UNL A   1     -23.752  -2.501  29.110  0.00  0.00    +0.220 C 
ATOM     12  F   UNL A   1     -23.585  -2.662  30.094  0.00  0.00    -0.229 F 
BRANCH  11  13
ATOM     13  C   UNL A   1     -24.783  -3.565  29.656  0.00  0.00    +0.200 C 
ATOM     14  F   UNL A   1     -23.761  -4.133  29.285  0.00  0.00    -0.234 F 
BRANCH  13  15
ATOM     15  C   UNL A   1     -24.755  -3.371  29.238  0.00  0.00    +0.039 C 
ATOM     16  C   UNL A   1     -24.175  -4.279  28.262  0.00  0.00    +0.003 C 
ENDBRANCH  13  15
BRANCH  13  17
ATOM     17  C   UNL A   1     -26.178  -3.593  29.591  0.00  0.00    +0.229 C 
ATOM     18  F   UNL A   1     -25.632  -4.037  29.927  0.00  0.00    -0.231 F 
ENDBRANCH  13  17
ENDBRANCH  11  13
ENDBRANCH   1  11
TORSDOF 7
ENDMDL
ENDMDL
