REMARK  Name = No_2664-gen_results/8p0m/2024-11-26-14-13-15/
REMARK  7 active torsions:
REMARK  status: ('A' for Active; 'I' for Inactive)
REMARK    1  A    between atoms: C_2  and  C_3
REMARK    2  A    between atoms: C_3  and  C_9
REMARK    3  A    between atoms: C_5  and  C_6
REMARK    4  A    between atoms: C_7  and  C_8
REMARK    5  A    between atoms: C_9  and  C_12
REMARK    6  A    between atoms: C_12  and  C_13
REMARK    7  A    between atoms: C_12  and  C_16
REMARK                            x       y       z     vdW  Elec       q    Type
REMARK                         _______ _______ _______ _____ _____    ______ ____
ROOT
ATOM      1  C   UNL A   1     -26.380  -0.087  27.939  0.00  0.00    +0.069 C 
ATOM      2  C   UNL A   1     -26.409   0.857  26.880  0.00  0.00    +0.003 C 
ENDROOT
BRANCH   1   4
ATOM      3  O   UNL A   1     -28.123  -1.335  28.487  0.00  0.00    -0.267 OA
ATOM      4  C   UNL A   1     -27.481  -0.404  28.709  0.00  0.00    +0.283 C 
ATOM      5  N   UNL A   1     -27.666   0.447  29.899  0.00  0.00    -0.084 NA
ENDBRANCH   1   4
BRANCH   2   6
ATOM      6  C   UNL A   1     -25.247   1.120  26.110  0.00  0.00    -0.002 C 
ATOM      7  C   UNL A   1     -23.999   0.750  26.596  0.00  0.00    +0.006 C 
BRANCH   7   8
ATOM      8  C   UNL A   1     -23.941   0.039  27.787  0.00  0.00    +0.181 C 
ATOM      9 CL   UNL A   1     -22.403  -0.311  28.471  0.00  0.00    -0.092 Cl
ATOM     10 CL   UNL A   1     -23.563   0.281  28.727  0.00  0.00    -0.092 Cl
ENDBRANCH   7   8
ENDBRANCH   2   6
BRANCH   1  11
ATOM     11  C   UNL A   1     -25.042  -0.384  28.468  0.00  0.00    +0.220 C 
ATOM     12  F   UNL A   1     -25.643  -0.300  29.277  0.00  0.00    -0.229 F 
BRANCH  11  13
ATOM     13  C   UNL A   1     -25.141  -1.779  29.203  0.00  0.00    +0.200 C 
ATOM     14  F   UNL A   1     -24.585  -1.921  28.119  0.00  0.00    -0.234 F 
BRANCH  13  15
ATOM     15  C   UNL A   1     -25.455  -1.560  28.945  0.00  0.00    +0.039 C 
ATOM     16  C   UNL A   1     -26.254  -2.490  28.165  0.00  0.00    +0.003 C 
ENDBRANCH  13  15
BRANCH  13  17
ATOM     17  C   UNL A   1     -26.133  -2.295  30.040  0.00  0.00    +0.229 C 
ATOM     18  F   UNL A   1     -25.934  -2.394  29.292  0.00  0.00    -0.231 F 
ENDBRANCH  13  17
ENDBRANCH  11  13
ENDBRANCH   1  11
TORSDOF 7
