MODEL 2665
MODEL 1
REMARK VINA RESULT:    -5.291      0.000      0.000
REMARK INTER + INTRA:          -6.172
REMARK INTER:                  -5.909
REMARK INTRA:                  -0.263
REMARK UNBOUND:                -0.263
REMARK  Name = No_2665-gen_results/8p0m/2024-11-26-14-13-15/
REMARK  2 active torsions:
REMARK  status: ('A' for Active; 'I' for Inactive)
REMARK    1  A    between atoms: C_2  and  C_7
REMARK    2  A    between atoms: C_7  and  C_8
REMARK                            x       y       z     vdW  Elec       q    Type
REMARK                         _______ _______ _______ _____ _____    ______ ____
ROOT
ATOM      1  C   UNL A   1     -26.020  -3.145  29.619  0.00  0.00    -0.004 A 
ATOM      2  C   UNL A   1     -25.036  -2.655  29.114  0.00  0.00    -0.018 A 
ATOM      3  C   UNL A   1     -24.005  -3.378  28.607  0.00  0.00    -0.004 A 
ATOM      4  C   UNL A   1     -24.078  -4.782  28.670  0.00  0.00    -0.000 A 
ATOM      5  C   UNL A   1     -26.205  -4.574  29.631  0.00  0.00    -0.000 A 
ATOM      6  C   UNL A   1     -25.185  -5.345  29.160  0.00  0.00    -0.000 A 
ENDROOT
BRANCH   2   7
ATOM      7  C   UNL A   1     -24.849  -1.151  28.968  0.00  0.00    +0.052 C 
BRANCH   7   8
ATOM      8  C   UNL A   1     -23.408  -0.710  28.894  0.00  0.00    -0.026 C 
ATOM      9  C   UNL A   1     -23.074   0.295  28.154  0.00  0.00    -0.030 C 
ATOM     10  C   UNL A   1     -21.739   0.709  28.140  0.00  0.00    +0.030 C 
ENDBRANCH   7   8
ENDBRANCH   2   7
TORSDOF 2
ENDMDL
ENDMDL
