MODEL 2666
MODEL 1
REMARK VINA RESULT:    -4.758      0.000      0.000
REMARK INTER + INTRA:          -5.082
REMARK INTER:                  -5.036
REMARK INTRA:                  -0.046
REMARK UNBOUND:                -0.046
REMARK  Name = No_2666-gen_results/8p0m/2024-11-26-14-13-15/
REMARK  1 active torsions:
REMARK  status: ('A' for Active; 'I' for Inactive)
REMARK    1  A    between atoms: C_3  and  C_8
REMARK                            x       y       z     vdW  Elec       q    Type
REMARK                         _______ _______ _______ _____ _____    ______ ____
ROOT
ATOM      1  C   UNL A   1     -21.933   0.011  28.958  0.00  0.00    +0.042 A 
ATOM      2  C   UNL A   1     -22.325  -1.091  29.265  0.00  0.00    +0.005 A 
ATOM      3  C   UNL A   1     -23.567  -1.601  28.890  0.00  0.00    +0.019 A 
ATOM      4  C   UNL A   1     -24.479  -0.758  28.140  0.00  0.00    +0.005 A 
ATOM      5  C   UNL A   1     -23.957   0.517  27.826  0.00  0.00    +0.042 A 
ATOM      6  C   UNL A   1     -22.776   0.911  28.229  0.00  0.00    +0.196 A 
ATOM      7  O   UNL A   1     -22.398   2.185  27.911  0.00  0.00    -0.287 OA
ENDROOT
BRANCH   3   8
ATOM      8  C   UNL A   1     -24.119  -2.952  29.230  0.00  0.00    +0.093 C 
ATOM      9  N   UNL A   1     -23.874  -3.944  28.492  0.00  0.00    -0.267 NA
ATOM     10  C   UNL A   1     -24.429  -5.158  28.859  0.00  0.00    +0.152 C 
ENDBRANCH   3   8
TORSDOF 1
ENDMDL
ENDMDL
