MODEL 2667
MODEL 1
REMARK VINA RESULT:    -4.328      0.000      0.000
REMARK INTER + INTRA:          -4.328
REMARK INTER:                  -4.328
REMARK INTRA:                   0.000
REMARK UNBOUND:                 0.000
REMARK  Name = No_2667-gen_results/8p0m/2024-11-26-14-13-15/
REMARK  0 active torsions:
REMARK  status: ('A' for Active; 'I' for Inactive)
REMARK                            x       y       z     vdW  Elec       q    Type
REMARK                         _______ _______ _______ _____ _____    ______ ____
ROOT
ATOM      1  C   UNL A   1     -23.997  -4.050  28.856  0.00  0.00    +0.011 A 
ATOM      2  C   UNL A   1     -24.274  -3.105  29.231  0.00  0.00    +0.058 A 
ATOM      3  C   UNL A   1     -25.014  -5.152  29.059  0.00  0.00    +0.001 A 
ATOM      4  C   UNL A   1     -26.284  -4.833  29.584  0.00  0.00    +0.000 A 
ATOM      5  C   UNL A   1     -25.517  -2.511  29.774  0.00  0.00    +0.011 A 
ATOM      6  C   UNL A   1     -26.477  -3.493  29.968  0.00  0.00    +0.001 A 
ATOM      7 CL   UNL A   1     -23.054  -1.770  28.980  0.00  0.00    -0.082 Cl
ENDROOT
TORSDOF 0
ENDMDL
ENDMDL
