MODEL 2668
MODEL 1
REMARK VINA RESULT:    -7.257      0.000      0.000
REMARK INTER + INTRA:          -9.325
REMARK INTER:                  -8.530
REMARK INTRA:                  -0.795
REMARK UNBOUND:                -0.795
REMARK  Name = No_2668-gen_results/8p0m/2024-11-26-14-13-15/
REMARK  3 active torsions:
REMARK  status: ('A' for Active; 'I' for Inactive)
REMARK    1  A    between atoms: C_2  and  C_12
REMARK    2  A    between atoms: C_5  and  C_8
REMARK    3  A    between atoms: C_8  and  C_9
REMARK                            x       y       z     vdW  Elec       q    Type
REMARK                         _______ _______ _______ _____ _____    ______ ____
ROOT
ATOM      1  C   UNL A   1     -24.971  -0.333  28.319  0.00  0.00    +0.021 C 
ATOM      2  C   UNL A   1     -24.203  -1.143  28.784  0.00  0.00    +0.045 C 
ATOM      3  C   UNL A   1     -23.209  -0.760  29.678  0.00  0.00    -0.022 C 
ATOM      4  C   UNL A   1     -22.127  -0.488  29.458  0.00  0.00    -0.005 C 
ATOM      5  C   UNL A   1     -24.484   0.394  27.322  0.00  0.00    +0.091 C 
ATOM      6  C   UNL A   1     -23.106   1.073  27.380  0.00  0.00    -0.018 C 
ATOM      7  C   UNL A   1     -22.002   0.668  28.205  0.00  0.00    -0.004 C 
ENDROOT
BRANCH   2   8
ATOM      8  C   UNL A   1     -24.604  -2.580  28.900  0.00  0.00    -0.018 A 
ATOM      9  C   UNL A   1     -23.875  -3.652  28.573  0.00  0.00    -0.004 A 
ATOM     10  C   UNL A   1     -24.214  -4.902  28.673  0.00  0.00    -0.000 A 
ATOM     11  C   UNL A   1     -25.836  -2.945  29.572  0.00  0.00    -0.004 A 
ATOM     12  C   UNL A   1     -26.277  -4.191  29.723  0.00  0.00    -0.000 A 
ATOM     13  C   UNL A   1     -25.394  -5.236  29.262  0.00  0.00    -0.000 A 
ENDBRANCH   2   8
BRANCH   5  14
ATOM     14  C   UNL A   1     -25.308   1.176  26.384  0.00  0.00    +0.256 C 
ATOM     15  O   UNL A   1     -25.412   2.423  26.341  0.00  0.00    -0.284 OA
BRANCH  14  16
ATOM     16  C   UNL A   1     -25.859   0.297  25.467  0.00  0.00    +0.422 C 
ATOM     17  O   UNL A   1     -26.977   0.157  25.268  0.00  0.00    -0.237 OA
ATOM     18  O   UNL A   1     -24.949  -0.031  24.436  0.00  0.00    -0.237 OA
ENDBRANCH  14  16
ENDBRANCH   5  14
TORSDOF 3
ENDMDL
ENDMDL
