REMARK  Name = No_2668-gen_results/8p0m/2024-11-26-14-13-15/
REMARK  3 active torsions:
REMARK  status: ('A' for Active; 'I' for Inactive)
REMARK    1  A    between atoms: C_2  and  C_12
REMARK    2  A    between atoms: C_5  and  C_8
REMARK    3  A    between atoms: C_8  and  C_9
REMARK                            x       y       z     vdW  Elec       q    Type
REMARK                         _______ _______ _______ _____ _____    ______ ____
ROOT
ATOM      1  C   UNL A   1     -28.016  -0.814  28.878  0.00  0.00    +0.021 C 
ATOM      2  C   UNL A   1     -27.064  -0.119  28.608  0.00  0.00    +0.045 C 
ATOM      3  C   UNL A   1     -25.792  -0.430  29.076  0.00  0.00    -0.022 C 
ATOM      4  C   UNL A   1     -25.270  -0.049  30.012  0.00  0.00    -0.005 C 
ATOM      5  C   UNL A   1     -28.519  -0.630  30.092  0.00  0.00    +0.091 C 
ATOM      6  C   UNL A   1     -27.646  -0.565  31.356  0.00  0.00    -0.018 C 
ATOM      7  C   UNL A   1     -26.255  -0.209  31.400  0.00  0.00    -0.004 C 
ENDROOT
BRANCH   2   8
ATOM      8  C   UNL A   1     -27.067   0.712  27.364  0.00  0.00    -0.018 A 
ATOM      9  C   UNL A   1     -26.194   0.658  26.353  0.00  0.00    -0.004 A 
ATOM     10  C   UNL A   1     -26.191   1.374  25.269  0.00  0.00    -0.000 A 
ATOM     11  C   UNL A   1     -28.185   1.587  27.070  0.00  0.00    -0.004 A 
ATOM     12  C   UNL A   1     -28.278   2.364  25.995  0.00  0.00    -0.000 A 
ATOM     13  C   UNL A   1     -27.220   2.228  25.022  0.00  0.00    -0.000 A 
ENDBRANCH   2   8
BRANCH   5  14
ATOM     14  C   UNL A   1     -29.854  -1.086  30.516  0.00  0.00    +0.256 C 
ATOM     15  O   UNL A   1     -30.114  -1.842  31.480  0.00  0.00    -0.284 OA
BRANCH  14  16
ATOM     16  C   UNL A   1     -30.794  -0.432  29.738  0.00  0.00    +0.422 C 
ATOM     17  O   UNL A   1     -30.665   0.604  29.270  0.00  0.00    -0.237 OA
ATOM     18  O   UNL A   1     -31.699  -1.333  29.133  0.00  0.00    -0.237 OA
ENDBRANCH  14  16
ENDBRANCH   5  14
TORSDOF 3
