MODEL 2669
MODEL 1
REMARK VINA RESULT:    -4.493      0.000      0.000
REMARK INTER + INTRA:          -4.493
REMARK INTER:                  -4.493
REMARK INTRA:                   0.000
REMARK UNBOUND:                 0.000
REMARK  Name = No_2669-gen_results/8p0m/2024-11-26-14-13-15/
REMARK  0 active torsions:
REMARK  status: ('A' for Active; 'I' for Inactive)
REMARK                            x       y       z     vdW  Elec       q    Type
REMARK                         _______ _______ _______ _____ _____    ______ ____
ROOT
ATOM      1  C   UNL A   1     -25.037  -5.290  29.111  0.00  0.00    -0.000 A 
ATOM      2  C   UNL A   1     -25.973  -4.712  29.613  0.00  0.00    -0.000 A 
ATOM      3  C   UNL A   1     -26.025  -3.352  29.870  0.00  0.00    -0.004 A 
ATOM      4  C   UNL A   1     -24.894  -2.575  29.483  0.00  0.00    -0.022 A 
ATOM      5  C   UNL A   1     -24.828  -1.271  29.770  0.00  0.00    +0.031 C 
ATOM      6  C   UNL A   1     -24.042  -4.504  28.426  0.00  0.00    -0.000 A 
ATOM      7  C   UNL A   1     -23.929  -3.187  28.772  0.00  0.00    -0.004 A 
ENDROOT
TORSDOF 0
ENDMDL
ENDMDL
