REMARK  Name = No_2669-gen_results/8p0m/2024-11-26-14-13-15/
REMARK  0 active torsions:
REMARK  status: ('A' for Active; 'I' for Inactive)
REMARK                            x       y       z     vdW  Elec       q    Type
REMARK                         _______ _______ _______ _____ _____    ______ ____
ROOT
ATOM      1  C   UNL A   1     -28.016  -0.814  28.878  0.00  0.00    -0.000 A 
ATOM      2  C   UNL A   1     -27.064  -0.119  28.608  0.00  0.00    -0.000 A 
ATOM      3  C   UNL A   1     -26.972   0.714  27.506  0.00  0.00    -0.004 A 
ATOM      4  C   UNL A   1     -28.105   0.774  26.642  0.00  0.00    -0.022 A 
ATOM      5  C   UNL A   1     -28.068   1.487  25.512  0.00  0.00    +0.031 C 
ATOM      6  C   UNL A   1     -29.269  -0.533  28.224  0.00  0.00    -0.000 A 
ATOM      7  C   UNL A   1     -29.223   0.136  27.033  0.00  0.00    -0.004 A 
ENDROOT
TORSDOF 0
