MODEL 266
MODEL 1
REMARK VINA RESULT:    -7.222      0.000      0.000
REMARK INTER + INTRA:          -8.581
REMARK INTER:                  -8.066
REMARK INTRA:                  -0.514
REMARK UNBOUND:                -0.514
REMARK  Name = No_266-gen_results/8p0m/2024-11-26-14-13-15/
REMARK  2 active torsions:
REMARK  status: ('A' for Active; 'I' for Inactive)
REMARK    1  A    between atoms: C_3  and  C_7
REMARK    2  A    between atoms: C_5  and  C_13
REMARK                            x       y       z     vdW  Elec       q    Type
REMARK                         _______ _______ _______ _____ _____    ______ ____
ROOT
ATOM      1  C   UNL A   1     -24.572  -5.036  28.843  0.00  0.00    +0.000 A 
ATOM      2  C   UNL A   1     -23.902  -4.034  28.746  0.00  0.00    +0.000 A 
ATOM      3  C   UNL A   1     -24.340  -2.751  29.024  0.00  0.00    +0.000 A 
ATOM      4  C   UNL A   1     -25.681  -2.610  29.489  0.00  0.00    +0.005 A 
ATOM      5  C   UNL A   1     -26.351  -3.747  29.740  0.00  0.00    +0.055 A 
ATOM      6  C   UNL A   1     -25.840  -4.917  29.488  0.00  0.00    +0.005 A 
ENDROOT
BRANCH   3   7
ATOM      7  C   UNL A   1     -23.511  -1.523  28.753  0.00  0.00    +0.000 A 
ATOM      8  C   UNL A   1     -22.489  -1.127  29.193  0.00  0.00    +0.000 A 
ATOM      9  C   UNL A   1     -21.806   0.126  28.806  0.00  0.00    +0.000 A 
ATOM     10  C   UNL A   1     -22.505   1.015  27.965  0.00  0.00    +0.000 A 
ATOM     11  C   UNL A   1     -23.817   0.678  27.586  0.00  0.00    +0.000 A 
ATOM     12  C   UNL A   1     -24.366  -0.542  27.918  0.00  0.00    +0.000 A 
ENDBRANCH   3   7
BRANCH   5  13
ATOM     13  C   UNL A   1     -27.710  -3.584  30.313  0.00  0.00    +0.265 C 
ATOM     14  O   UNL A   1     -28.258  -2.663  30.233  0.00  0.00    -0.268 OA
ATOM     15  N   UNL A   1     -28.305  -4.728  30.791  0.00  0.00    -0.200 NA
ATOM     16  C   UNL A   1     -29.183  -4.983  31.248  0.00  0.00    +0.139 C 
ENDBRANCH   5  13
TORSDOF 2
ENDMDL
ENDMDL
