REMARK  Name = No_267-gen_results/8p0m/2024-11-26-14-13-15/
REMARK  2 active torsions:
REMARK  status: ('A' for Active; 'I' for Inactive)
REMARK    1  A    between atoms: C_1  and  C_2
REMARK    2  A    between atoms: C_1  and  C_8
REMARK                            x       y       z     vdW  Elec       q    Type
REMARK                         _______ _______ _______ _____ _____    ______ ____
ROOT
ATOM      1  C   UNL A   1     -27.064  -0.119  28.608  0.00  0.00    -0.021 A 
ATOM      2  C   UNL A   1     -25.765  -0.390  29.036  0.00  0.00    -0.004 A 
ATOM      3  C   UNL A   1     -24.552   0.406  28.765  0.00  0.00    -0.000 A 
ATOM      4  C   UNL A   1     -24.696   1.448  27.799  0.00  0.00    -0.000 A 
ATOM      5  C   UNL A   1     -25.976   1.725  27.308  0.00  0.00    -0.000 A 
ATOM      6  C   UNL A   1     -27.072   1.013  27.654  0.00  0.00    -0.004 A 
ENDROOT
BRANCH   1   7
ATOM      7  C   UNL A   1     -28.016  -0.814  28.878  0.00  0.00    +0.047 C 
BRANCH   7   8
ATOM      8  C   UNL A   1     -29.226  -0.068  29.315  0.00  0.00    +0.114 C 
ATOM      9  N   UNL A   1     -29.816  -0.211  30.114  0.00  0.00    -0.131 NA
ENDBRANCH   7   8
ENDBRANCH   1   7
TORSDOF 2
