MODEL 2670
MODEL 1
REMARK VINA RESULT:    -7.604      0.000      0.000
REMARK INTER + INTRA:         -12.980
REMARK INTER:                 -10.272
REMARK INTRA:                  -2.708
REMARK UNBOUND:                -2.708
REMARK  Name = No_2670-gen_results/8p0m/2024-11-26-14-13-15/
REMARK  6 active torsions:
REMARK  status: ('A' for Active; 'I' for Inactive)
REMARK    1  A    between atoms: C_4  and  C_11
REMARK    2  A    between atoms: C_6  and  O_16
REMARK    3  A    between atoms: O_16  and  C_17
REMARK    4  A    between atoms: C_18  and  C_29
REMARK    5  A    between atoms: N_31  and  C_32
REMARK    6  A    between atoms: C_32  and  C_33
REMARK                            x       y       z     vdW  Elec       q    Type
REMARK                         _______ _______ _______ _____ _____    ______ ____
ROOT
ATOM      1  C   UNL A   1     -26.250  -0.301  26.316  0.00  0.00    +0.037 A 
ATOM      2  C   UNL A   1     -25.560  -0.350  27.308  0.00  0.00    +0.003 A 
ATOM      3  C   UNL A   1     -24.357   0.342  27.382  0.00  0.00    -0.002 A 
ATOM      4  C   UNL A   1     -23.417   0.354  28.539  0.00  0.00    -0.004 A 
ATOM      5  C   UNL A   1     -22.166   1.062  28.589  0.00  0.00    -0.003 A 
ATOM      6  C   UNL A   1     -25.740   0.340  25.094  0.00  0.00    +0.145 A 
ATOM      7  C   UNL A   1     -24.599   1.104  25.105  0.00  0.00    +0.037 A 
ATOM      8  C   UNL A   1     -23.797   1.114  26.258  0.00  0.00    +0.003 A 
ATOM      9  C   UNL A   1     -21.934   1.876  27.422  0.00  0.00    -0.000 A 
ATOM     10  C   UNL A   1     -22.635   1.876  26.331  0.00  0.00    +0.000 A 
ENDROOT
BRANCH   4  11
ATOM     11  C   UNL A   1     -23.745  -0.384  29.791  0.00  0.00    +0.098 C 
ATOM     12  N   UNL A   1     -24.613   0.048  30.523  0.00  0.00    -0.289 N 
ATOM     13  C   UNL A   1     -25.074  -0.543  31.597  0.00  0.00    +0.171 C 
ATOM     14  C   UNL A   1     -22.677  -0.723  30.722  0.00  0.00    +0.043 C 
ATOM     15  C   UNL A   1     -25.247   1.343  30.452  0.00  0.00    +0.058 C 
ATOM     16  C   UNL A   1     -26.379   1.662  31.216  0.00  0.00    -0.006 C 
ATOM     17  C   UNL A   1     -25.861  -1.473  31.478  0.00  0.00    +0.007 C 
ATOM     18  C   UNL A   1     -27.277  -0.981  31.542  0.00  0.00    -0.023 C 
ATOM     19  C   UNL A   1     -27.462   0.464  31.073  0.00  0.00    +0.053 C 
ATOM     20  N   UNL A   1     -24.188  -0.474  32.697  0.00  0.00    -0.196 NA
ATOM     21  C   UNL A   1     -22.910  -1.105  32.121  0.00  0.00    +0.093 C 
ENDBRANCH   4  11
BRANCH   6  22
ATOM     22  O   UNL A   1     -26.561   0.296  23.989  0.00  0.00    -0.453 OA
BRANCH  22  23
ATOM     23  C   UNL A   1     -27.909  -0.066  24.193  0.00  0.00    +0.150 A 
ATOM     24  C   UNL A   1     -28.731   0.957  24.222  0.00  0.00    +0.089 A 
ATOM     25  C   UNL A   1     -30.077   0.713  23.887  0.00  0.00    +0.008 A 
ATOM     26  C   UNL A   1     -30.454  -0.219  23.733  0.00  0.00    +0.000 A 
ATOM     27  C   UNL A   1     -29.719  -1.492  23.656  0.00  0.00    +0.003 A 
ATOM     28  C   UNL A   1     -28.314  -1.287  23.741  0.00  0.00    +0.038 A 
BRANCH  24  29
ATOM     29  C   UNL A   1     -28.172   2.319  24.487  0.00  0.00    +0.268 C 
ATOM     30  O   UNL A   1     -27.968   3.108  23.745  0.00  0.00    -0.268 OA
ATOM     31  N   UNL A   1     -28.175   2.671  25.844  0.00  0.00    -0.197 NA
BRANCH  31  32
ATOM     32  C   UNL A   1     -27.617   3.890  26.341  0.00  0.00    +0.141 C 
BRANCH  32  33
ATOM     33  C   UNL A   1     -26.957   3.712  27.603  0.00  0.00    -0.007 C 
ATOM     34  C   UNL A   1     -25.729   3.755  27.637  0.00  0.00    -0.029 C 
ATOM     35  C   UNL A   1     -25.001   4.698  26.772  0.00  0.00    +0.030 C 
ENDBRANCH  32  33
ENDBRANCH  31  32
ENDBRANCH  24  29
ENDBRANCH  22  23
ENDBRANCH   6  22
TORSDOF 6
ENDMDL
ENDMDL
