REMARK  Name = No_2670-gen_results/8p0m/2024-11-26-14-13-15/
REMARK  6 active torsions:
REMARK  status: ('A' for Active; 'I' for Inactive)
REMARK    1  A    between atoms: C_4  and  C_11
REMARK    2  A    between atoms: C_6  and  O_16
REMARK    3  A    between atoms: O_16  and  C_17
REMARK    4  A    between atoms: C_18  and  C_29
REMARK    5  A    between atoms: N_31  and  C_32
REMARK    6  A    between atoms: C_32  and  C_33
REMARK                            x       y       z     vdW  Elec       q    Type
REMARK                         _______ _______ _______ _____ _____    ______ ____
ROOT
ATOM      1  C   UNL A   1     -28.016  -0.814  28.878  0.00  0.00    +0.037 A 
ATOM      2  C   UNL A   1     -27.064  -0.119  28.608  0.00  0.00    +0.003 A 
ATOM      3  C   UNL A   1     -25.792  -0.430  29.076  0.00  0.00    -0.002 A 
ATOM      4  C   UNL A   1     -24.546   0.349  28.823  0.00  0.00    -0.004 A 
ATOM      5  C   UNL A   1     -23.241   0.022  29.332  0.00  0.00    -0.003 A 
ATOM      6  C   UNL A   1     -27.882  -1.899  29.863  0.00  0.00    +0.145 A 
ATOM      7  C   UNL A   1     -26.653  -2.314  30.314  0.00  0.00    +0.037 A 
ATOM      8  C   UNL A   1     -25.515  -1.561  29.979  0.00  0.00    +0.003 A 
ATOM      9  C   UNL A   1     -23.216  -1.228  30.050  0.00  0.00    -0.000 A 
ATOM     10  C   UNL A   1     -24.244  -1.937  30.399  0.00  0.00    +0.000 A 
ENDROOT
BRANCH   4  11
ATOM     11  C   UNL A   1     -24.572   1.564  27.960  0.00  0.00    +0.098 C 
ATOM     12  N   UNL A   1     -24.960   1.467  26.813  0.00  0.00    -0.289 N 
ATOM     13  C   UNL A   1     -25.132   2.459  25.976  0.00  0.00    +0.171 C 
ATOM     14  C   UNL A   1     -23.367   2.371  27.826  0.00  0.00    +0.043 C 
ATOM     15  C   UNL A   1     -25.208   0.250  26.077  0.00  0.00    +0.058 C 
ATOM     16  C   UNL A   1     -25.850   0.249  24.830  0.00  0.00    -0.006 C 
ATOM     17  C   UNL A   1     -26.123   3.169  26.082  0.00  0.00    +0.007 C 
ATOM     18  C   UNL A   1     -27.230   2.669  25.202  0.00  0.00    -0.023 C 
ATOM     19  C   UNL A   1     -27.185   1.164  24.928  0.00  0.00    +0.053 C 
ATOM     20  N   UNL A   1     -23.918   2.974  25.464  0.00  0.00    -0.196 NA
ATOM     21  C   UNL A   1     -23.160   3.347  26.748  0.00  0.00    +0.093 C 
ENDBRANCH   4  11
BRANCH   6  22
ATOM     22  O   UNL A   1     -29.029  -2.601  30.162  0.00  0.00    -0.453 OA
BRANCH  22  23
ATOM     23  C   UNL A   1     -29.597  -2.408  31.438  0.00  0.00    +0.150 A 
ATOM     24  C   UNL A   1     -29.763  -3.520  32.116  0.00  0.00    +0.089 A 
ATOM     25  C   UNL A   1     -29.802  -3.421  33.520  0.00  0.00    +0.008 A 
ATOM     26  C   UNL A   1     -29.816  -2.533  34.017  0.00  0.00    +0.000 A 
ATOM     27  C   UNL A   1     -29.644  -1.181  33.461  0.00  0.00    +0.003 A 
ATOM     28  C   UNL A   1     -29.352  -1.224  32.070  0.00  0.00    +0.038 A 
BRANCH  24  29
ATOM     29  C   UNL A   1     -29.778  -4.818  31.371  0.00  0.00    +0.268 C 
ATOM     30  O   UNL A   1     -29.508  -4.979  30.315  0.00  0.00    -0.268 OA
ATOM     31  N   UNL A   1     -29.894  -5.939  32.204  0.00  0.00    -0.197 NA
BRANCH  31  32
ATOM     32  C   UNL A   1     -30.009  -7.276  31.710  0.00  0.00    +0.141 C 
BRANCH  32  33
ATOM     33  C   UNL A   1     -30.283  -8.221  32.755  0.00  0.00    -0.007 C 
ATOM     34  C   UNL A   1     -29.654  -8.133  33.808  0.00  0.00    -0.029 C 
ATOM     35  C   UNL A   1     -29.307  -6.809  34.350  0.00  0.00    +0.030 C 
ENDBRANCH  32  33
ENDBRANCH  31  32
ENDBRANCH  24  29
ENDBRANCH  22  23
ENDBRANCH   6  22
TORSDOF 6
