REMARK  Name = No_2671-gen_results/8p0m/2024-11-26-14-13-15/
REMARK  3 active torsions:
REMARK  status: ('A' for Active; 'I' for Inactive)
REMARK    1  A    between atoms: C_4  and  C_8
REMARK    2  A    between atoms: C_8  and  C_9
REMARK    3  A    between atoms: C_9  and  C_10
REMARK                            x       y       z     vdW  Elec       q    Type
REMARK                         _______ _______ _______ _____ _____    ______ ____
ROOT
ATOM      1  C   UNL A   1     -24.369  -1.119  30.064  0.00  0.00    +0.221 C 
ATOM      2  F   UNL A   1     -23.887  -2.192  29.854  0.00  0.00    -0.218 F 
ATOM      3 CL   UNL A   1     -24.252  -1.804  30.788  0.00  0.00    -0.076 Cl
ENDROOT
BRANCH   1   7
ATOM      4  C   UNL A   1     -28.016  -0.814  28.878  0.00  0.00    +0.011 A 
ATOM      5  C   UNL A   1     -28.469  -0.785  29.829  0.00  0.00    +0.058 A 
ATOM      6  C   UNL A   1     -26.546  -0.876  28.850  0.00  0.00    +0.000 A 
ATOM      7  C   UNL A   1     -25.804  -1.032  30.057  0.00  0.00    +0.022 A 
ATOM      8  C   UNL A   1     -27.944  -0.987  31.207  0.00  0.00    +0.011 A 
ATOM      9  C   UNL A   1     -26.582  -1.039  31.223  0.00  0.00    +0.000 A 
ATOM     10 CL   UNL A   1     -30.281  -0.723  29.883  0.00  0.00    -0.082 Cl
ENDBRANCH   1   7
BRANCH   1  11
ATOM     11  C   UNL A   1     -23.681   0.152  30.084  0.00  0.00    +0.065 C 
ATOM     12  C   UNL A   1     -24.299   1.286  30.878  0.00  0.00    +0.009 C 
ATOM     13  C   UNL A   1     -22.278  -0.237  30.934  0.00  0.00    +0.009 C 
BRANCH  11  14
ATOM     14  C   UNL A   1     -23.261   0.776  28.897  0.00  0.00    +0.000 A 
ATOM     15  C   UNL A   1     -21.984   0.653  28.564  0.00  0.00    +0.095 A 
ATOM     16  C   UNL A   1     -24.198   1.482  28.166  0.00  0.00    -0.001 A 
ATOM     17  C   UNL A   1     -23.790   1.934  26.850  0.00  0.00    +0.020 A 
ATOM     18  N   UNL A   1     -21.504   1.245  27.388  0.00  0.00    -0.243 NA
ATOM     19  C   UNL A   1     -22.347   1.968  26.632  0.00  0.00    +0.099 A 
ENDBRANCH  11  14
ENDBRANCH   1  11
TORSDOF 3
