MODEL 2671
MODEL 1
REMARK VINA RESULT:    -6.290      0.000      0.000
REMARK INTER + INTRA:          -8.076
REMARK INTER:                  -7.393
REMARK INTRA:                  -0.682
REMARK UNBOUND:                -0.682
REMARK  Name = No_2671-gen_results/8p0m/2024-11-26-14-13-15/
REMARK  3 active torsions:
REMARK  status: ('A' for Active; 'I' for Inactive)
REMARK    1  A    between atoms: C_4  and  C_8
REMARK    2  A    between atoms: C_8  and  C_9
REMARK    3  A    between atoms: C_9  and  C_10
REMARK                            x       y       z     vdW  Elec       q    Type
REMARK                         _______ _______ _______ _____ _____    ______ ____
ROOT
ATOM      1  C   UNL A   1     -23.719   0.149  30.340  0.00  0.00    +0.221 C 
ATOM      2  F   UNL A   1     -22.688   0.718  30.140  0.00  0.00    -0.218 F 
ATOM      3 CL   UNL A   1     -23.629   1.143  30.440  0.00  0.00    -0.076 Cl
ENDROOT
BRANCH   1   7
ATOM      4  C   UNL A   1     -25.347   0.081  33.825  0.00  0.00    +0.011 A 
ATOM      5  C   UNL A   1     -24.709  -0.634  34.262  0.00  0.00    +0.058 A 
ATOM      6  C   UNL A   1     -25.045   0.475  32.439  0.00  0.00    +0.000 A 
ATOM      7  C   UNL A   1     -24.025  -0.195  31.702  0.00  0.00    +0.022 A 
ATOM      8  C   UNL A   1     -23.637  -1.507  33.709  0.00  0.00    +0.011 A 
ATOM      9  C   UNL A   1     -23.322  -1.165  32.428  0.00  0.00    +0.000 A 
ATOM     10 CL   UNL A   1     -25.075  -1.142  35.964  0.00  0.00    -0.082 Cl
ENDBRANCH   1   7
BRANCH   1  11
ATOM     11  C   UNL A   1     -24.584  -0.453  29.350  0.00  0.00    +0.065 C 
ATOM     12  C   UNL A   1     -25.973   0.126  29.170  0.00  0.00    +0.009 C 
ATOM     13  C   UNL A   1     -23.781  -0.064  27.919  0.00  0.00    +0.009 C 
BRANCH  11  14
ATOM     14  C   UNL A   1     -24.801  -1.841  29.314  0.00  0.00    +0.000 A 
ATOM     15  C   UNL A   1     -25.999  -2.278  29.673  0.00  0.00    +0.095 A 
ATOM     16  C   UNL A   1     -23.754  -2.653  28.921  0.00  0.00    -0.001 A 
ATOM     17  C   UNL A   1     -24.066  -4.051  28.692  0.00  0.00    +0.020 A 
ATOM     18  N   UNL A   1     -26.282  -3.651  29.651  0.00  0.00    -0.243 NA
ATOM     19  C   UNL A   1     -25.311  -4.510  29.302  0.00  0.00    +0.099 A 
ENDBRANCH  11  14
ENDBRANCH   1  11
TORSDOF 3
ENDMDL
ENDMDL
