REMARK  Name = No_2672-gen_results/8p0m/2024-11-26-14-13-15/
REMARK  1 active torsions:
REMARK  status: ('A' for Active; 'I' for Inactive)
REMARK    1  A    between atoms: C_3  and  C_9
REMARK                            x       y       z     vdW  Elec       q    Type
REMARK                         _______ _______ _______ _____ _____    ______ ____
ROOT
ATOM      1  C   UNL A   1     -28.016  -0.814  28.878  0.00  0.00    +0.023 A 
ATOM      2  C   UNL A   1     -27.064  -0.119  28.608  0.00  0.00    +0.059 A 
ATOM      3  C   UNL A   1     -25.792  -0.430  29.076  0.00  0.00    +0.011 A 
ATOM      4  C   UNL A   1     -25.576  -1.565  29.936  0.00  0.00    +0.002 A 
ATOM      5  C   UNL A   1     -26.735  -2.300  30.217  0.00  0.00    +0.011 A 
ATOM      6  C   UNL A   1     -27.918  -1.954  29.763  0.00  0.00    +0.059 A 
ATOM      7 CL   UNL A   1     -27.355   1.284  27.706  0.00  0.00    -0.082 Cl
ATOM      8 CL   UNL A   1     -29.188  -3.039  30.289  0.00  0.00    -0.082 Cl
ENDROOT
BRANCH   3   9
ATOM      9  C   UNL A   1     -24.541   0.397  28.733  0.00  0.00    +0.003 A 
ATOM     10  C   UNL A   1     -24.353   1.044  27.704  0.00  0.00    +0.030 A 
ATOM     11  C   UNL A   1     -23.116   1.714  27.445  0.00  0.00    +0.140 A 
ATOM     12  C   UNL A   1     -22.006   1.526  28.247  0.00  0.00    +0.030 A 
ATOM     13  C   UNL A   1     -23.367   0.081  29.595  0.00  0.00    +0.000 A 
ATOM     14  C   UNL A   1     -22.102   0.735  29.306  0.00  0.00    +0.002 A 
ATOM     15  F   UNL A   1     -23.072   2.506  26.343  0.00  0.00    -0.204 F 
ENDBRANCH   3   9
TORSDOF 1
