MODEL 2672
MODEL 1
REMARK VINA RESULT:    -6.832      0.000      0.000
REMARK INTER + INTRA:          -7.604
REMARK INTER:                  -7.231
REMARK INTRA:                  -0.373
REMARK UNBOUND:                -0.373
REMARK  Name = No_2672-gen_results/8p0m/2024-11-26-14-13-15/
REMARK  1 active torsions:
REMARK  status: ('A' for Active; 'I' for Inactive)
REMARK    1  A    between atoms: C_3  and  C_9
REMARK                            x       y       z     vdW  Elec       q    Type
REMARK                         _______ _______ _______ _____ _____    ______ ____
ROOT
ATOM      1  C   UNL A   1     -23.531   0.640  27.467  0.00  0.00    +0.023 A 
ATOM      2  C   UNL A   1     -24.265  -0.295  27.687  0.00  0.00    +0.059 A 
ATOM      3  C   UNL A   1     -23.898  -1.301  28.574  0.00  0.00    +0.011 A 
ATOM      4  C   UNL A   1     -22.613  -1.285  29.223  0.00  0.00    +0.002 A 
ATOM      5  C   UNL A   1     -21.818  -0.180  28.893  0.00  0.00    +0.011 A 
ATOM      6  C   UNL A   1     -22.204   0.736  28.035  0.00  0.00    +0.059 A 
ATOM      7 CL   UNL A   1     -25.716  -0.368  26.818  0.00  0.00    -0.082 Cl
ATOM      8 CL   UNL A   1     -21.003   1.988  27.796  0.00  0.00    -0.082 Cl
ENDROOT
BRANCH   3   9
ATOM      9  C   UNL A   1     -24.807  -2.493  28.920  0.00  0.00    +0.003 A 
ATOM     10  C   UNL A   1     -25.831  -2.457  29.602  0.00  0.00    +0.030 A 
ATOM     11  C   UNL A   1     -26.562  -3.641  29.935  0.00  0.00    +0.140 A 
ATOM     12  C   UNL A   1     -26.066  -4.902  29.663  0.00  0.00    +0.030 A 
ATOM     13  C   UNL A   1     -24.171  -3.817  28.669  0.00  0.00    +0.000 A 
ATOM     14  C   UNL A   1     -24.900  -5.017  29.043  0.00  0.00    +0.002 A 
ATOM     15  F   UNL A   1     -27.746  -3.464  30.576  0.00  0.00    -0.204 F 
ENDBRANCH   3   9
TORSDOF 1
ENDMDL
ENDMDL
