MODEL 2673
MODEL 1
REMARK VINA RESULT:    -7.909      0.000      0.000
REMARK INTER + INTRA:          -3.647
REMARK INTER:                  -8.834
REMARK INTRA:                   5.187
REMARK UNBOUND:                 5.187
REMARK  Name = No_2673-gen_results/8p0m/2024-11-26-14-13-15/
REMARK  2 active torsions:
REMARK  status: ('A' for Active; 'I' for Inactive)
REMARK    1  A    between atoms: C_20  and  C_21
REMARK    2  A    between atoms: C_21  and  C_22
REMARK                            x       y       z     vdW  Elec       q    Type
REMARK                         _______ _______ _______ _____ _____    ______ ____
ROOT
ATOM      1  C   UNL A   1     -23.807  -2.852  29.046  0.00  0.00    +0.013 A 
ATOM      2  C   UNL A   1     -23.591  -1.690  29.302  0.00  0.00    +0.014 A 
ATOM      3  C   UNL A   1     -24.504  -0.933  30.028  0.00  0.00    +0.051 A 
ATOM      4  C   UNL A   1     -25.758  -1.496  30.458  0.00  0.00    +0.016 A 
ATOM      5  C   UNL A   1     -25.937  -2.838  30.099  0.00  0.00    +0.013 A 
ATOM      6  C   UNL A   1     -25.049  -3.505  29.397  0.00  0.00    +0.058 A 
ATOM      7 CL   UNL A   1     -25.397  -5.116  28.968  0.00  0.00    -0.082 Cl
ATOM      8  C   UNL A   1     -22.396  -0.772  29.077  0.00  0.00    -0.003 C 
ATOM      9  C   UNL A   1     -22.190   0.181  28.593  0.00  0.00    -0.026 C 
ATOM     10  C   UNL A   1     -23.461   0.914  28.085  0.00  0.00    +0.024 C 
ATOM     11  C   UNL A   1     -23.883   1.865  29.033  0.00  0.00    +0.045 C 
ATOM     12  C   UNL A   1     -25.082   1.444  29.819  0.00  0.00    +0.029 C 
ATOM     13  C   UNL A   1     -25.853   2.422  30.496  0.00  0.00    +0.011 C 
ATOM     14  N   UNL A   1     -24.625   0.419  30.034  0.00  0.00    -0.288 N 
ATOM     15  C   UNL A   1     -23.724   0.923  31.386  0.00  0.00    +0.117 C 
ATOM     16  C   UNL A   1     -23.088   1.781  26.716  0.00  0.00    +0.004 C 
ATOM     17  C   UNL A   1     -23.926   1.553  25.620  0.00  0.00    +0.000 C 
ATOM     18  C   UNL A   1     -24.776   0.542  25.603  0.00  0.00    +0.000 C 
ATOM     19  C   UNL A   1     -24.957  -0.317  26.691  0.00  0.00    +0.000 C 
ATOM     20  C   UNL A   1     -24.352  -0.098  27.899  0.00  0.00    +0.004 C 
ENDROOT
BRANCH  20  21
ATOM     21  C   UNL A   1     -25.335   0.440  27.603  0.00  0.00    +0.000 C 
ATOM     22  C   UNL A   1     -26.751  -0.046  27.227  0.00  0.00    +0.000 C 
BRANCH  21  23
ATOM     23  C   UNL A   1     -25.533   1.802  26.968  0.00  0.00    +0.000 C 
ATOM     24  C   UNL A   1     -26.778   2.543  26.950  0.00  0.00    +0.000 C 
ENDBRANCH  21  23
ENDBRANCH  20  21
TORSDOF 2
ENDMDL
ENDMDL
