REMARK  Name = No_2673-gen_results/8p0m/2024-11-26-14-13-15/
REMARK  2 active torsions:
REMARK  status: ('A' for Active; 'I' for Inactive)
REMARK    1  A    between atoms: C_20  and  C_21
REMARK    2  A    between atoms: C_21  and  C_22
REMARK                            x       y       z     vdW  Elec       q    Type
REMARK                         _______ _______ _______ _____ _____    ______ ____
ROOT
ATOM      1  C   UNL A   1     -28.016  -0.814  28.878  0.00  0.00    +0.013 A 
ATOM      2  C   UNL A   1     -27.064  -0.119  28.608  0.00  0.00    +0.014 A 
ATOM      3  C   UNL A   1     -25.792  -0.430  29.076  0.00  0.00    +0.051 A 
ATOM      4  C   UNL A   1     -25.576  -1.565  29.936  0.00  0.00    +0.016 A 
ATOM      5  C   UNL A   1     -26.735  -2.300  30.217  0.00  0.00    +0.013 A 
ATOM      6  C   UNL A   1     -27.918  -1.954  29.763  0.00  0.00    +0.058 A 
ATOM      7 CL   UNL A   1     -29.268  -2.889  30.215  0.00  0.00    -0.082 Cl
ATOM      8  C   UNL A   1     -26.876   1.099  27.712  0.00  0.00    -0.003 C 
ATOM      9  C   UNL A   1     -26.517   2.123  27.806  0.00  0.00    -0.026 C 
ATOM     10  C   UNL A   1     -25.889   2.442  29.190  0.00  0.00    +0.024 C 
ATOM     11  C   UNL A   1     -24.489   2.309  29.129  0.00  0.00    +0.045 C 
ATOM     12  C   UNL A   1     -23.972   1.063  29.772  0.00  0.00    +0.029 C 
ATOM     13  C   UNL A   1     -22.608   0.985  30.149  0.00  0.00    +0.011 C 
ATOM     14  N   UNL A   1     -24.746   0.420  29.230  0.00  0.00    -0.288 N 
ATOM     15  C   UNL A   1     -23.838   0.244  27.802  0.00  0.00    +0.117 C 
ATOM     16  C   UNL A   1     -26.171   4.037  29.569  0.00  0.00    +0.004 C 
ATOM     17  C   UNL A   1     -26.740   4.258  30.826  0.00  0.00    +0.000 C 
ATOM     18  C   UNL A   1     -27.245   3.266  31.537  0.00  0.00    +0.000 C 
ATOM     19  C   UNL A   1     -27.183   1.931  31.129  0.00  0.00    +0.000 C 
ATOM     20  C   UNL A   1     -26.484   1.541  30.018  0.00  0.00    +0.004 C 
ENDROOT
BRANCH  20  21
ATOM     21  C   UNL A   1     -25.962   1.708  31.040  0.00  0.00    +0.000 C 
ATOM     22  C   UNL A   1     -24.882   2.690  31.543  0.00  0.00    +0.000 C 
BRANCH  21  23
ATOM     23  C   UNL A   1     -25.737   0.731  32.177  0.00  0.00    +0.000 C 
ATOM     24  C   UNL A   1     -26.056   0.981  33.568  0.00  0.00    +0.000 C 
ENDBRANCH  21  23
ENDBRANCH  20  21
TORSDOF 2
