MODEL 2674
MODEL 1
REMARK VINA RESULT:    -5.274      0.000      0.000
REMARK INTER + INTRA:          -5.859
REMARK INTER:                  -5.583
REMARK INTRA:                  -0.276
REMARK UNBOUND:                -0.276
REMARK  Name = No_2674-gen_results/8p0m/2024-11-26-14-13-15/
REMARK  1 active torsions:
REMARK  status: ('A' for Active; 'I' for Inactive)
REMARK    1  A    between atoms: C_1  and  C_2
REMARK                            x       y       z     vdW  Elec       q    Type
REMARK                         _______ _______ _______ _____ _____    ______ ____
ROOT
ATOM      1  C   UNL A   1     -24.488  -2.465  29.055  0.00  0.00    -0.001 A 
ATOM      2  C   UNL A   1     -23.938  -3.706  28.798  0.00  0.00    -0.000 A 
ATOM      3  C   UNL A   1     -24.694  -4.868  28.942  0.00  0.00    -0.000 A 
ATOM      4  C   UNL A   1     -26.002  -4.867  29.581  0.00  0.00    -0.000 A 
ATOM      5  C   UNL A   1     -26.521  -3.600  29.894  0.00  0.00    -0.000 A 
ATOM      6  C   UNL A   1     -25.806  -2.489  29.567  0.00  0.00    -0.000 A 
ENDROOT
BRANCH   1   7
ATOM      7  C   UNL A   1     -24.106  -1.443  28.533  0.00  0.00    -0.009 C 
ATOM      8  C   UNL A   1     -23.048  -0.618  29.179  0.00  0.00    -0.044 C 
ATOM      9  C   UNL A   1     -22.435   0.504  28.465  0.00  0.00    +0.026 C 
ATOM     10  C   UNL A   1     -22.803  -0.738  30.599  0.00  0.00    +0.026 C 
ENDBRANCH   1   7
TORSDOF 1
ENDMDL
ENDMDL
