REMARK  Name = No_2675-gen_results/8p0m/2024-11-26-14-13-15/
REMARK  4 active torsions:
REMARK  status: ('A' for Active; 'I' for Inactive)
REMARK    1  A    between atoms: C_3  and  C_4
REMARK    2  A    between atoms: C_4  and  C_8
REMARK    3  A    between atoms: C_9  and  C_10
REMARK    4  A    between atoms: C_10  and  C_11
REMARK                            x       y       z     vdW  Elec       q    Type
REMARK                         _______ _______ _______ _____ _____    ______ ____
ROOT
ATOM      1  C   UNL A   1     -25.899   0.315  26.747  0.00  0.00    -0.043 C 
ATOM      2  C   UNL A   1     -26.773   0.475  26.258  0.00  0.00    -0.029 C 
ATOM      3  C   UNL A   1     -24.600   0.843  26.227  0.00  0.00    +0.026 C 
ENDROOT
BRANCH   1   4
ATOM      4  C   UNL A   1     -25.654  -0.660  27.719  0.00  0.00    +0.048 C 
BRANCH   4   7
ATOM      5  C   UNL A   1     -28.016  -0.814  28.878  0.00  0.00    -0.004 A 
ATOM      6  C   UNL A   1     -28.469  -0.785  29.829  0.00  0.00    -0.000 A 
ATOM      7  C   UNL A   1     -26.504  -0.778  28.877  0.00  0.00    -0.018 A 
ATOM      8  C   UNL A   1     -27.918  -0.937  31.182  0.00  0.00    -0.000 A 
ATOM      9  C   UNL A   1     -26.542  -0.940  31.261  0.00  0.00    -0.000 A 
ATOM     10  C   UNL A   1     -25.783  -0.893  30.120  0.00  0.00    -0.004 A 
ENDBRANCH   4   7
ENDBRANCH   1   4
BRANCH   2  11
ATOM     11  C   UNL A   1     -26.952   1.535  25.186  0.00  0.00    +0.052 C 
BRANCH  11  12
ATOM     12  C   UNL A   1     -28.192   1.842  24.642  0.00  0.00    -0.018 A 
ATOM     13  C   UNL A   1     -29.228   0.939  24.726  0.00  0.00    -0.004 A 
ATOM     14  C   UNL A   1     -30.457   1.309  24.345  0.00  0.00    -0.000 A 
ATOM     15  C   UNL A   1     -30.619   2.625  23.805  0.00  0.00    -0.000 A 
ATOM     16  C   UNL A   1     -29.609   3.529  23.783  0.00  0.00    -0.000 A 
ATOM     17  C   UNL A   1     -28.391   3.196  24.267  0.00  0.00    -0.004 A 
ENDBRANCH  11  12
ENDBRANCH   2  11
TORSDOF 4
