MODEL 2675
MODEL 1
REMARK VINA RESULT:    -6.785      0.000      0.000
REMARK INTER + INTRA:          -9.095
REMARK INTER:                  -8.372
REMARK INTRA:                  -0.724
REMARK UNBOUND:                -0.724
REMARK  Name = No_2675-gen_results/8p0m/2024-11-26-14-13-15/
REMARK  4 active torsions:
REMARK  status: ('A' for Active; 'I' for Inactive)
REMARK    1  A    between atoms: C_3  and  C_4
REMARK    2  A    between atoms: C_4  and  C_8
REMARK    3  A    between atoms: C_9  and  C_10
REMARK    4  A    between atoms: C_10  and  C_11
REMARK                            x       y       z     vdW  Elec       q    Type
REMARK                         _______ _______ _______ _____ _____    ______ ____
ROOT
ATOM      1  C   UNL A   1      -9.859   0.350  36.172  0.00  0.00    -0.043 C 
ATOM      2  C   UNL A   1      -8.932  -0.062  36.152  0.00  0.00    -0.029 C 
ATOM      3  C   UNL A   1     -10.363   1.205  35.053  0.00  0.00    +0.026 C 
ENDROOT
BRANCH   1   4
ATOM      4  C   UNL A   1     -10.669   0.524  37.298  0.00  0.00    +0.048 C 
BRANCH   4   7
ATOM      5  C   UNL A   1     -11.342  -2.017  37.484  0.00  0.00    -0.004 A 
ATOM      6  C   UNL A   1     -11.846  -2.690  38.119  0.00  0.00    -0.000 A 
ATOM      7  C   UNL A   1     -11.184  -0.612  38.020  0.00  0.00    -0.018 A 
ATOM      8  C   UNL A   1     -12.240  -2.597  39.531  0.00  0.00    -0.000 A 
ATOM      9  C   UNL A   1     -12.099  -1.350  40.101  0.00  0.00    -0.000 A 
ATOM     10  C   UNL A   1     -11.540  -0.321  39.386  0.00  0.00    -0.004 A 
ENDBRANCH   4   7
ENDBRANCH   1   4
BRANCH   2  11
ATOM     11  C   UNL A   1      -8.097  -0.185  34.890  0.00  0.00    +0.052 C 
BRANCH  11  12
ATOM     12  C   UNL A   1      -6.796  -0.670  34.902  0.00  0.00    -0.018 A 
ATOM     13  C   UNL A   1      -6.528  -1.945  34.458  0.00  0.00    -0.004 A 
ATOM     14  C   UNL A   1      -5.256  -2.342  34.322  0.00  0.00    -0.000 A 
ATOM     15  C   UNL A   1      -4.227  -1.425  34.711  0.00  0.00    -0.000 A 
ATOM     16  C   UNL A   1      -4.496  -0.151  35.088  0.00  0.00    -0.000 A 
ATOM     17  C   UNL A   1      -5.774   0.290  35.123  0.00  0.00    -0.004 A 
ENDBRANCH  11  12
ENDBRANCH   2  11
TORSDOF 4
ENDMDL
ENDMDL
