MODEL 2676
MODEL 1
REMARK VINA RESULT:    -6.715      0.000      0.000
REMARK INTER + INTRA:         -10.174
REMARK INTER:                  -9.070
REMARK INTRA:                  -1.104
REMARK UNBOUND:                -1.104
REMARK  Name = No_2676-gen_results/8p0m/2024-11-26-14-13-15/
REMARK  6 active torsions:
REMARK  status: ('A' for Active; 'I' for Inactive)
REMARK    1  A    between atoms: C_3  and  C_15
REMARK    2  A    between atoms: C_6  and  C_8
REMARK    3  A    between atoms: C_15  and  O_17
REMARK    4  A    between atoms: O_17  and  C_18
REMARK    5  A    between atoms: C_18  and  C_19
REMARK    6  A    between atoms: C_20  and  C_21
REMARK                            x       y       z     vdW  Elec       q    Type
REMARK                         _______ _______ _______ _____ _____    ______ ____
ROOT
ATOM      1  O   UNL A   1     -24.898   1.868  30.351  0.00  0.00    -0.274 OA
ATOM      2  C   UNL A   1     -25.226   1.131  29.536  0.00  0.00    +0.236 C 
ATOM      3  C   UNL A   1     -25.157   1.584  28.217  0.00  0.00    +0.175 C 
ATOM      4  N   UNL A   1     -25.272  -0.226  29.765  0.00  0.00    -0.275 N 
ATOM      5  C   UNL A   1     -24.994   0.811  27.163  0.00  0.00    +0.022 C 
ATOM      6  C   UNL A   1     -25.289  -0.976  28.839  0.00  0.00    +0.098 C 
ATOM      7  C   UNL A   1     -25.181  -0.659  27.454  0.00  0.00    +0.025 C 
ATOM      8  C   UNL A   1     -25.364  -0.598  31.146  0.00  0.00    +0.115 C 
ENDROOT
BRANCH   6   9
ATOM      9  C   UNL A   1     -25.347  -2.452  29.069  0.00  0.00    -0.004 A 
ATOM     10  C   UNL A   1     -26.178  -3.137  29.517  0.00  0.00    -0.003 A 
ATOM     11  C   UNL A   1     -26.234  -4.571  29.698  0.00  0.00    -0.000 A 
ATOM     12  C   UNL A   1     -25.078  -5.269  29.277  0.00  0.00    -0.000 A 
ATOM     13  C   UNL A   1     -24.054  -4.589  28.746  0.00  0.00    -0.000 A 
ATOM     14  C   UNL A   1     -24.064  -3.191  28.614  0.00  0.00    -0.003 A 
ENDBRANCH   6   9
BRANCH   3  15
ATOM     15  C   UNL A   1     -25.066   3.086  27.960  0.00  0.00    +0.326 C 
ATOM     16  O   UNL A   1     -24.141   3.514  27.660  0.00  0.00    -0.250 OA
BRANCH  15  17
ATOM     17  O   UNL A   1     -26.233   3.717  27.976  0.00  0.00    -0.443 OA
BRANCH  17  18
ATOM     18  C   UNL A   1     -26.734   3.995  26.672  0.00  0.00    +0.234 C 
BRANCH  18  19
ATOM     19  C   UNL A   1     -27.819   3.315  26.199  0.00  0.00    +0.017 C 
ATOM     20  C   UNL A   1     -27.565   2.243  25.285  0.00  0.00    -0.019 C 
BRANCH  20  21
ATOM     21  C   UNL A   1     -28.650   1.448  24.876  0.00  0.00    +0.066 C 
ATOM     22  C   UNL A   1     -29.221   1.657  23.705  0.00  0.00    -0.018 C 
ATOM     23  C   UNL A   1     -29.889   0.505  23.253  0.00  0.00    -0.004 C 
ATOM     24  C   UNL A   1     -29.040  -0.673  23.510  0.00  0.00    -0.004 C 
ATOM     25  C   UNL A   1     -28.022  -0.084  24.470  0.00  0.00    -0.018 C 
ENDBRANCH  20  21
ENDBRANCH  18  19
ENDBRANCH  17  18
ENDBRANCH  15  17
ENDBRANCH   3  15
TORSDOF 6
ENDMDL
ENDMDL
