REMARK  Name = No_2676-gen_results/8p0m/2024-11-26-14-13-15/
REMARK  6 active torsions:
REMARK  status: ('A' for Active; 'I' for Inactive)
REMARK    1  A    between atoms: C_3  and  C_15
REMARK    2  A    between atoms: C_6  and  C_8
REMARK    3  A    between atoms: C_15  and  O_17
REMARK    4  A    between atoms: O_17  and  C_18
REMARK    5  A    between atoms: C_18  and  C_19
REMARK    6  A    between atoms: C_20  and  C_21
REMARK                            x       y       z     vdW  Elec       q    Type
REMARK                         _______ _______ _______ _____ _____    ______ ____
ROOT
ATOM      1  O   UNL A   1     -28.123  -1.335  28.487  0.00  0.00    -0.274 OA
ATOM      2  C   UNL A   1     -28.521  -0.436  29.078  0.00  0.00    +0.236 C 
ATOM      3  C   UNL A   1     -27.666   0.113  30.035  0.00  0.00    +0.175 C 
ATOM      4  N   UNL A   1     -29.566   0.330  28.610  0.00  0.00    -0.275 N 
ATOM      5  C   UNL A   1     -27.693   1.367  30.437  0.00  0.00    +0.022 C 
ATOM      6  C   UNL A   1     -29.737   1.421  29.056  0.00  0.00    +0.098 C 
ATOM      7  C   UNL A   1     -28.926   2.119  29.997  0.00  0.00    +0.025 C 
ATOM      8  C   UNL A   1     -30.403  -0.322  27.647  0.00  0.00    +0.115 C 
ENDROOT
BRANCH   6   9
ATOM      9  C   UNL A   1     -30.871   2.263  28.567  0.00  0.00    -0.004 A 
ATOM     10  C   UNL A   1     -31.453   2.273  27.556  0.00  0.00    -0.003 A 
ATOM     11  C   UNL A   1     -32.575   3.071  27.112  0.00  0.00    -0.000 A 
ATOM     12  C   UNL A   1     -33.042   4.017  28.054  0.00  0.00    -0.000 A 
ATOM     13  C   UNL A   1     -32.451   4.101  29.252  0.00  0.00    -0.000 A 
ATOM     14  C   UNL A   1     -31.354   3.302  29.610  0.00  0.00    -0.003 A 
ENDBRANCH   6   9
BRANCH   3  15
ATOM     15  C   UNL A   1     -26.483  -0.717  30.527  0.00  0.00    +0.326 C 
ATOM     16  O   UNL A   1     -26.432  -1.009  31.547  0.00  0.00    -0.250 OA
BRANCH  15  17
ATOM     17  O   UNL A   1     -25.681  -1.152  29.564  0.00  0.00    -0.443 OA
BRANCH  17  18
ATOM     18  C   UNL A   1     -24.300  -1.007  29.882  0.00  0.00    +0.234 C 
BRANCH  18  19
ATOM     19  C   UNL A   1     -23.656   0.164  29.602  0.00  0.00    +0.017 C 
ATOM     20  C   UNL A   1     -22.370   0.064  28.980  0.00  0.00    -0.019 C 
BRANCH  20  21
ATOM     21  C   UNL A   1     -21.737   1.250  28.571  0.00  0.00    +0.066 C 
ATOM     22  C   UNL A   1     -20.921   1.243  27.534  0.00  0.00    -0.018 C 
ATOM     23  C   UNL A   1     -20.808   2.526  26.969  0.00  0.00    -0.004 C 
ATOM     24  C   UNL A   1     -22.146   3.142  26.907  0.00  0.00    -0.004 C 
ATOM     25  C   UNL A   1     -22.925   2.219  27.826  0.00  0.00    -0.018 C 
ENDBRANCH  20  21
ENDBRANCH  18  19
ENDBRANCH  17  18
ENDBRANCH  15  17
ENDBRANCH   3  15
TORSDOF 6
