REMARK  Name = No_2677-gen_results/8p0m/2024-11-26-14-13-15/
REMARK  6 active torsions:
REMARK  status: ('A' for Active; 'I' for Inactive)
REMARK    1  A    between atoms: C_1  and  C_11
REMARK    2  A    between atoms: C_5  and  C_6
REMARK    3  A    between atoms: C_11  and  C_13
REMARK    4  A    between atoms: C_13  and  C_14
REMARK    5  A    between atoms: C_15  and  C_16
REMARK    6  A    between atoms: C_17  and  C_18
REMARK                            x       y       z     vdW  Elec       q    Type
REMARK                         _______ _______ _______ _____ _____    ______ ____
ROOT
ATOM      1  C   UNL A   1     -28.016  -0.814  28.878  0.00  0.00    -0.012 C 
ATOM      2  C   UNL A   1     -27.064  -0.119  28.608  0.00  0.00    -0.044 C 
ATOM      3  C   UNL A   1     -26.876   1.133  28.913  0.00  0.00    +0.022 C 
ATOM      4  C   UNL A   1     -25.688   1.952  28.567  0.00  0.00    +0.013 C 
ATOM      5  C   UNL A   1     -24.639   1.283  27.875  0.00  0.00    +0.081 C 
ATOM      6  C   UNL A   1     -25.843  -0.737  27.921  0.00  0.00    +0.022 C 
ATOM      7  C   UNL A   1     -24.690  -0.052  27.583  0.00  0.00    +0.013 C 
ENDROOT
BRANCH   5   8
ATOM      8  C   UNL A   1     -23.456   2.000  27.565  0.00  0.00    +0.260 C 
ATOM      9  N   UNL A   1     -22.228   2.139  27.875  0.00  0.00    -0.088 NA
ATOM     10  O   UNL A   1     -23.666   2.786  26.373  0.00  0.00    -0.272 OA
ENDBRANCH   5   8
BRANCH   1  11
ATOM     11  C   UNL A   1     -27.857  -1.416  30.277  0.00  0.00    -0.018 C 
ATOM     12  C   UNL A   1     -26.788  -1.493  30.781  0.00  0.00    -0.004 C 
BRANCH  11  13
ATOM     13  C   UNL A   1     -29.098  -2.138  30.796  0.00  0.00    +0.052 C 
BRANCH  13  14
ATOM     14  C   UNL A   1     -30.134  -1.663  30.812  0.00  0.00    -0.021 C 
ATOM     15  C   UNL A   1     -30.343  -0.381  30.589  0.00  0.00    -0.004 C 
BRANCH  15  16
ATOM     16  C   UNL A   1     -29.565   0.507  30.938  0.00  0.00    -0.000 C 
ATOM     17  C   UNL A   1     -29.845   1.508  31.645  0.00  0.00    -0.000 C 
BRANCH  17  18
ATOM     18  C   UNL A   1     -28.951   2.636  31.974  0.00  0.00    -0.005 C 
ATOM     19  C   UNL A   1     -27.622   2.455  31.549  0.00  0.00    -0.026 C 
ATOM     20  C   UNL A   1     -27.239   1.314  30.924  0.00  0.00    +0.031 C 
ENDBRANCH  17  18
ENDBRANCH  15  16
ENDBRANCH  13  14
ENDBRANCH  11  13
ENDBRANCH   1  11
TORSDOF 6
