MODEL 2677
MODEL 1
REMARK VINA RESULT:    -6.430      0.000      0.000
REMARK INTER + INTRA:         -10.188
REMARK INTER:                  -8.686
REMARK INTRA:                  -1.502
REMARK UNBOUND:                -1.502
REMARK  Name = No_2677-gen_results/8p0m/2024-11-26-14-13-15/
REMARK  6 active torsions:
REMARK  status: ('A' for Active; 'I' for Inactive)
REMARK    1  A    between atoms: C_1  and  C_11
REMARK    2  A    between atoms: C_5  and  C_6
REMARK    3  A    between atoms: C_11  and  C_13
REMARK    4  A    between atoms: C_13  and  C_14
REMARK    5  A    between atoms: C_15  and  C_16
REMARK    6  A    between atoms: C_17  and  C_18
REMARK                            x       y       z     vdW  Elec       q    Type
REMARK                         _______ _______ _______ _____ _____    ______ ____
ROOT
ATOM      1  C   UNL A   1     -23.413   1.617  28.542  0.00  0.00    -0.012 C 
ATOM      2  C   UNL A   1     -23.775   0.467  28.633  0.00  0.00    -0.044 C 
ATOM      3  C   UNL A   1     -24.901  -0.051  28.234  0.00  0.00    +0.022 C 
ATOM      4  C   UNL A   1     -25.307  -1.473  28.359  0.00  0.00    +0.013 C 
ATOM      5  C   UNL A   1     -24.348  -2.356  28.930  0.00  0.00    +0.081 C 
ATOM      6  C   UNL A   1     -22.810  -0.593  29.172  0.00  0.00    +0.022 C 
ATOM      7  C   UNL A   1     -23.100  -1.939  29.302  0.00  0.00    +0.013 C 
ENDROOT
BRANCH   5   8
ATOM      8  C   UNL A   1     -24.658  -3.736  29.026  0.00  0.00    +0.260 C 
ATOM      9  N   UNL A   1     -25.590  -4.563  29.294  0.00  0.00    -0.088 NA
ATOM     10  O   UNL A   1     -23.556  -4.515  28.517  0.00  0.00    -0.272 OA
ENDBRANCH   5   8
BRANCH   1  11
ATOM     11  C   UNL A   1     -22.779   1.870  27.172  0.00  0.00    -0.018 C 
ATOM     12  C   UNL A   1     -21.611   1.743  27.016  0.00  0.00    -0.004 C 
BRANCH  11  13
ATOM     13  C   UNL A   1     -23.703   2.553  26.167  0.00  0.00    +0.052 C 
BRANCH  13  14
ATOM     14  C   UNL A   1     -24.233   3.539  26.379  0.00  0.00    -0.021 C 
ATOM     15  C   UNL A   1     -25.545   3.663  26.402  0.00  0.00    -0.004 C 
BRANCH  15  16
ATOM     16  C   UNL A   1     -26.302   3.031  25.666  0.00  0.00    -0.000 C 
ATOM     17  C   UNL A   1     -26.756   1.878  25.876  0.00  0.00    -0.000 C 
BRANCH  17  18
ATOM     18  C   UNL A   1     -27.571   1.066  24.950  0.00  0.00    -0.005 C 
ATOM     19  C   UNL A   1     -26.912  -0.078  24.463  0.00  0.00    -0.026 C 
ATOM     20  C   UNL A   1     -25.632  -0.350  24.818  0.00  0.00    +0.031 C 
ENDBRANCH  17  18
ENDBRANCH  15  16
ENDBRANCH  13  14
ENDBRANCH  11  13
ENDBRANCH   1  11
TORSDOF 6
ENDMDL
ENDMDL
