MODEL 2678
MODEL 1
REMARK VINA RESULT:    -5.911      0.000      0.000
REMARK INTER + INTRA:          -9.969
REMARK INTER:                  -7.984
REMARK INTRA:                  -1.984
REMARK UNBOUND:                -1.984
REMARK  Name = No_2678-gen_results/8p0m/2024-11-26-14-13-15/
REMARK  6 active torsions:
REMARK  status: ('A' for Active; 'I' for Inactive)
REMARK    1  A    between atoms: C_2  and  C_17
REMARK    2  A    between atoms: C_4  and  C_7
REMARK    3  A    between atoms: C_8  and  C_14
REMARK    4  A    between atoms: N_19  and  C_21
REMARK    5  A    between atoms: C_22  and  C_23
REMARK    6  A    between atoms: C_24  and  C_25
REMARK                            x       y       z     vdW  Elec       q    Type
REMARK                         _______ _______ _______ _____ _____    ______ ____
ROOT
ATOM      1  C   UNL A   1     -26.691   0.111  27.945  0.00  0.00    +0.004 A 
ATOM      2  C   UNL A   1     -25.904  -0.218  27.326  0.00  0.00    +0.054 A 
ATOM      3  C   UNL A   1     -27.855   0.760  27.230  0.00  0.00    -0.004 A 
ATOM      4  C   UNL A   1     -27.887   0.757  25.819  0.00  0.00    -0.022 A 
ATOM      5  C   UNL A   1     -25.707  -0.367  25.866  0.00  0.00    +0.004 A 
ATOM      6  C   UNL A   1     -26.761   0.213  25.174  0.00  0.00    -0.004 A 
ENDROOT
BRANCH   4   7
ATOM      7  C   UNL A   1     -28.947   1.369  25.093  0.00  0.00    +0.029 C 
ATOM      8  C   UNL A   1     -29.899   0.465  24.539  0.00  0.00    +0.107 C 
ATOM      9  C   UNL A   1     -30.627   0.861  23.398  0.00  0.00    +0.012 C 
ATOM     10  C   UNL A   1     -30.427   2.157  22.862  0.00  0.00    +0.001 C 
ATOM     11  C   UNL A   1     -29.713   2.469  25.692  0.00  0.00    +0.005 C 
ATOM     12  C   UNL A   1     -28.173   2.215  23.897  0.00  0.00    +0.005 C 
ATOM     13  C   UNL A   1     -29.315   2.921  23.141  0.00  0.00    +0.000 C 
BRANCH   8  14
ATOM     14  C   UNL A   1     -30.185  -0.836  25.099  0.00  0.00    +0.365 C 
ATOM     15  O   UNL A   1     -30.235  -1.881  24.453  0.00  0.00    -0.246 OA
ATOM     16  O   UNL A   1     -30.963  -0.826  26.253  0.00  0.00    -0.246 OA
ENDBRANCH   8  14
ENDBRANCH   4   7
BRANCH   2  17
ATOM     17  C   UNL A   1     -24.681  -0.931  28.092  0.00  0.00    +0.253 C 
ATOM     18  O   UNL A   1     -24.471  -2.046  28.174  0.00  0.00    -0.270 OA
ATOM     19  N   UNL A   1     -23.867  -0.017  28.724  0.00  0.00    -0.252 N 
ATOM     20  C   UNL A   1     -22.774  -0.472  29.544  0.00  0.00    +0.120 C 
BRANCH  19  21
ATOM     21  C   UNL A   1     -23.975   1.441  28.624  0.00  0.00    +0.068 C 
ATOM     22  C   UNL A   1     -22.887   1.963  27.788  0.00  0.00    +0.016 C 
BRANCH  22  23
ATOM     23  C   UNL A   1     -22.820   1.748  26.575  0.00  0.00    +0.001 C 
ATOM     24  C   UNL A   1     -23.219   2.229  25.602  0.00  0.00    +0.000 C 
BRANCH  24  25
ATOM     25  C   UNL A   1     -23.929   3.507  25.862  0.00  0.00    +0.000 C 
ATOM     26  C   UNL A   1     -25.292   3.501  25.835  0.00  0.00    +0.000 C 
ENDBRANCH  24  25
ENDBRANCH  22  23
ENDBRANCH  19  21
ENDBRANCH   2  17
TORSDOF 6
ENDMDL
ENDMDL
