REMARK  Name = No_2678-gen_results/8p0m/2024-11-26-14-13-15/
REMARK  6 active torsions:
REMARK  status: ('A' for Active; 'I' for Inactive)
REMARK    1  A    between atoms: C_2  and  C_17
REMARK    2  A    between atoms: C_4  and  C_7
REMARK    3  A    between atoms: C_8  and  C_14
REMARK    4  A    between atoms: N_19  and  C_21
REMARK    5  A    between atoms: C_22  and  C_23
REMARK    6  A    between atoms: C_24  and  C_25
REMARK                            x       y       z     vdW  Elec       q    Type
REMARK                         _______ _______ _______ _____ _____    ______ ____
ROOT
ATOM      1  C   UNL A   1     -28.016  -0.814  28.878  0.00  0.00    +0.004 A 
ATOM      2  C   UNL A   1     -28.469  -0.785  29.829  0.00  0.00    +0.054 A 
ATOM      3  C   UNL A   1     -26.504  -0.778  28.877  0.00  0.00    -0.004 A 
ATOM      4  C   UNL A   1     -25.810  -0.853  30.103  0.00  0.00    -0.022 A 
ATOM      5  C   UNL A   1     -27.991  -0.892  31.226  0.00  0.00    +0.004 A 
ATOM      6  C   UNL A   1     -26.604  -0.868  31.265  0.00  0.00    -0.004 A 
ENDROOT
BRANCH   4   7
ATOM      7  C   UNL A   1     -24.389  -0.805  30.164  0.00  0.00    +0.029 C 
ATOM      8  C   UNL A   1     -23.817   0.476  29.912  0.00  0.00    +0.107 C 
ATOM      9  C   UNL A   1     -22.501   0.545  29.410  0.00  0.00    +0.012 C 
ATOM     10  C   UNL A   1     -21.770  -0.652  29.213  0.00  0.00    +0.001 C 
ATOM     11  C   UNL A   1     -23.681  -1.359  31.325  0.00  0.00    +0.005 C 
ATOM     12  C   UNL A   1     -23.905  -1.901  29.020  0.00  0.00    +0.005 C 
ATOM     13  C   UNL A   1     -22.367  -1.890  29.121  0.00  0.00    +0.000 C 
BRANCH   8  14
ATOM     14  C   UNL A   1     -24.503   1.721  30.169  0.00  0.00    +0.365 C 
ATOM     15  O   UNL A   1     -24.735   2.175  31.287  0.00  0.00    -0.246 OA
ATOM     16  O   UNL A   1     -25.400   2.118  29.181  0.00  0.00    -0.246 OA
ENDBRANCH   8  14
ENDBRANCH   4   7
BRANCH   2  17
ATOM     17  C   UNL A   1     -30.078  -0.850  29.823  0.00  0.00    +0.253 C 
ATOM     18  O   UNL A   1     -30.741  -1.632  30.316  0.00  0.00    -0.270 OA
ATOM     19  N   UNL A   1     -30.631   0.172  29.084  0.00  0.00    -0.252 N 
ATOM     20  C   UNL A   1     -32.056   0.224  28.881  0.00  0.00    +0.120 C 
BRANCH  19  21
ATOM     21  C   UNL A   1     -29.898   1.287  28.478  0.00  0.00    +0.068 C 
ATOM     22  C   UNL A   1     -30.229   2.536  29.174  0.00  0.00    +0.016 C 
BRANCH  22  23
ATOM     23  C   UNL A   1     -29.882   2.761  30.336  0.00  0.00    +0.001 C 
ATOM     24  C   UNL A   1     -29.809   3.674  31.041  0.00  0.00    +0.000 C 
BRANCH  24  25
ATOM     25  C   UNL A   1     -30.370   4.902  30.422  0.00  0.00    +0.000 C 
ATOM     26  C   UNL A   1     -30.781   4.837  29.124  0.00  0.00    +0.000 C 
ENDBRANCH  24  25
ENDBRANCH  22  23
ENDBRANCH  19  21
ENDBRANCH   2  17
TORSDOF 6
