REMARK  Name = No_2679-gen_results/8p0m/2024-11-26-14-13-15/
REMARK  1 active torsions:
REMARK  status: ('A' for Active; 'I' for Inactive)
REMARK    1  A    between atoms: C_6  and  C_7
REMARK                            x       y       z     vdW  Elec       q    Type
REMARK                         _______ _______ _______ _____ _____    ______ ____
ROOT
ATOM      1  O   UNL A   1     -28.123  -1.335  28.487  0.00  0.00    -0.273 OA
ATOM      2  C   UNL A   1     -27.481  -0.404  28.709  0.00  0.00    +0.242 C 
ATOM      3  C   UNL A   1     -27.190   0.246  29.527  0.00  0.00    +0.087 C 
ATOM      4  N   UNL A   1     -26.816   0.137  27.426  0.00  0.00    -0.203 NA
ATOM      5  C   UNL A   1     -26.355   1.420  29.764  0.00  0.00    +0.012 C 
ATOM      6  C   UNL A   1     -25.989   1.237  27.394  0.00  0.00    +0.117 C 
ATOM      7  C   UNL A   1     -25.716   1.914  28.615  0.00  0.00    +0.027 C 
ENDROOT
BRANCH   6   8
ATOM      8  C   UNL A   1     -25.367   1.672  26.222  0.00  0.00    -0.009 C 
ATOM      9  C   UNL A   1     -25.122   1.033  25.261  0.00  0.00    -0.029 C 
ATOM     10  C   UNL A   1     -25.788  -0.301  25.291  0.00  0.00    +0.030 C 
ENDBRANCH   6   8
TORSDOF 1
