MODEL 2679
MODEL 1
REMARK VINA RESULT:    -4.857      0.000      0.000
REMARK INTER + INTRA:          -4.871
REMARK INTER:                  -5.141
REMARK INTRA:                   0.270
REMARK UNBOUND:                 0.270
REMARK  Name = No_2679-gen_results/8p0m/2024-11-26-14-13-15/
REMARK  1 active torsions:
REMARK  status: ('A' for Active; 'I' for Inactive)
REMARK    1  A    between atoms: C_6  and  C_7
REMARK                            x       y       z     vdW  Elec       q    Type
REMARK                         _______ _______ _______ _____ _____    ______ ____
ROOT
ATOM      1  O   UNL A   1     -27.641  -3.458  30.550  0.00  0.00    -0.273 OA
ATOM      2  C   UNL A   1     -26.663  -3.802  30.046  0.00  0.00    +0.242 C 
ATOM      3  C   UNL A   1     -26.201  -4.681  29.610  0.00  0.00    +0.087 C 
ATOM      4  N   UNL A   1     -25.638  -2.651  29.969  0.00  0.00    -0.203 NA
ATOM      5  C   UNL A   1     -24.950  -5.069  28.965  0.00  0.00    +0.012 C 
ATOM      6  C   UNL A   1     -24.385  -2.774  29.411  0.00  0.00    +0.117 C 
ATOM      7  C   UNL A   1     -24.011  -4.030  28.858  0.00  0.00    +0.027 C 
ENDROOT
BRANCH   6   8
ATOM      8  C   UNL A   1     -23.499  -1.699  29.317  0.00  0.00    -0.009 C 
ATOM      9  C   UNL A   1     -23.540  -0.801  28.553  0.00  0.00    -0.029 C 
ATOM     10  C   UNL A   1     -24.829  -0.761  27.804  0.00  0.00    +0.030 C 
ENDBRANCH   6   8
TORSDOF 1
ENDMDL
ENDMDL
