MODEL 267
MODEL 1
REMARK VINA RESULT:    -4.619      0.000      0.000
REMARK INTER + INTRA:          -5.239
REMARK INTER:                  -5.159
REMARK INTRA:                  -0.080
REMARK UNBOUND:                -0.080
REMARK  Name = No_267-gen_results/8p0m/2024-11-26-14-13-15/
REMARK  2 active torsions:
REMARK  status: ('A' for Active; 'I' for Inactive)
REMARK    1  A    between atoms: C_1  and  C_2
REMARK    2  A    between atoms: C_1  and  C_8
REMARK                            x       y       z     vdW  Elec       q    Type
REMARK                         _______ _______ _______ _____ _____    ______ ____
ROOT
ATOM      1  C   UNL A   1     -24.618  -2.439  29.013  0.00  0.00    -0.021 A 
ATOM      2  C   UNL A   1     -23.826  -3.508  28.597  0.00  0.00    -0.004 A 
ATOM      3  C   UNL A   1     -24.191  -4.939  28.591  0.00  0.00    -0.000 A 
ATOM      4  C   UNL A   1     -25.402  -5.273  29.268  0.00  0.00    -0.000 A 
ATOM      5  C   UNL A   1     -26.206  -4.232  29.743  0.00  0.00    -0.000 A 
ATOM      6  C   UNL A   1     -25.862  -2.928  29.649  0.00  0.00    -0.004 A 
ENDROOT
BRANCH   1   7
ATOM      7  C   UNL A   1     -24.255  -1.285  28.980  0.00  0.00    +0.047 C 
BRANCH   7   8
ATOM      8  C   UNL A   1     -22.797  -1.086  29.197  0.00  0.00    +0.114 C 
ATOM      9  N   UNL A   1     -22.265  -0.237  29.248  0.00  0.00    -0.131 NA
ENDBRANCH   7   8
ENDBRANCH   1   7
TORSDOF 2
ENDMDL
ENDMDL
