REMARK  Name = No_268-gen_results/8p0m/2024-11-26-14-13-15/
REMARK  2 active torsions:
REMARK  status: ('A' for Active; 'I' for Inactive)
REMARK    1  A    between atoms: C_1  and  C_2
REMARK    2  A    between atoms: C_5  and  C_9
REMARK                            x       y       z     vdW  Elec       q    Type
REMARK                         _______ _______ _______ _____ _____    ______ ____
ROOT
ATOM      1  C   UNL A   1     -27.064  -0.119  28.608  0.00  0.00    +0.068 A 
ATOM      2  C   UNL A   1     -25.792  -0.430  29.076  0.00  0.00    +0.010 A 
ATOM      3  C   UNL A   1     -24.546   0.349  28.823  0.00  0.00    +0.004 A 
ATOM      4  C   UNL A   1     -24.659   1.420  27.888  0.00  0.00    +0.071 A 
ATOM      5  C   UNL A   1     -25.947   1.681  27.379  0.00  0.00    +0.004 A 
ATOM      6  C   UNL A   1     -27.044   0.974  27.687  0.00  0.00    +0.010 A 
ENDROOT
BRANCH   4   7
ATOM      7  C   UNL A   1     -23.449   2.141  27.597  0.00  0.00    +0.419 C 
ATOM      8  F   UNL A   1     -22.514   2.002  28.235  0.00  0.00    -0.166 F 
ATOM      9  F   UNL A   1     -23.712   3.485  27.480  0.00  0.00    -0.166 F 
ATOM     10  F   UNL A   1     -23.070   1.769  26.273  0.00  0.00    -0.166 F 
ENDBRANCH   4   7
BRANCH   1  11
ATOM     11  C   UNL A   1     -28.016  -0.814  28.878  0.00  0.00    +0.100 C 
ATOM     12  N   UNL A   1     -29.188  -0.147  29.092  0.00  0.00    -0.191 NA
ENDBRANCH   1  11
TORSDOF 2
