MODEL 2680
MODEL 1
REMARK VINA RESULT:    -6.980      0.000      0.000
REMARK INTER + INTRA:         -14.864
REMARK INTER:                 -12.693
REMARK INTRA:                  -2.171
REMARK UNBOUND:                -2.171
REMARK  Name = No_2680-gen_results/8p0m/2024-11-26-14-13-15/
REMARK  14 active torsions:
REMARK  status: ('A' for Active; 'I' for Inactive)
REMARK    1  A    between atoms: C_1  and  O_12
REMARK    2  A    between atoms: C_4  and  C_9
REMARK    3  A    between atoms: C_5  and  O_7
REMARK    4  A    between atoms: O_7  and  C_28
REMARK    5  A    between atoms: C_9  and  C_10
REMARK    6  A    between atoms: C_10  and  C_13
REMARK    7  A    between atoms: O_12  and  C_20
REMARK    8  A    between atoms: C_13  and  C_14
REMARK    9  A    between atoms: C_14  and  C_15
REMARK   10  A    between atoms: C_15  and  C_16
REMARK   11  A    between atoms: C_16  and  C_17
REMARK   12  A    between atoms: C_16  and  N_33
REMARK   13  A    between atoms: C_20  and  C_21
REMARK   14  A    between atoms: C_28  and  C_29
REMARK                            x       y       z     vdW  Elec       q    Type
REMARK                         _______ _______ _______ _____ _____    ______ ____
ROOT
ATOM      1  C   UNL A   1     -24.358   0.425  28.187  0.00  0.00    +0.202 C 
ATOM      2  C   UNL A   1     -24.459   1.394  28.588  0.00  0.00    +0.219 C 
ATOM      3  C   UNL A   1     -25.516  -0.051  27.340  0.00  0.00    +0.046 C 
ATOM      4  C   UNL A   1     -25.960   0.776  26.320  0.00  0.00    +0.006 C 
ATOM      5  C   UNL A   1     -24.662   2.634  27.646  0.00  0.00    +0.152 C 
ATOM      6  C   UNL A   1     -25.822   2.314  26.733  0.00  0.00    +0.033 C 
ATOM      7  O   UNL A   1     -23.244   1.961  29.377  0.00  0.00    -0.217 OA
ENDROOT
BRANCH   4   8
ATOM      8  C   UNL A   1     -26.416   0.366  25.099  0.00  0.00    +0.000 C 
ATOM      9  C   UNL A   1     -25.806  -0.805  24.424  0.00  0.00    +0.000 C 
BRANCH   8  10
ATOM     10  C   UNL A   1     -27.199   1.164  24.196  0.00  0.00    +0.000 C 
BRANCH  10  11
ATOM     11  C   UNL A   1     -28.356   0.471  23.657  0.00  0.00    +0.000 C 
BRANCH  11  12
ATOM     12  C   UNL A   1     -29.586   1.217  23.410  0.00  0.00    +0.002 C 
BRANCH  12  13
ATOM     13  C   UNL A   1     -30.692   0.648  23.980  0.00  0.00    +0.028 C 
BRANCH  13  14
ATOM     14  C   UNL A   1     -30.395  -0.569  24.835  0.00  0.00    +0.162 C 
BRANCH  14  15
ATOM     15  C   UNL A   1     -31.135  -1.798  24.401  0.00  0.00    +0.379 C 
ATOM     16  O   UNL A   1     -30.984  -2.733  25.095  0.00  0.00    -0.244 OA
ATOM     17  O   UNL A   1     -31.630  -1.790  23.293  0.00  0.00    -0.244 OA
ENDBRANCH  14  15
BRANCH  14  18
ATOM     18  N   UNL A   1     -30.819  -0.220  26.199  0.00  0.00    -0.262 NA
ATOM     19  C   UNL A   1     -31.950   0.304  26.494  0.00  0.00    +0.090 C 
ATOM     20  C   UNL A   1     -29.674   0.286  27.008  0.00  0.00    +0.090 C 
ENDBRANCH  14  18
ENDBRANCH  13  14
ENDBRANCH  12  13
ENDBRANCH  11  12
ENDBRANCH  10  11
ENDBRANCH   8  10
ENDBRANCH   4   8
BRANCH   5  21
ATOM     21  O   UNL A   1     -24.954   3.861  28.203  0.00  0.00    -0.324 OA
BRANCH  21  22
ATOM     22  C   UNL A   1     -25.623   4.819  27.457  0.00  0.00    +0.336 C 
ATOM     23  O   UNL A   1     -26.705   5.230  28.396  0.00  0.00    -0.183 OA
BRANCH  22  24
ATOM     24  C   UNL A   1     -24.980   5.872  26.937  0.00  0.00    +0.377 C 
ATOM     25  F   UNL A   1     -24.287   6.356  27.615  0.00  0.00    -0.193 F 
ATOM     26  F   UNL A   1     -24.268   5.411  25.847  0.00  0.00    -0.193 F 
ENDBRANCH  22  24
ENDBRANCH  21  22
ENDBRANCH   5  21
BRANCH   1  27
ATOM     27  O   UNL A   1     -24.270  -0.615  29.245  0.00  0.00    -0.447 OA
BRANCH  27  28
ATOM     28  C   UNL A   1     -24.017  -1.767  29.170  0.00  0.00    +0.341 C 
ATOM     29  O   UNL A   1     -22.622  -1.890  28.886  0.00  0.00    -0.245 OA
BRANCH  28  30
ATOM     30  C   UNL A   1     -24.557  -2.787  29.071  0.00  0.00    +0.076 A 
ATOM     31  C   UNL A   1     -25.831  -2.896  29.637  0.00  0.00    +0.006 A 
ATOM     32  C   UNL A   1     -26.364  -4.258  29.785  0.00  0.00    +0.000 A 
ATOM     33  C   UNL A   1     -25.759  -5.113  29.305  0.00  0.00    +0.000 A 
ATOM     34  C   UNL A   1     -24.059  -4.092  28.837  0.00  0.00    +0.006 A 
ATOM     35  C   UNL A   1     -24.583  -5.250  28.836  0.00  0.00    +0.000 A 
ENDBRANCH  28  30
ENDBRANCH  27  28
ENDBRANCH   1  27
TORSDOF 14
ENDMDL
ENDMDL
