MODEL 2681
MODEL 1
REMARK VINA RESULT:    -7.231      0.000      0.000
REMARK INTER + INTRA:          -8.676
REMARK INTER:                  -8.077
REMARK INTRA:                  -0.599
REMARK UNBOUND:                -0.599
REMARK  Name = No_2681-gen_results/8p0m/2024-11-26-14-13-15/
REMARK  2 active torsions:
REMARK  status: ('A' for Active; 'I' for Inactive)
REMARK    1  A    between atoms: C_5  and  C_11
REMARK    2  A    between atoms: C_10  and  C_15
REMARK                            x       y       z     vdW  Elec       q    Type
REMARK                         _______ _______ _______ _____ _____    ______ ____
ROOT
ATOM      1  C   UNL A   1     -21.580   1.597  27.442  0.00  0.00    -0.005 A 
ATOM      2  C   UNL A   1     -22.347   0.792  27.917  0.00  0.00    -0.026 A 
ATOM      3  C   UNL A   1     -23.616   0.648  27.661  0.00  0.00    -0.026 A 
ATOM      4  C   UNL A   1     -24.524  -0.359  28.262  0.00  0.00    +0.035 C 
ATOM      5  C   UNL A   1     -23.932  -1.281  29.171  0.00  0.00    +0.100 C 
ATOM      6  C   UNL A   1     -22.584  -1.172  29.399  0.00  0.00    +0.013 C 
ATOM      7  C   UNL A   1     -21.786  -0.246  28.817  0.00  0.00    +0.026 C 
ATOM      8  C   UNL A   1     -21.838   1.929  25.971  0.00  0.00    -0.000 A 
ATOM      9  C   UNL A   1     -23.138   2.259  25.723  0.00  0.00    -0.000 A 
ATOM     10  C   UNL A   1     -24.069   1.150  26.232  0.00  0.00    -0.005 A 
ENDROOT
BRANCH   5  11
ATOM     11  C   UNL A   1     -24.400  -2.637  29.120  0.00  0.00    +0.398 C 
ATOM     12  F   UNL A   1     -25.229  -2.763  28.084  0.00  0.00    -0.170 F 
ATOM     13  F   UNL A   1     -23.382  -3.565  28.779  0.00  0.00    -0.170 F 
ATOM     14  F   UNL A   1     -25.001  -3.104  30.201  0.00  0.00    -0.170 F 
ENDBRANCH   5  11
BRANCH  10  15
ATOM     15  C   UNL A   1     -25.409   0.964  25.759  0.00  0.00    -0.005 C 
ATOM     16  C   UNL A   1     -25.723  -0.021  24.903  0.00  0.00    -0.026 C 
ATOM     17  C   UNL A   1     -27.022   0.008  24.379  0.00  0.00    +0.031 C 
ENDBRANCH  10  15
TORSDOF 2
ENDMDL
ENDMDL
