MODEL 2682
MODEL 1
REMARK VINA RESULT:    -7.442      0.000      0.000
REMARK INTER + INTRA:          -9.879
REMARK INTER:                  -9.183
REMARK INTRA:                  -0.696
REMARK UNBOUND:                -0.696
REMARK  Name = No_2682-gen_results/8p0m/2024-11-26-14-13-15/
REMARK  4 active torsions:
REMARK  status: ('A' for Active; 'I' for Inactive)
REMARK    1  A    between atoms: C_2  and  C_14
REMARK    2  A    between atoms: C_3  and  C_4
REMARK    3  A    between atoms: C_4  and  C_8
REMARK    4  A    between atoms: N_16  and  C_17
REMARK                            x       y       z     vdW  Elec       q    Type
REMARK                         _______ _______ _______ _____ _____    ______ ____
ROOT
ATOM      1  C   UNL A   1     -23.540   0.318  28.142  0.00  0.00    +0.001 A 
ATOM      2  C   UNL A   1     -22.901  -0.238  28.770  0.00  0.00    +0.055 A 
ATOM      3  C   UNL A   1     -22.880   1.444  27.378  0.00  0.00    -0.018 A 
ATOM      4  C   UNL A   1     -21.438  -0.279  28.891  0.00  0.00    +0.005 A 
ATOM      5  C   UNL A   1     -20.762   0.703  28.200  0.00  0.00    -0.000 A 
ATOM      6  C   UNL A   1     -21.445   1.579  27.396  0.00  0.00    -0.004 A 
ENDROOT
BRANCH   2   7
ATOM      7  C   UNL A   1     -23.572  -1.412  29.604  0.00  0.00    +0.269 C 
ATOM      8  O   UNL A   1     -23.435  -1.636  30.721  0.00  0.00    -0.268 OA
ATOM      9  N   UNL A   1     -24.298  -2.232  28.801  0.00  0.00    -0.174 NA
BRANCH   9  10
ATOM     10  C   UNL A   1     -24.915  -3.423  29.324  0.00  0.00    +0.084 C 
ATOM     11  C   UNL A   1     -24.482  -4.491  28.793  0.00  0.00    -0.008 C 
ATOM     12  C   UNL A   1     -24.840  -5.707  29.138  0.00  0.00    +0.032 C 
ENDBRANCH   9  10
ENDBRANCH   2   7
BRANCH   3  13
ATOM     13  C   UNL A   1     -23.549   2.436  26.574  0.00  0.00    +0.053 C 
BRANCH  13  14
ATOM     14  C   UNL A   1     -24.674   1.955  25.791  0.00  0.00    -0.018 A 
ATOM     15  C   UNL A   1     -24.380   0.755  25.165  0.00  0.00    -0.004 A 
ATOM     16  C   UNL A   1     -25.506   0.031  24.564  0.00  0.00    -0.000 A 
ATOM     17  C   UNL A   1     -26.762   0.534  24.637  0.00  0.00    -0.000 A 
ATOM     18  C   UNL A   1     -25.973   2.390  25.989  0.00  0.00    -0.004 A 
ATOM     19  C   UNL A   1     -27.000   1.691  25.407  0.00  0.00    -0.000 A 
ENDBRANCH  13  14
ENDBRANCH   3  13
TORSDOF 4
ENDMDL
ENDMDL
