MODEL 2683
MODEL 1
REMARK VINA RESULT:    -8.826      0.000      0.000
REMARK INTER + INTRA:         -11.651
REMARK INTER:                 -10.889
REMARK INTRA:                  -0.762
REMARK UNBOUND:                -0.762
REMARK  Name = No_2683-gen_results/8p0m/2024-11-26-14-13-15/
REMARK  4 active torsions:
REMARK  status: ('A' for Active; 'I' for Inactive)
REMARK    1  A    between atoms: C_11  and  C_18
REMARK    2  A    between atoms: N_20  and  C_21
REMARK    3  A    between atoms: C_24  and  C_27
REMARK    4  A    between atoms: C_30  and  C_33
REMARK                            x       y       z     vdW  Elec       q    Type
REMARK                         _______ _______ _______ _____ _____    ______ ____
ROOT
ATOM      1  C   UNL A   1      -9.138   1.066  34.528  0.00  0.00    +0.254 C 
ATOM      2  O   UNL A   1      -8.529   1.610  33.749  0.00  0.00    -0.273 OA
ATOM      3  N   UNL A   1      -8.663  -0.088  35.093  0.00  0.00    -0.179 NA
ENDROOT
BRANCH   1  14
ATOM      4  C   UNL A   1     -12.689   2.830  35.913  0.00  0.00    +0.138 C 
ATOM      5  C   UNL A   1     -13.766   2.982  36.441  0.00  0.00    +0.004 A 
ATOM      6  C   UNL A   1     -13.901   2.939  37.824  0.00  0.00    +0.055 A 
ATOM      7  C   UNL A   1     -15.170   3.100  38.590  0.00  0.00    +0.034 A 
ATOM      8  C   UNL A   1     -16.313   3.485  37.830  0.00  0.00    +0.140 A 
ATOM      9  C   UNL A   1     -16.141   3.581  36.434  0.00  0.00    +0.029 A 
ATOM     10  C   UNL A   1     -14.981   3.371  35.795  0.00  0.00    -0.000 A 
ATOM     11  N   UNL A   1     -12.703   2.140  34.736  0.00  0.00    -0.201 NA
ATOM     12  C   UNL A   1     -11.543   1.623  34.259  0.00  0.00    +0.250 C 
ATOM     13  F   UNL A   1     -17.418   3.650  38.467  0.00  0.00    -0.204 F 
ATOM     14  C   UNL A   1     -10.456   1.593  35.075  0.00  0.00    +0.158 C 
ATOM     15  C   UNL A   1     -10.452   2.084  36.367  0.00  0.00    +0.042 C 
ATOM     16  C   UNL A   1     -11.625   2.519  36.864  0.00  0.00    +0.121 C 
ATOM     17  N   UNL A   1     -11.896   2.779  38.181  0.00  0.00    -0.201 NA
ATOM     18  C   UNL A   1     -12.834   2.774  38.720  0.00  0.00    +0.265 C 
ATOM     19  O   UNL A   1     -11.474   1.304  33.034  0.00  0.00    -0.273 OA
ATOM     20  O   UNL A   1     -12.988   2.904  39.978  0.00  0.00    -0.268 OA
ENDBRANCH   1  14
BRANCH   3  21
ATOM     21  C   UNL A   1      -7.453  -0.504  34.963  0.00  0.00    +0.073 A 
ATOM     22  C   UNL A   1      -7.066  -1.335  34.540  0.00  0.00    +0.017 A 
ATOM     23  C   UNL A   1      -5.664  -1.888  34.491  0.00  0.00    +0.001 A 
ATOM     24  C   UNL A   1      -4.727  -1.031  35.058  0.00  0.00    +0.000 A 
ATOM     25  C   UNL A   1      -5.156   0.130  35.640  0.00  0.00    +0.001 A 
ATOM     26  C   UNL A   1      -6.438   0.433  35.678  0.00  0.00    +0.017 A 
BRANCH  24  27
ATOM     27  C   UNL A   1      -3.287  -1.416  35.030  0.00  0.00    +0.000 A 
ATOM     28  C   UNL A   1      -2.466  -1.492  35.661  0.00  0.00    -0.000 A 
ATOM     29  C   UNL A   1      -1.101  -1.946  35.425  0.00  0.00    -0.000 A 
ATOM     30  C   UNL A   1      -0.793  -2.316  34.107  0.00  0.00    -0.000 A 
ATOM     31  C   UNL A   1      -1.769  -2.257  33.177  0.00  0.00    -0.000 A 
ATOM     32  C   UNL A   1      -3.070  -1.821  33.458  0.00  0.00    -0.000 A 
BRANCH  30  33
ATOM     33  C   UNL A   1       0.565  -2.765  33.802  0.00  0.00    -0.005 C 
ATOM     34  C   UNL A   1       0.926  -3.450  32.956  0.00  0.00    -0.026 C 
ATOM     35  C   UNL A   1       2.306  -3.875  32.671  0.00  0.00    +0.031 C 
ENDBRANCH  30  33
ENDBRANCH  24  27
ENDBRANCH   3  21
TORSDOF 4
ENDMDL
ENDMDL
