REMARK  Name = No_2683-gen_results/8p0m/2024-11-26-14-13-15/
REMARK  4 active torsions:
REMARK  status: ('A' for Active; 'I' for Inactive)
REMARK    1  A    between atoms: C_11  and  C_18
REMARK    2  A    between atoms: N_20  and  C_21
REMARK    3  A    between atoms: C_24  and  C_27
REMARK    4  A    between atoms: C_30  and  C_33
REMARK                            x       y       z     vdW  Elec       q    Type
REMARK                         _______ _______ _______ _____ _____    ______ ____
ROOT
ATOM      1  C   UNL A   1     -31.091  -2.710  31.019  0.00  0.00    +0.254 C 
ATOM      2  O   UNL A   1     -31.065  -3.816  31.242  0.00  0.00    -0.273 OA
ATOM      3  N   UNL A   1     -32.155  -1.950  31.427  0.00  0.00    -0.179 NA
ENDROOT
BRANCH   1  14
ATOM      4  C   UNL A   1     -28.016  -0.814  28.878  0.00  0.00    +0.138 C 
ATOM      5  C   UNL A   1     -27.064  -0.119  28.608  0.00  0.00    +0.004 A 
ATOM      6  C   UNL A   1     -25.792  -0.430  29.076  0.00  0.00    +0.055 A 
ATOM      7  C   UNL A   1     -24.546   0.349  28.823  0.00  0.00    +0.034 A 
ATOM      8  C   UNL A   1     -24.659   1.420  27.888  0.00  0.00    +0.140 A 
ATOM      9  C   UNL A   1     -25.947   1.681  27.379  0.00  0.00    +0.029 A 
ATOM     10  C   UNL A   1     -27.044   0.974  27.687  0.00  0.00    -0.000 A 
ATOM     11  N   UNL A   1     -29.188  -0.147  29.092  0.00  0.00    -0.201 NA
ATOM     12  C   UNL A   1     -30.202  -0.783  29.730  0.00  0.00    +0.250 C 
ATOM     13  F   UNL A   1     -23.596   2.098  27.635  0.00  0.00    -0.204 F 
ATOM     14  C   UNL A   1     -29.946  -1.966  30.350  0.00  0.00    +0.158 C 
ATOM     15  C   UNL A   1     -28.708  -2.580  30.350  0.00  0.00    +0.042 C 
ATOM     16  C   UNL A   1     -27.686  -1.907  29.788  0.00  0.00    +0.121 C 
ATOM     17  N   UNL A   1     -26.356  -2.201  29.924  0.00  0.00    -0.201 NA
ATOM     18  C   UNL A   1     -25.484  -1.567  29.838  0.00  0.00    +0.265 C 
ATOM     19  O   UNL A   1     -31.378  -0.321  29.620  0.00  0.00    -0.273 OA
ATOM     20  O   UNL A   1     -24.280  -1.890  30.104  0.00  0.00    -0.268 OA
ENDBRANCH   1  14
BRANCH   3  21
ATOM     21  C   UNL A   1     -33.054  -2.358  32.251  0.00  0.00    +0.073 A 
ATOM     22  C   UNL A   1     -33.723  -1.863  32.821  0.00  0.00    +0.017 A 
ATOM     23  C   UNL A   1     -34.695  -2.326  33.877  0.00  0.00    +0.001 A 
ATOM     24  C   UNL A   1     -34.727  -3.710  34.009  0.00  0.00    +0.000 A 
ATOM     25  C   UNL A   1     -33.868  -4.468  33.263  0.00  0.00    +0.001 A 
ATOM     26  C   UNL A   1     -33.009  -3.902  32.438  0.00  0.00    +0.017 A 
BRANCH  24  27
ATOM     27  C   UNL A   1     -35.685  -4.321  34.974  0.00  0.00    +0.000 A 
ATOM     28  C   UNL A   1     -36.474  -4.995  35.001  0.00  0.00    -0.000 A 
ATOM     29  C   UNL A   1     -37.281  -5.500  36.105  0.00  0.00    -0.000 A 
ATOM     30  C   UNL A   1     -36.994  -4.969  37.372  0.00  0.00    -0.000 A 
ATOM     31  C   UNL A   1     -35.992  -4.072  37.482  0.00  0.00    -0.000 A 
ATOM     32  C   UNL A   1     -35.239  -3.625  36.388  0.00  0.00    -0.000 A 
BRANCH  30  33
ATOM     33  C   UNL A   1     -37.779  -5.423  38.519  0.00  0.00    -0.005 C 
ATOM     34  C   UNL A   1     -38.660  -6.157  38.547  0.00  0.00    -0.026 C 
ATOM     35  C   UNL A   1     -39.423  -6.601  39.724  0.00  0.00    +0.031 C 
ENDBRANCH  30  33
ENDBRANCH  24  27
ENDBRANCH   3  21
TORSDOF 4
