REMARK  Name = No_2684-gen_results/8p0m/2024-11-26-14-13-15/
REMARK  6 active torsions:
REMARK  status: ('A' for Active; 'I' for Inactive)
REMARK    1  A    between atoms: C_5  and  C_18
REMARK    2  A    between atoms: N_8  and  C_12
REMARK    3  A    between atoms: C_17  and  C_23
REMARK    4  A    between atoms: C_23  and  C_25
REMARK    5  A    between atoms: C_26  and  C_27
REMARK    6  A    between atoms: C_32  and  C_33
REMARK                            x       y       z     vdW  Elec       q    Type
REMARK                         _______ _______ _______ _____ _____    ______ ____
ROOT
ATOM      1  C   UNL A   1     -29.154  -2.583  30.342  0.00  0.00    +0.133 C 
ATOM      2  C   UNL A   1     -30.067  -2.080  30.881  0.00  0.00    +0.028 C 
ATOM      3  C   UNL A   1     -31.160  -2.769  31.271  0.00  0.00    +0.006 C 
ATOM      4  C   UNL A   1     -29.078  -3.972  30.251  0.00  0.00    +0.169 C 
ATOM      5  C   UNL A   1     -30.059  -4.775  30.697  0.00  0.00    +0.069 C 
ATOM      6  C   UNL A   1     -31.143  -4.190  31.264  0.00  0.00    +0.044 C 
ATOM      7  O   UNL A   1     -27.903  -4.587  29.763  0.00  0.00    -0.294 OA
ENDROOT
BRANCH   1  15
ATOM      8  C   UNL A   1     -28.016  -0.814  28.878  0.00  0.00    +0.249 C 
ATOM      9  C   UNL A   1     -27.064  -0.119  28.608  0.00  0.00    +0.050 A 
ATOM     10  C   UNL A   1     -25.792  -0.430  29.076  0.00  0.00    -0.016 A 
ATOM     11  C   UNL A   1     -24.546   0.349  28.823  0.00  0.00    -0.000 A 
ATOM     12  C   UNL A   1     -24.659   1.420  27.888  0.00  0.00    +0.071 A 
ATOM     13  C   UNL A   1     -25.947   1.681  27.379  0.00  0.00    +0.004 A 
ATOM     14  C   UNL A   1     -27.044   0.974  27.687  0.00  0.00    +0.004 A 
ATOM     15  N   UNL A   1     -27.952  -1.752  29.938  0.00  0.00    -0.271 N 
ATOM     16  O   UNL A   1     -29.211  -0.338  28.743  0.00  0.00    -0.270 OA
ATOM     17  C   UNL A   1     -26.805  -2.357  30.368  0.00  0.00    +0.099 C 
ATOM     18  C   UNL A   1     -25.584  -1.602  29.965  0.00  0.00    +0.048 C 
BRANCH  12  19
ATOM     19  C   UNL A   1     -23.464   2.177  27.533  0.00  0.00    +0.419 C 
ATOM     20  F   UNL A   1     -22.815   2.560  28.488  0.00  0.00    -0.166 F 
ATOM     21  F   UNL A   1     -23.797   3.287  26.766  0.00  0.00    -0.166 F 
ATOM     22  F   UNL A   1     -22.605   1.432  26.778  0.00  0.00    -0.166 F 
ENDBRANCH  12  19
ENDBRANCH   1  15
BRANCH   6  23
ATOM     23  C   UNL A   1     -32.297  -5.016  31.755  0.00  0.00    +0.183 C 
ATOM     24  F   UNL A   1     -33.329  -4.646  32.179  0.00  0.00    -0.232 F 
BRANCH  23  25
ATOM     25  C   UNL A   1     -32.119  -6.449  31.567  0.00  0.00    +0.008 C 
ATOM     26  C   UNL A   1     -33.132  -7.103  31.266  0.00  0.00    -0.002 C 
BRANCH  26  27
ATOM     27  C   UNL A   1     -34.321  -6.557  30.979  0.00  0.00    -0.000 A 
ATOM     28  C   UNL A   1     -35.358  -7.192  30.622  0.00  0.00    -0.000 A 
ATOM     29  C   UNL A   1     -36.616  -6.528  30.368  0.00  0.00    -0.000 A 
ATOM     30  C   UNL A   1     -36.656  -5.460  30.305  0.00  0.00    -0.000 A 
ATOM     31  C   UNL A   1     -35.631  -4.486  30.577  0.00  0.00    -0.000 A 
ATOM     32  C   UNL A   1     -34.439  -5.037  30.875  0.00  0.00    -0.000 A 
BRANCH  32  33
ATOM     33  C   UNL A   1     -33.612  -4.629  29.577  0.00  0.00    -0.005 C 
ATOM     34  C   UNL A   1     -33.802  -3.338  29.121  0.00  0.00    -0.026 C 
ATOM     35  C   UNL A   1     -32.998  -2.872  28.025  0.00  0.00    +0.031 C 
ENDBRANCH  32  33
ENDBRANCH  26  27
ENDBRANCH  23  25
ENDBRANCH   6  23
TORSDOF 6
