MODEL 2684
MODEL 1
REMARK VINA RESULT:    -8.667      0.000      0.000
REMARK INTER + INTRA:         -13.392
REMARK INTER:                 -11.707
REMARK INTRA:                  -1.686
REMARK UNBOUND:                -1.686
REMARK  Name = No_2684-gen_results/8p0m/2024-11-26-14-13-15/
REMARK  6 active torsions:
REMARK  status: ('A' for Active; 'I' for Inactive)
REMARK    1  A    between atoms: C_5  and  C_18
REMARK    2  A    between atoms: N_8  and  C_12
REMARK    3  A    between atoms: C_17  and  C_23
REMARK    4  A    between atoms: C_23  and  C_25
REMARK    5  A    between atoms: C_26  and  C_27
REMARK    6  A    between atoms: C_32  and  C_33
REMARK                            x       y       z     vdW  Elec       q    Type
REMARK                         _______ _______ _______ _____ _____    ______ ____
ROOT
ATOM      1  C   UNL A   1     -26.617   1.416  26.160  0.00  0.00    +0.133 C 
ATOM      2  C   UNL A   1     -26.585   2.041  27.152  0.00  0.00    +0.028 C 
ATOM      3  C   UNL A   1     -25.557   1.981  28.025  0.00  0.00    +0.006 C 
ATOM      4  C   UNL A   1     -25.486   0.716  25.740  0.00  0.00    +0.169 C 
ATOM      5  C   UNL A   1     -24.361   0.665  26.474  0.00  0.00    +0.069 C 
ATOM      6  C   UNL A   1     -24.346   1.337  27.652  0.00  0.00    +0.044 C 
ATOM      7  O   UNL A   1     -25.461   0.109  24.465  0.00  0.00    -0.294 OA
ENDROOT
BRANCH   1  15
ATOM      8  C   UNL A   1     -28.677   0.450  24.980  0.00  0.00    +0.249 C 
ATOM      9  C   UNL A   1     -29.648   0.583  24.271  0.00  0.00    +0.050 A 
ATOM     10  C   UNL A   1     -29.762   1.665  23.405  0.00  0.00    -0.016 A 
ATOM     11  C   UNL A   1     -30.908   1.944  22.492  0.00  0.00    -0.000 A 
ATOM     12  C   UNL A   1     -31.895   0.919  22.398  0.00  0.00    +0.071 A 
ATOM     13  C   UNL A   1     -31.728  -0.198  23.241  0.00  0.00    +0.004 A 
ATOM     14  C   UNL A   1     -30.699  -0.368  24.083  0.00  0.00    +0.004 A 
ATOM     15  N   UNL A   1     -27.799   1.536  25.218  0.00  0.00    -0.271 N 
ATOM     16  O   UNL A   1     -28.740  -0.336  26.005  0.00  0.00    -0.270 OA
ATOM     17  C   UNL A   1     -27.595   2.571  24.349  0.00  0.00    +0.099 C 
ATOM     18  C   UNL A   1     -28.711   2.714  23.371  0.00  0.00    +0.048 C 
BRANCH  12  19
ATOM     19  C   UNL A   1     -33.004   1.090  21.466  0.00  0.00    +0.419 C 
ATOM     20  F   UNL A   1     -33.600   0.062  21.207  0.00  0.00    -0.166 F 
ATOM     21  F   UNL A   1     -32.559   1.642  20.271  0.00  0.00    -0.166 F 
ATOM     22  F   UNL A   1     -33.944   1.948  21.959  0.00  0.00    -0.166 F 
ENDBRANCH  12  19
ENDBRANCH   1  15
BRANCH   6  23
ATOM     23  C   UNL A   1     -23.140   1.300  28.546  0.00  0.00    +0.183 C 
ATOM     24  F   UNL A   1     -22.909   1.969  29.484  0.00  0.00    -0.232 F 
BRANCH  23  25
ATOM     25  C   UNL A   1     -22.216   0.216  28.245  0.00  0.00    +0.008 C 
ATOM     26  C   UNL A   1     -22.232  -0.761  29.012  0.00  0.00    -0.002 C 
BRANCH  26  27
ATOM     27  C   UNL A   1     -23.125  -0.929  29.997  0.00  0.00    -0.000 A 
ATOM     28  C   UNL A   1     -22.912  -0.724  31.229  0.00  0.00    -0.000 A 
ATOM     29  C   UNL A   1     -23.944  -0.893  32.226  0.00  0.00    -0.000 A 
ATOM     30  C   UNL A   1     -24.869  -1.365  31.966  0.00  0.00    -0.000 A 
ATOM     31  C   UNL A   1     -25.358  -1.778  30.675  0.00  0.00    -0.000 A 
ATOM     32  C   UNL A   1     -24.462  -1.599  29.685  0.00  0.00    -0.000 A 
BRANCH  32  33
ATOM     33  C   UNL A   1     -24.115  -3.116  29.347  0.00  0.00    -0.005 C 
ATOM     34  C   UNL A   1     -25.176  -4.001  29.389  0.00  0.00    -0.026 C 
ATOM     35  C   UNL A   1     -24.951  -5.361  28.981  0.00  0.00    +0.031 C 
ENDBRANCH  32  33
ENDBRANCH  26  27
ENDBRANCH  23  25
ENDBRANCH   6  23
TORSDOF 6
ENDMDL
ENDMDL
