MODEL 2685
MODEL 1
REMARK VINA RESULT:    -5.173      0.000      0.000
REMARK INTER + INTRA:          -5.693
REMARK INTER:                  -5.475
REMARK INTRA:                  -0.219
REMARK UNBOUND:                -0.219
REMARK  Name = No_2685-gen_results/8p0m/2024-11-26-14-13-15/
REMARK  1 active torsions:
REMARK  status: ('A' for Active; 'I' for Inactive)
REMARK    1  A    between atoms: C_3  and  C_4
REMARK                            x       y       z     vdW  Elec       q    Type
REMARK                         _______ _______ _______ _____ _____    ______ ____
ROOT
ATOM      1  C   UNL A   1     -25.817  -2.620  29.824  0.00  0.00    +0.004 A 
ATOM      2  C   UNL A   1     -26.355  -3.523  29.900  0.00  0.00    -0.000 A 
ATOM      3  C   UNL A   1     -24.528  -2.667  29.247  0.00  0.00    +0.071 A 
ATOM      4  C   UNL A   1     -26.001  -4.900  29.514  0.00  0.00    -0.000 A 
ATOM      5  C   UNL A   1     -24.737  -5.024  28.937  0.00  0.00    -0.000 A 
ATOM      6  C   UNL A   1     -23.985  -3.909  28.745  0.00  0.00    +0.004 A 
ENDROOT
BRANCH   3   7
ATOM      7  C   UNL A   1     -23.686  -1.474  28.968  0.00  0.00    +0.419 C 
ATOM      8  F   UNL A   1     -22.579  -1.842  28.887  0.00  0.00    -0.166 F 
ATOM      9  F   UNL A   1     -24.120  -0.841  27.867  0.00  0.00    -0.166 F 
ATOM     10  F   UNL A   1     -23.732  -0.604  30.036  0.00  0.00    -0.166 F 
ENDBRANCH   3   7
TORSDOF 1
ENDMDL
ENDMDL
