REMARK  Name = No_2686-gen_results/8p0m/2024-11-26-14-13-15/
REMARK  2 active torsions:
REMARK  status: ('A' for Active; 'I' for Inactive)
REMARK    1  A    between atoms: C_1  and  C_2
REMARK    2  A    between atoms: C_8  and  C_9
REMARK                            x       y       z     vdW  Elec       q    Type
REMARK                         _______ _______ _______ _____ _____    ______ ____
ROOT
ATOM      1  C   UNL A   1     -27.064  -0.119  28.608  0.00  0.00    +0.000 A 
ATOM      2  C   UNL A   1     -25.792  -0.430  29.076  0.00  0.00    +0.000 A 
ATOM      3  C   UNL A   1     -24.546   0.349  28.823  0.00  0.00    +0.000 A 
ATOM      4  C   UNL A   1     -24.659   1.420  27.888  0.00  0.00    +0.000 A 
ATOM      5  C   UNL A   1     -25.947   1.681  27.379  0.00  0.00    +0.000 A 
ATOM      6  C   UNL A   1     -27.044   0.974  27.687  0.00  0.00    +0.000 A 
ENDROOT
BRANCH   1   7
ATOM      7  C   UNL A   1     -28.016  -0.814  28.878  0.00  0.00    +0.000 C 
ATOM      8  C   UNL A   1     -28.049  -1.598  30.163  0.00  0.00    +0.001 C 
BRANCH   8   9
ATOM      9  C   UNL A   1     -26.760  -2.071  30.612  0.00  0.00    +0.012 C 
ATOM     10  C   UNL A   1     -25.610  -1.402  30.171  0.00  0.00    +0.068 C 
ATOM     11 CL   UNL A   1     -24.114  -1.755  30.788  0.00  0.00    -0.081 Cl
ENDBRANCH   8   9
ENDBRANCH   1   7
TORSDOF 2
