MODEL 2688
MODEL 1
REMARK VINA RESULT:    -6.148      0.000      0.000
REMARK INTER + INTRA:          -8.079
REMARK INTER:                  -7.585
REMARK INTRA:                  -0.494
REMARK UNBOUND:                -0.494
REMARK  Name = No_2688-gen_results/8p0m/2024-11-26-14-13-15/
REMARK  4 active torsions:
REMARK  status: ('A' for Active; 'I' for Inactive)
REMARK    1  A    between atoms: C_2  and  C_7
REMARK    2  A    between atoms: C_5  and  O_11
REMARK    3  A    between atoms: O_11  and  C_12
REMARK    4  A    between atoms: C_13  and  C_14
REMARK                            x       y       z     vdW  Elec       q    Type
REMARK                         _______ _______ _______ _____ _____    ______ ____
ROOT
ATOM      1  C   UNL A   1     -23.431   0.325  28.096  0.00  0.00    +0.041 A 
ATOM      2  C   UNL A   1     -22.888   1.171  27.424  0.00  0.00    +0.074 A 
ATOM      3  C   UNL A   1     -21.548   1.391  27.419  0.00  0.00    +0.004 A 
ATOM      4  C   UNL A   1     -20.736   0.590  28.244  0.00  0.00    +0.003 A 
ATOM      5  C   UNL A   1     -22.654  -0.592  28.891  0.00  0.00    +0.145 A 
ATOM      6  C   UNL A   1     -21.306  -0.394  28.943  0.00  0.00    +0.037 A 
ENDROOT
BRANCH   2   7
ATOM      7  C   UNL A   1     -23.658   2.088  26.488  0.00  0.00    +0.419 C 
ATOM      8  F   UNL A   1     -24.560   1.546  25.941  0.00  0.00    -0.166 F 
ATOM      9  F   UNL A   1     -22.842   2.691  25.460  0.00  0.00    -0.166 F 
ATOM     10  F   UNL A   1     -24.011   3.274  27.181  0.00  0.00    -0.166 F 
ENDBRANCH   2   7
BRANCH   5  11
ATOM     11  O   UNL A   1     -23.295  -1.594  29.526  0.00  0.00    -0.450 OA
BRANCH  11  12
ATOM     12  C   UNL A   1     -24.575  -1.709  29.409  0.00  0.00    +0.179 C 
ATOM     13  C   UNL A   1     -25.033  -2.929  28.907  0.00  0.00    +0.041 C 
BRANCH  13  14
ATOM     14  C   UNL A   1     -24.179  -3.913  28.717  0.00  0.00    +0.003 C 
ATOM     15  C   UNL A   1     -24.590  -5.070  28.888  0.00  0.00    +0.000 C 
ENDBRANCH  13  14
ENDBRANCH  11  12
ENDBRANCH   5  11
TORSDOF 4
ENDMDL
ENDMDL
