REMARK  Name = No_2688-gen_results/8p0m/2024-11-26-14-13-15/
REMARK  4 active torsions:
REMARK  status: ('A' for Active; 'I' for Inactive)
REMARK    1  A    between atoms: C_2  and  C_7
REMARK    2  A    between atoms: C_5  and  O_11
REMARK    3  A    between atoms: O_11  and  C_12
REMARK    4  A    between atoms: C_13  and  C_14
REMARK                            x       y       z     vdW  Elec       q    Type
REMARK                         _______ _______ _______ _____ _____    ______ ____
ROOT
ATOM      1  C   UNL A   1     -28.016  -0.814  28.878  0.00  0.00    +0.041 A 
ATOM      2  C   UNL A   1     -27.064  -0.119  28.608  0.00  0.00    +0.074 A 
ATOM      3  C   UNL A   1     -26.929   1.171  29.008  0.00  0.00    +0.004 A 
ATOM      4  C   UNL A   1     -27.956   1.741  29.784  0.00  0.00    +0.003 A 
ATOM      5  C   UNL A   1     -29.057  -0.327  29.747  0.00  0.00    +0.145 A 
ATOM      6  C   UNL A   1     -28.983   0.972  30.152  0.00  0.00    +0.037 A 
ENDROOT
BRANCH   2   7
ATOM      7  C   UNL A   1     -25.891  -0.626  27.786  0.00  0.00    +0.419 C 
ATOM      8  F   UNL A   1     -25.530  -1.710  28.105  0.00  0.00    -0.166 F 
ATOM      9  F   UNL A   1     -24.731   0.234  27.831  0.00  0.00    -0.166 F 
ATOM     10  F   UNL A   1     -26.189  -0.483  26.407  0.00  0.00    -0.166 F 
ENDBRANCH   2   7
BRANCH   5  11
ATOM     11  O   UNL A   1     -30.034  -1.179  30.118  0.00  0.00    -0.450 OA
BRANCH  11  12
ATOM     12  C   UNL A   1     -30.942  -0.788  30.948  0.00  0.00    +0.179 C 
ATOM     13  C   UNL A   1     -32.021  -1.658  31.123  0.00  0.00    +0.041 C 
BRANCH  13  14
ATOM     14  C   UNL A   1     -31.992  -2.848  30.562  0.00  0.00    +0.003 C 
ATOM     15  C   UNL A   1     -31.424  -2.951  29.465  0.00  0.00    +0.000 C 
ENDBRANCH  13  14
ENDBRANCH  11  12
ENDBRANCH   5  11
TORSDOF 4
