MODEL 2689
MODEL 1
REMARK VINA RESULT:    -5.832      0.000      0.000
REMARK INTER + INTRA:          -7.195
REMARK INTER:                  -6.854
REMARK INTRA:                  -0.340
REMARK UNBOUND:                -0.340
REMARK  Name = No_2689-gen_results/8p0m/2024-11-26-14-13-15/
REMARK  3 active torsions:
REMARK  status: ('A' for Active; 'I' for Inactive)
REMARK    1  A    between atoms: C_2  and  C_7
REMARK    2  A    between atoms: N_9  and  C_10
REMARK    3  A    between atoms: C_11  and  C_12
REMARK                            x       y       z     vdW  Elec       q    Type
REMARK                         _______ _______ _______ _____ _____    ______ ____
ROOT
ATOM      1  C   UNL A   1     -24.327  -1.092  29.307  0.00  0.00    +0.269 C 
ATOM      2  O   UNL A   1     -25.165  -0.556  29.804  0.00  0.00    -0.268 OA
ATOM      3  N   UNL A   1     -23.349  -0.461  28.557  0.00  0.00    -0.174 NA
ENDROOT
BRANCH   1   5
ATOM      4  C   UNL A   1     -23.812  -3.213  28.645  0.00  0.00    +0.005 A 
ATOM      5  C   UNL A   1     -24.539  -2.680  29.191  0.00  0.00    +0.055 A 
ATOM      6  C   UNL A   1     -24.043  -4.704  28.539  0.00  0.00    +0.000 A 
ATOM      7  C   UNL A   1     -25.245  -5.255  29.032  0.00  0.00    +0.000 A 
ATOM      8  C   UNL A   1     -25.868  -2.997  29.761  0.00  0.00    +0.005 A 
ATOM      9  C   UNL A   1     -26.118  -4.359  29.677  0.00  0.00    +0.000 A 
ENDBRANCH   1   5
BRANCH   3  10
ATOM     10  C   UNL A   1     -22.951   0.535  28.663  0.00  0.00    +0.084 C 
ATOM     11  C   UNL A   1     -22.756   1.466  28.132  0.00  0.00    -0.008 C 
BRANCH  11  12
ATOM     12  C   UNL A   1     -23.161   1.431  26.732  0.00  0.00    +0.027 C 
ATOM     13  C   UNL A   1     -23.176   2.314  25.788  0.00  0.00    +0.005 C 
ENDBRANCH  11  12
ENDBRANCH   3  10
TORSDOF 3
ENDMDL
ENDMDL
