MODEL 268
MODEL 1
REMARK VINA RESULT:    -5.300      0.000      0.000
REMARK INTER + INTRA:          -6.104
REMARK INTER:                  -5.920
REMARK INTRA:                  -0.184
REMARK UNBOUND:                -0.184
REMARK  Name = No_268-gen_results/8p0m/2024-11-26-14-13-15/
REMARK  2 active torsions:
REMARK  status: ('A' for Active; 'I' for Inactive)
REMARK    1  A    between atoms: C_1  and  C_2
REMARK    2  A    between atoms: C_5  and  C_9
REMARK                            x       y       z     vdW  Elec       q    Type
REMARK                         _______ _______ _______ _____ _____    ______ ____
ROOT
ATOM      1  C   UNL A   1     -23.800  -1.940  28.918  0.00  0.00    +0.068 A 
ATOM      2  C   UNL A   1     -24.662  -1.237  28.083  0.00  0.00    +0.010 A 
ATOM      3  C   UNL A   1     -24.358   0.042  27.380  0.00  0.00    +0.004 A 
ATOM      4  C   UNL A   1     -23.125   0.668  27.728  0.00  0.00    +0.071 A 
ATOM      5  C   UNL A   1     -22.292  -0.033  28.623  0.00  0.00    +0.004 A 
ATOM      6  C   UNL A   1     -22.599  -1.211  29.184  0.00  0.00    +0.010 A 
ENDROOT
BRANCH   4   7
ATOM      7  C   UNL A   1     -22.851   1.930  27.095  0.00  0.00    +0.419 C 
ATOM      8  F   UNL A   1     -23.367   2.886  27.441  0.00  0.00    -0.166 F 
ATOM      9  F   UNL A   1     -22.989   1.819  25.732  0.00  0.00    -0.166 F 
ATOM     10  F   UNL A   1     -21.454   2.165  27.260  0.00  0.00    -0.166 F 
ENDBRANCH   4   7
BRANCH   1  11
ATOM     11  C   UNL A   1     -24.140  -2.978  29.436  0.00  0.00    +0.100 C 
ATOM     12  N   UNL A   1     -23.744  -4.114  28.791  0.00  0.00    -0.191 NA
ENDBRANCH   1  11
TORSDOF 2
ENDMDL
ENDMDL
