REMARK  Name = No_269-gen_results/8p0m/2024-11-26-14-13-15/
REMARK  7 active torsions:
REMARK  status: ('A' for Active; 'I' for Inactive)
REMARK    1  A    between atoms: C_1  and  C_2
REMARK    2  A    between atoms: C_5  and  C_9
REMARK    3  A    between atoms: N_8  and  C_14
REMARK    4  A    between atoms: C_14  and  C_15
REMARK    5  A    between atoms: C_15  and  O_16
REMARK    6  A    between atoms: O_16  and  C_17
REMARK    7  A    between atoms: C_17  and  C_18
REMARK                            x       y       z     vdW  Elec       q    Type
REMARK                         _______ _______ _______ _____ _____    ______ ____
ROOT
ATOM      1  C   UNL A   1     -28.016  -0.814  28.878  0.00  0.00    +0.265 C 
ATOM      2  N   UNL A   1     -27.896  -1.541  30.059  0.00  0.00    -0.199 NA
ATOM      3  O   UNL A   1     -29.089  -0.814  28.389  0.00  0.00    -0.268 OA
ENDROOT
BRANCH   1   4
ATOM      4  C   UNL A   1     -27.064  -0.119  28.608  0.00  0.00    +0.055 A 
ATOM      5  C   UNL A   1     -27.001   0.691  27.491  0.00  0.00    +0.004 A 
ATOM      6  C   UNL A   1     -25.855   1.482  27.083  0.00  0.00    +0.004 A 
ATOM      7  C   UNL A   1     -24.901   1.389  27.592  0.00  0.00    +0.071 A 
ATOM      8  C   UNL A   1     -24.678   0.576  28.830  0.00  0.00    +0.004 A 
ATOM      9  C   UNL A   1     -25.770  -0.205  29.280  0.00  0.00    +0.004 A 
BRANCH   7  10
ATOM     10  C   UNL A   1     -23.577   2.191  27.321  0.00  0.00    +0.419 C 
ATOM     11  F   UNL A   1     -23.582   2.756  26.248  0.00  0.00    -0.166 F 
ATOM     12  F   UNL A   1     -23.233   3.079  28.285  0.00  0.00    -0.166 F 
ATOM     13  F   UNL A   1     -22.452   1.367  27.252  0.00  0.00    -0.166 F 
ENDBRANCH   7  10
ENDBRANCH   1   4
BRANCH   2  14
ATOM     14  C   UNL A   1     -29.006  -2.445  30.614  0.00  0.00    +0.147 C 
BRANCH  14  15
ATOM     15  C   UNL A   1     -28.828  -3.781  30.271  0.00  0.00    +0.166 C 
BRANCH  15  16
ATOM     16  O   UNL A   1     -29.038  -4.615  31.201  0.00  0.00    -0.353 OA
BRANCH  16  17
ATOM     17  C   UNL A   1     -30.390  -4.872  31.455  0.00  0.00    +0.112 C 
ATOM     18  C   UNL A   1     -30.328  -6.467  31.426  0.00  0.00    +0.034 C 
ATOM     19  C   UNL A   1     -31.194  -4.670  30.186  0.00  0.00    +0.034 C 
BRANCH  17  20
ATOM     20  C   UNL A   1     -31.005  -4.399  32.473  0.00  0.00    +0.002 A 
ATOM     21  C   UNL A   1     -31.686  -3.535  32.505  0.00  0.00    -0.002 A 
ATOM     22  C   UNL A   1     -31.563  -2.429  33.427  0.00  0.00    -0.000 A 
ATOM     23  C   UNL A   1     -30.987  -2.715  34.736  0.00  0.00    -0.000 A 
ATOM     24  C   UNL A   1     -30.244  -3.924  34.788  0.00  0.00    -0.000 A 
ATOM     25  C   UNL A   1     -30.136  -4.705  33.689  0.00  0.00    -0.002 A 
ENDBRANCH  17  20
ENDBRANCH  16  17
ENDBRANCH  15  16
ENDBRANCH  14  15
ENDBRANCH   2  14
TORSDOF 7
