REMARK  Name = No_2690-gen_results/8p0m/2024-11-26-14-13-15/
REMARK  3 active torsions:
REMARK  status: ('A' for Active; 'I' for Inactive)
REMARK    1  A    between atoms: C_3  and  C_7
REMARK    2  A    between atoms: C_6  and  O_11
REMARK    3  A    between atoms: O_11  and  C_12
REMARK                            x       y       z     vdW  Elec       q    Type
REMARK                         _______ _______ _______ _____ _____    ______ ____
ROOT
ATOM      1  C   UNL A   1     -28.016  -0.814  28.878  0.00  0.00    +0.004 A 
ATOM      2  C   UNL A   1     -28.469  -0.785  29.829  0.00  0.00    +0.003 A 
ATOM      3  C   UNL A   1     -28.196   0.348  28.055  0.00  0.00    +0.074 A 
ATOM      4  C   UNL A   1     -29.019   1.350  28.378  0.00  0.00    +0.041 A 
ATOM      5  C   UNL A   1     -29.411   0.180  30.378  0.00  0.00    +0.037 A 
ATOM      6  C   UNL A   1     -29.606   1.250  29.619  0.00  0.00    +0.145 A 
ENDROOT
BRANCH   3   7
ATOM      7  C   UNL A   1     -27.448   0.380  26.712  0.00  0.00    +0.419 C 
ATOM      8  F   UNL A   1     -28.058   0.137  25.746  0.00  0.00    -0.166 F 
ATOM      9  F   UNL A   1     -26.353  -0.467  26.800  0.00  0.00    -0.166 F 
ATOM     10  F   UNL A   1     -26.956   1.678  26.608  0.00  0.00    -0.166 F 
ENDBRANCH   3   7
BRANCH   6  11
ATOM     11  O   UNL A   1     -30.456   2.251  30.006  0.00  0.00    -0.451 OA
BRANCH  11  12
ATOM     12  C   UNL A   1     -30.043   3.016  30.951  0.00  0.00    +0.175 C 
ATOM     13  C   UNL A   1     -29.470   2.850  31.936  0.00  0.00    +0.015 C 
ATOM     14  C   UNL A   1     -29.026   3.821  32.913  0.00  0.00    +0.034 C 
ENDBRANCH  11  12
ENDBRANCH   6  11
TORSDOF 3
