MODEL 2690
MODEL 1
REMARK VINA RESULT:    -6.042      0.000      0.000
REMARK INTER + INTRA:          -7.521
REMARK INTER:                  -7.102
REMARK INTRA:                  -0.419
REMARK UNBOUND:                -0.419
REMARK  Name = No_2690-gen_results/8p0m/2024-11-26-14-13-15/
REMARK  3 active torsions:
REMARK  status: ('A' for Active; 'I' for Inactive)
REMARK    1  A    between atoms: C_3  and  C_7
REMARK    2  A    between atoms: C_6  and  O_11
REMARK    3  A    between atoms: O_11  and  C_12
REMARK                            x       y       z     vdW  Elec       q    Type
REMARK                         _______ _______ _______ _____ _____    ______ ____
ROOT
ATOM      1  C   UNL A   1     -21.555   1.353  27.410  0.00  0.00    +0.004 A 
ATOM      2  C   UNL A   1     -21.182   0.764  28.200  0.00  0.00    +0.003 A 
ATOM      3  C   UNL A   1     -22.966   1.264  27.165  0.00  0.00    +0.074 A 
ATOM      4  C   UNL A   1     -23.757   0.374  27.772  0.00  0.00    +0.041 A 
ATOM      5  C   UNL A   1     -21.846  -0.276  28.974  0.00  0.00    +0.037 A 
ATOM      6  C   UNL A   1     -23.147  -0.386  28.743  0.00  0.00    +0.145 A 
ENDROOT
BRANCH   3   7
ATOM      7  C   UNL A   1     -23.554   2.201  26.097  0.00  0.00    +0.419 C 
ATOM      8  F   UNL A   1     -24.453   1.806  25.465  0.00  0.00    -0.166 F 
ATOM      9  F   UNL A   1     -22.528   2.602  25.253  0.00  0.00    -0.166 F 
ATOM     10  F   UNL A   1     -23.971   3.328  26.800  0.00  0.00    -0.166 F 
ENDBRANCH   3   7
BRANCH   6  11
ATOM     11  O   UNL A   1     -23.910  -1.312  29.402  0.00  0.00    -0.451 OA
BRANCH  11  12
ATOM     12  C   UNL A   1     -23.713  -2.542  29.087  0.00  0.00    +0.175 C 
ATOM     13  C   UNL A   1     -24.397  -3.446  28.888  0.00  0.00    +0.015 C 
ATOM     14  C   UNL A   1     -24.044  -4.794  28.498  0.00  0.00    +0.034 C 
ENDBRANCH  11  12
ENDBRANCH   6  11
TORSDOF 3
ENDMDL
ENDMDL
