MODEL 2691
MODEL 1
REMARK VINA RESULT:    -5.247      0.000      0.000
REMARK INTER + INTRA:          -5.654
REMARK INTER:                  -5.553
REMARK INTRA:                  -0.100
REMARK UNBOUND:                -0.100
REMARK  Name = No_2691-gen_results/8p0m/2024-11-26-14-13-15/
REMARK  1 active torsions:
REMARK  status: ('A' for Active; 'I' for Inactive)
REMARK    1  A    between atoms: C_5  and  C_6
REMARK                            x       y       z     vdW  Elec       q    Type
REMARK                         _______ _______ _______ _____ _____    ______ ____
ROOT
ATOM      1  O   UNL A   1     -21.319   0.481  28.552  0.00  0.00    -0.272 OA
ATOM      2  C   UNL A   1     -22.403   0.133  28.374  0.00  0.00    +0.258 C 
ATOM      3  C   UNL A   1     -23.300   0.407  27.830  0.00  0.00    +0.150 C 
ATOM      4  N   UNL A   1     -22.536  -1.248  28.872  0.00  0.00    -0.200 NA
ATOM      5  C   UNL A   1     -23.767  -1.961  28.716  0.00  0.00    +0.134 C 
ATOM      6  C   UNL A   1     -24.959  -1.301  28.284  0.00  0.00    +0.115 C 
ATOM      7  N   UNL A   1     -24.287   0.099  27.464  0.00  0.00    -0.208 NA
ATOM      8  C   UNL A   1     -23.047   1.913  27.111  0.00  0.00    +0.029 C 
ENDROOT
BRANCH   5   9
ATOM      9  C   UNL A   1     -23.934  -3.329  28.984  0.00  0.00    -0.008 C 
ATOM     10  C   UNL A   1     -24.814  -4.003  28.936  0.00  0.00    -0.029 C 
ATOM     11  C   UNL A   1     -24.925  -5.405  29.220  0.00  0.00    +0.030 C 
ENDBRANCH   5   9
TORSDOF 1
ENDMDL
ENDMDL
