REMARK  Name = No_2691-gen_results/8p0m/2024-11-26-14-13-15/
REMARK  1 active torsions:
REMARK  status: ('A' for Active; 'I' for Inactive)
REMARK    1  A    between atoms: C_5  and  C_6
REMARK                            x       y       z     vdW  Elec       q    Type
REMARK                         _______ _______ _______ _____ _____    ______ ____
ROOT
ATOM      1  O   UNL A   1     -28.123  -1.335  28.487  0.00  0.00    -0.272 OA
ATOM      2  C   UNL A   1     -27.481  -0.404  28.709  0.00  0.00    +0.258 C 
ATOM      3  C   UNL A   1     -27.190   0.246  29.527  0.00  0.00    +0.150 C 
ATOM      4  N   UNL A   1     -26.602  -0.158  27.552  0.00  0.00    -0.200 NA
ATOM      5  C   UNL A   1     -25.642   0.903  27.582  0.00  0.00    +0.134 C 
ATOM      6  C   UNL A   1     -25.650   1.885  28.620  0.00  0.00    +0.115 C 
ATOM      7  N   UNL A   1     -26.503   1.021  29.890  0.00  0.00    -0.208 NA
ATOM      8  C   UNL A   1     -28.080  -0.186  30.894  0.00  0.00    +0.029 C 
ENDROOT
BRANCH   5   9
ATOM      9  C   UNL A   1     -24.641   1.099  26.616  0.00  0.00    -0.008 C 
ATOM     10  C   UNL A   1     -23.789   1.805  26.549  0.00  0.00    -0.029 C 
ATOM     11  C   UNL A   1     -22.789   1.958  25.531  0.00  0.00    +0.030 C 
ENDBRANCH   5   9
TORSDOF 1
