MODEL 2692
MODEL 1
REMARK VINA RESULT:    -6.568      0.000      0.000
REMARK INTER + INTRA:          -7.063
REMARK INTER:                  -6.952
REMARK INTRA:                  -0.111
REMARK UNBOUND:                -0.111
REMARK  Name = No_2692-gen_results/8p0m/2024-11-26-14-13-15/
REMARK  1 active torsions:
REMARK  status: ('A' for Active; 'I' for Inactive)
REMARK    1  A    between atoms: C_1  and  C_8
REMARK                            x       y       z     vdW  Elec       q    Type
REMARK                         _______ _______ _______ _____ _____    ______ ____
ROOT
ATOM      1  C   UNL A   1     -22.990   0.671  29.527  0.00  0.00    +0.058 C 
ATOM      2  C   UNL A   1     -23.772  -0.250  29.580  0.00  0.00    +0.022 C 
ATOM      3  C   UNL A   1     -23.477  -1.540  29.142  0.00  0.00    +0.055 C 
ATOM      4  C   UNL A   1     -24.370  -2.715  29.158  0.00  0.00    -0.021 A 
ATOM      5  C   UNL A   1     -25.592  -2.555  29.881  0.00  0.00    -0.018 A 
ATOM      6  C   UNL A   1     -25.908  -1.287  30.377  0.00  0.00    +0.095 C 
ATOM      7  C   UNL A   1     -25.086  -0.220  30.263  0.00  0.00    +0.174 C 
ATOM      8  C   UNL A   1     -26.484  -3.710  29.919  0.00  0.00    -0.004 A 
ATOM      9  C   UNL A   1     -26.040  -4.989  29.551  0.00  0.00    -0.000 A 
ATOM     10  C   UNL A   1     -24.783  -5.072  28.882  0.00  0.00    -0.000 A 
ATOM     11  C   UNL A   1     -23.892  -3.955  28.743  0.00  0.00    -0.004 A 
ATOM     12  O   UNL A   1     -25.413   0.973  30.744  0.00  0.00    -0.291 OA
ENDROOT
BRANCH   1  13
ATOM     13  C   UNL A   1     -22.993   1.344  28.170  0.00  0.00    +0.265 C 
ATOM     14  O   UNL A   1     -22.412   1.166  27.320  0.00  0.00    -0.268 OA
ATOM     15  N   UNL A   1     -24.023   2.411  28.188  0.00  0.00    -0.200 NA
ATOM     16  C   UNL A   1     -24.180   3.204  26.933  0.00  0.00    +0.139 C 
ENDBRANCH   1  13
TORSDOF 1
ENDMDL
ENDMDL
