REMARK  Name = No_2692-gen_results/8p0m/2024-11-26-14-13-15/
REMARK  1 active torsions:
REMARK  status: ('A' for Active; 'I' for Inactive)
REMARK    1  A    between atoms: C_1  and  C_8
REMARK                            x       y       z     vdW  Elec       q    Type
REMARK                         _______ _______ _______ _____ _____    ______ ____
ROOT
ATOM      1  C   UNL A   1     -28.016  -0.814  28.878  0.00  0.00    +0.058 C 
ATOM      2  C   UNL A   1     -27.064  -0.119  28.608  0.00  0.00    +0.022 C 
ATOM      3  C   UNL A   1     -25.765  -0.390  29.036  0.00  0.00    +0.055 C 
ATOM      4  C   UNL A   1     -24.552   0.406  28.765  0.00  0.00    -0.021 A 
ATOM      5  C   UNL A   1     -24.696   1.448  27.799  0.00  0.00    -0.018 A 
ATOM      6  C   UNL A   1     -25.976   1.725  27.308  0.00  0.00    +0.095 C 
ATOM      7  C   UNL A   1     -27.072   1.013  27.654  0.00  0.00    +0.174 C 
ATOM      8  C   UNL A   1     -23.504   2.239  27.508  0.00  0.00    -0.004 A 
ATOM      9  C   UNL A   1     -22.228   1.809  27.901  0.00  0.00    -0.000 A 
ATOM     10  C   UNL A   1     -22.165   0.725  28.827  0.00  0.00    -0.000 A 
ATOM     11  C   UNL A   1     -23.313  -0.045  29.214  0.00  0.00    -0.004 A 
ATOM     12  O   UNL A   1     -28.275   1.299  27.172  0.00  0.00    -0.291 OA
ENDROOT
BRANCH   1  13
ATOM     13  C   UNL A   1     -28.604  -0.474  30.232  0.00  0.00    +0.265 C 
ATOM     14  O   UNL A   1     -28.300   0.220  30.951  0.00  0.00    -0.268 OA
ATOM     15  N   UNL A   1     -29.786  -1.341  30.451  0.00  0.00    -0.200 NA
ATOM     16  C   UNL A   1     -30.510  -1.163  31.745  0.00  0.00    +0.139 C 
ENDBRANCH   1  13
TORSDOF 1
