REMARK  Name = No_2693-gen_results/8p0m/2024-11-26-14-13-15/
REMARK  6 active torsions:
REMARK  status: ('A' for Active; 'I' for Inactive)
REMARK    1  A    between atoms: C_3  and  O_14
REMARK    2  A    between atoms: C_5  and  C_8
REMARK    3  A    between atoms: O_14  and  C_15
REMARK    4  A    between atoms: C_15  and  C_16
REMARK    5  A    between atoms: C_16  and  C_17
REMARK    6  A    between atoms: C_18  and  C_19
REMARK                            x       y       z     vdW  Elec       q    Type
REMARK                         _______ _______ _______ _____ _____    ______ ____
ROOT
ATOM      1 CL   UNL A   1     -28.149  -0.820  28.908  0.00  0.00    -0.078 Cl
ATOM      2  C   UNL A   1     -26.912  -0.080  28.945  0.00  0.00    +0.103 A 
ATOM      3  C   UNL A   1     -26.049  -0.072  27.859  0.00  0.00    +0.160 A 
ATOM      4  C   UNL A   1     -24.657  -0.037  27.964  0.00  0.00    +0.042 A 
ATOM      5  C   UNL A   1     -24.033   0.380  29.206  0.00  0.00    +0.042 A 
ATOM      6  C   UNL A   1     -24.880   0.430  30.310  0.00  0.00    +0.016 A 
ATOM      7  C   UNL A   1     -26.199   0.166  30.189  0.00  0.00    +0.071 A 
ATOM      8 CL   UNL A   1     -27.200   0.221  31.633  0.00  0.00    -0.081 Cl
ENDROOT
BRANCH   5   9
ATOM      9  C   UNL A   1     -22.619   0.610  29.224  0.00  0.00    +0.185 A 
ATOM     10  N   UNL A   1     -21.803   1.407  28.909  0.00  0.00    -0.202 NA
ATOM     11  N   UNL A   1     -21.901  -0.612  29.738  0.00  0.00    -0.127 NA
ATOM     12  C   UNL A   1     -20.544   0.955  28.570  0.00  0.00    +0.223 A 
ATOM     13  N   UNL A   1     -20.641  -0.262  29.164  0.00  0.00    -0.124 NA
ENDBRANCH   5   9
BRANCH   3  14
ATOM     14  O   UNL A   1     -26.510  -0.433  26.633  0.00  0.00    -0.423 OA
BRANCH  14  15
ATOM     15  C   UNL A   1     -26.519   0.649  25.717  0.00  0.00    +0.326 C 
ATOM     16  O   UNL A   1     -25.696   1.466  25.595  0.00  0.00    -0.249 OA
BRANCH  15  17
ATOM     17  C   UNL A   1     -27.602   0.372  24.828  0.00  0.00    +0.136 C 
BRANCH  17  18
ATOM     18  C   UNL A   1     -28.573  -0.505  25.150  0.00  0.00    -0.015 C 
ATOM     19  C   UNL A   1     -29.726  -0.644  24.153  0.00  0.00    -0.004 C 
BRANCH  19  20
ATOM     20  C   UNL A   1     -30.717  -0.102  24.423  0.00  0.00    -0.000 A 
ATOM     21  C   UNL A   1     -30.898   0.968  25.259  0.00  0.00    -0.000 A 
ATOM     22  C   UNL A   1     -31.993   1.841  24.963  0.00  0.00    -0.000 A 
ATOM     23  C   UNL A   1     -33.090   1.409  24.224  0.00  0.00    -0.000 A 
ATOM     24  C   UNL A   1     -32.976   0.284  23.428  0.00  0.00    -0.000 A 
ATOM     25  C   UNL A   1     -31.805  -0.427  23.434  0.00  0.00    -0.000 A 
ENDBRANCH  19  20
ENDBRANCH  17  18
ENDBRANCH  15  17
ENDBRANCH  14  15
ENDBRANCH   3  14
TORSDOF 6
