REMARK  Name = No_2694-gen_results/8p0m/2024-11-26-14-13-15/
REMARK  1 active torsions:
REMARK  status: ('A' for Active; 'I' for Inactive)
REMARK    1  A    between atoms: C_1  and  C_11
REMARK                            x       y       z     vdW  Elec       q    Type
REMARK                         _______ _______ _______ _____ _____    ______ ____
ROOT
ATOM      1  C   UNL A   1     -28.016  -0.814  28.878  0.00  0.00    +0.073 A 
ATOM      2  C   UNL A   1     -27.064  -0.119  28.608  0.00  0.00    +0.004 A 
ATOM      3  C   UNL A   1     -27.001   0.691  27.491  0.00  0.00    +0.002 A 
ATOM      4  C   UNL A   1     -28.137   0.736  26.635  0.00  0.00    +0.019 A 
ATOM      5  C   UNL A   1     -29.236   0.076  27.069  0.00  0.00    +0.081 A 
ATOM      6  C   UNL A   1     -29.218  -0.643  28.175  0.00  0.00    +0.022 A 
ATOM      7  N   UNL A   1     -30.258   0.256  26.084  0.00  0.00    -0.244 NA
ATOM      8  C   UNL A   1     -31.329  -0.449  26.299  0.00  0.00    +0.099 A 
ATOM      9  C   UNL A   1     -31.520  -1.100  27.532  0.00  0.00    +0.021 A 
ATOM     10  C   UNL A   1     -30.472  -1.292  28.405  0.00  0.00    +0.003 A 
ENDROOT
BRANCH   1  11
ATOM     11  C   UNL A   1     -28.019  -1.641  30.156  0.00  0.00    +0.419 C 
ATOM     12  F   UNL A   1     -28.800  -1.730  30.888  0.00  0.00    -0.166 F 
ATOM     13  F   UNL A   1     -27.669  -2.997  29.678  0.00  0.00    -0.166 F 
ATOM     14  F   UNL A   1     -26.794  -1.431  30.866  0.00  0.00    -0.166 F 
ENDBRANCH   1  11
TORSDOF 1
