MODEL 2694
MODEL 1
REMARK VINA RESULT:    -6.010      0.000      0.000
REMARK INTER + INTRA:          -6.622
REMARK INTER:                  -6.361
REMARK INTRA:                  -0.260
REMARK UNBOUND:                -0.260
REMARK  Name = No_2694-gen_results/8p0m/2024-11-26-14-13-15/
REMARK  1 active torsions:
REMARK  status: ('A' for Active; 'I' for Inactive)
REMARK    1  A    between atoms: C_1  and  C_11
REMARK                            x       y       z     vdW  Elec       q    Type
REMARK                         _______ _______ _______ _____ _____    ______ ____
ROOT
ATOM      1  C   UNL A   1     -24.396  -2.696  29.331  0.00  0.00    +0.073 A 
ATOM      2  C   UNL A   1     -23.819  -3.617  28.802  0.00  0.00    +0.004 A 
ATOM      3  C   UNL A   1     -24.325  -4.901  28.737  0.00  0.00    +0.002 A 
ATOM      4  C   UNL A   1     -25.614  -5.138  29.290  0.00  0.00    +0.019 A 
ATOM      5  C   UNL A   1     -26.290  -4.045  29.716  0.00  0.00    +0.081 A 
ATOM      6  C   UNL A   1     -25.741  -2.845  29.703  0.00  0.00    +0.022 A 
ATOM      7  N   UNL A   1     -27.553  -4.493  30.216  0.00  0.00    -0.244 NA
ATOM      8  C   UNL A   1     -28.251  -3.562  30.796  0.00  0.00    +0.099 A 
ATOM      9  C   UNL A   1     -27.877  -2.210  30.679  0.00  0.00    +0.021 A 
ATOM     10  C   UNL A   1     -26.618  -1.856  30.248  0.00  0.00    +0.003 A 
ENDROOT
BRANCH   1  11
ATOM     11  C   UNL A   1     -23.785  -1.302  29.315  0.00  0.00    +0.419 C 
ATOM     12  F   UNL A   1     -23.754  -0.581  30.110  0.00  0.00    -0.166 F 
ATOM     13  F   UNL A   1     -22.400  -1.549  28.854  0.00  0.00    -0.166 F 
ATOM     14  F   UNL A   1     -24.196  -0.611  28.131  0.00  0.00    -0.166 F 
ENDBRANCH   1  11
TORSDOF 1
ENDMDL
ENDMDL
