MODEL 2695
MODEL 1
REMARK VINA RESULT:    -6.900      0.000      0.000
REMARK INTER + INTRA:          -8.428
REMARK INTER:                  -8.110
REMARK INTRA:                  -0.318
REMARK UNBOUND:                -0.318
REMARK  Name = No_2695-gen_results/8p0m/2024-11-26-14-13-15/
REMARK  3 active torsions:
REMARK  status: ('A' for Active; 'I' for Inactive)
REMARK    1  A    between atoms: C_4  and  O_7
REMARK    2  A    between atoms: O_7  and  C_8
REMARK    3  A    between atoms: C_10  and  C_11
REMARK                            x       y       z     vdW  Elec       q    Type
REMARK                         _______ _______ _______ _____ _____    ______ ____
ROOT
ATOM      1  O   UNL A   1     -22.850  -2.079  28.900  0.00  0.00    -0.450 OA
ENDROOT
BRANCH   1   5
ATOM      2  C   UNL A   1     -25.591  -4.577  29.364  0.00  0.00    +0.015 A 
ATOM      3  C   UNL A   1     -26.265  -3.907  29.819  0.00  0.00    +0.058 A 
ATOM      4  C   UNL A   1     -24.269  -3.978  28.937  0.00  0.00    +0.038 A 
ATOM      5  C   UNL A   1     -23.968  -2.646  29.289  0.00  0.00    +0.145 A 
ATOM      6  C   UNL A   1     -26.190  -2.517  30.322  0.00  0.00    +0.015 A 
ATOM      7  C   UNL A   1     -24.985  -1.935  29.953  0.00  0.00    +0.038 A 
ATOM      8 CL   UNL A   1     -27.861  -4.661  30.382  0.00  0.00    -0.082 Cl
ENDBRANCH   1   5
BRANCH   1   9
ATOM      9  C   UNL A   1     -22.359  -1.014  29.357  0.00  0.00    +0.179 C 
ATOM     10  C   UNL A   1     -22.530   0.081  29.166  0.00  0.00    +0.041 C 
BRANCH  10  11
ATOM     11  C   UNL A   1     -22.743   0.763  27.928  0.00  0.00    +0.003 A 
ATOM     12  C   UNL A   1     -21.834   1.597  27.234  0.00  0.00    +0.000 A 
ATOM     13  C   UNL A   1     -22.100   2.219  26.011  0.00  0.00    +0.000 A 
ATOM     14  C   UNL A   1     -23.383   2.121  25.487  0.00  0.00    +0.000 A 
ATOM     15  C   UNL A   1     -24.310   1.320  26.144  0.00  0.00    +0.000 A 
ATOM     16  C   UNL A   1     -24.003   0.678  27.334  0.00  0.00    +0.000 A 
ENDBRANCH  10  11
ENDBRANCH   1   9
TORSDOF 3
ENDMDL
ENDMDL
