REMARK  Name = No_2695-gen_results/8p0m/2024-11-26-14-13-15/
REMARK  3 active torsions:
REMARK  status: ('A' for Active; 'I' for Inactive)
REMARK    1  A    between atoms: C_4  and  O_7
REMARK    2  A    between atoms: O_7  and  C_8
REMARK    3  A    between atoms: C_10  and  C_11
REMARK                            x       y       z     vdW  Elec       q    Type
REMARK                         _______ _______ _______ _____ _____    ______ ____
ROOT
ATOM      1  O   UNL A   1     -24.500  -0.782  30.145  0.00  0.00    -0.450 OA
ENDROOT
BRANCH   1   5
ATOM      2  C   UNL A   1     -28.016  -0.814  28.878  0.00  0.00    +0.015 A 
ATOM      3  C   UNL A   1     -28.469  -0.785  29.829  0.00  0.00    +0.058 A 
ATOM      4  C   UNL A   1     -26.504  -0.778  28.877  0.00  0.00    +0.038 A 
ATOM      5  C   UNL A   1     -25.810  -0.853  30.103  0.00  0.00    +0.145 A 
ATOM      6  C   UNL A   1     -27.991  -0.892  31.226  0.00  0.00    +0.015 A 
ATOM      7  C   UNL A   1     -26.604  -0.868  31.265  0.00  0.00    +0.038 A 
ATOM      8 CL   UNL A   1     -30.319  -0.878  29.821  0.00  0.00    -0.082 Cl
ENDBRANCH   1   5
BRANCH   1   9
ATOM      9  C   UNL A   1     -23.820  -0.042  30.903  0.00  0.00    +0.179 C 
ATOM     10  C   UNL A   1     -23.985   0.962  31.382  0.00  0.00    +0.041 C 
BRANCH  10  11
ATOM     11  C   UNL A   1     -24.577   2.142  30.834  0.00  0.00    +0.003 A 
ATOM     12  C   UNL A   1     -24.951   3.321  31.523  0.00  0.00    +0.000 A 
ATOM     13  C   UNL A   1     -25.508   4.451  30.920  0.00  0.00    +0.000 A 
ATOM     14  C   UNL A   1     -25.837   4.385  29.572  0.00  0.00    +0.000 A 
ATOM     15  C   UNL A   1     -25.496   3.241  28.860  0.00  0.00    +0.000 A 
ATOM     16  C   UNL A   1     -24.902   2.150  29.477  0.00  0.00    +0.000 A 
ENDBRANCH  10  11
ENDBRANCH   1   9
TORSDOF 3
