MODEL 2696
MODEL 1
REMARK VINA RESULT:    -6.037      0.000      0.000
REMARK INTER + INTRA:          -9.950
REMARK INTER:                  -8.508
REMARK INTRA:                  -1.442
REMARK UNBOUND:                -1.442
REMARK  Name = No_2696-gen_results/8p0m/2024-11-26-14-13-15/
REMARK  7 active torsions:
REMARK  status: ('A' for Active; 'I' for Inactive)
REMARK    1  A    between atoms: C_1  and  C_2
REMARK    2  A    between atoms: C_1  and  C_8
REMARK    3  A    between atoms: C_3  and  C_20
REMARK    4  A    between atoms: C_5  and  C_14
REMARK    5  A    between atoms: C_8  and  C_9
REMARK    6  A    between atoms: C_8  and  C_10
REMARK    7  A    between atoms: C_14  and  O_16
REMARK                            x       y       z     vdW  Elec       q    Type
REMARK                         _______ _______ _______ _____ _____    ______ ____
ROOT
ATOM      1  C   UNL A   1     -23.391  -0.455  29.281  0.00  0.00    -0.017 A 
ATOM      2  C   UNL A   1     -23.928  -1.599  29.774  0.00  0.00    +0.068 A 
ATOM      3  C   UNL A   1     -24.371  -1.786  31.174  0.00  0.00    +0.010 A 
ATOM      4  C   UNL A   1     -24.192  -0.677  32.064  0.00  0.00    +0.076 A 
ATOM      5  C   UNL A   1     -23.563   0.471  31.531  0.00  0.00    +0.006 A 
ATOM      6  C   UNL A   1     -23.178   0.572  30.219  0.00  0.00    -0.004 A 
ENDROOT
BRANCH   2   7
ATOM      7  C   UNL A   1     -24.236  -2.862  28.974  0.00  0.00    +0.418 C 
ATOM      8  F   UNL A   1     -23.434  -3.367  28.549  0.00  0.00    -0.166 F 
ATOM      9  F   UNL A   1     -25.259  -2.379  28.090  0.00  0.00    -0.166 F 
ATOM     10  F   UNL A   1     -24.836  -3.695  29.939  0.00  0.00    -0.166 F 
ENDBRANCH   2   7
BRANCH   4  11
ATOM     11  C   UNL A   1     -24.554  -0.752  33.448  0.00  0.00    +0.341 C 
ATOM     12  O   UNL A   1     -24.149  -1.218  34.249  0.00  0.00    -0.245 OA
BRANCH  11  13
ATOM     13  O   UNL A   1     -25.615   0.157  33.751  0.00  0.00    -0.441 OA
ATOM     14  C   UNL A   1     -26.917  -0.229  33.497  0.00  0.00    +0.256 C 
ENDBRANCH  11  13
ENDBRANCH   4  11
BRANCH   1  15
ATOM     15  C   UNL A   1     -23.031  -0.316  28.135  0.00  0.00    +0.046 C 
BRANCH  15  16
ATOM     16  C   UNL A   1     -23.678   0.801  27.282  0.00  0.00    +0.202 C 
BRANCH  16  17
ATOM     17  C   UNL A   1     -22.799   1.939  26.930  0.00  0.00    +0.408 C 
ATOM     18  F   UNL A   1     -22.634   2.059  25.801  0.00  0.00    -0.169 F 
ATOM     19  F   UNL A   1     -21.626   1.880  27.541  0.00  0.00    -0.169 F 
ATOM     20  F   UNL A   1     -23.489   3.009  27.414  0.00  0.00    -0.169 F 
ENDBRANCH  16  17
BRANCH  16  21
ATOM     21  C   UNL A   1     -24.743   0.583  26.853  0.00  0.00    +0.373 C 
ATOM     22  O   UNL A   1     -25.064  -0.184  25.875  0.00  0.00    -0.245 OA
ATOM     23  O   UNL A   1     -25.915   0.889  27.490  0.00  0.00    -0.245 OA
ENDBRANCH  16  21
ENDBRANCH  15  16
ENDBRANCH   1  15
TORSDOF 7
ENDMDL
ENDMDL
