REMARK  Name = No_2696-gen_results/8p0m/2024-11-26-14-13-15/
REMARK  7 active torsions:
REMARK  status: ('A' for Active; 'I' for Inactive)
REMARK    1  A    between atoms: C_1  and  C_2
REMARK    2  A    between atoms: C_1  and  C_8
REMARK    3  A    between atoms: C_3  and  C_20
REMARK    4  A    between atoms: C_5  and  C_14
REMARK    5  A    between atoms: C_8  and  C_9
REMARK    6  A    between atoms: C_8  and  C_10
REMARK    7  A    between atoms: C_14  and  O_16
REMARK                            x       y       z     vdW  Elec       q    Type
REMARK                         _______ _______ _______ _____ _____    ______ ____
ROOT
ATOM      1  C   UNL A   1     -27.064  -0.119  28.608  0.00  0.00    -0.017 A 
ATOM      2  C   UNL A   1     -26.929   1.171  29.008  0.00  0.00    +0.068 A 
ATOM      3  C   UNL A   1     -25.770   2.034  28.688  0.00  0.00    +0.010 A 
ATOM      4  C   UNL A   1     -24.714   1.443  27.919  0.00  0.00    +0.076 A 
ATOM      5  C   UNL A   1     -24.859   0.078  27.584  0.00  0.00    +0.006 A 
ATOM      6  C   UNL A   1     -25.965  -0.661  27.916  0.00  0.00    -0.004 A 
ENDROOT
BRANCH   2   7
ATOM      7  C   UNL A   1     -27.961   1.980  29.790  0.00  0.00    +0.418 C 
ATOM      8  F   UNL A   1     -27.971   3.008  29.647  0.00  0.00    -0.166 F 
ATOM      9  F   UNL A   1     -27.729   1.497  31.122  0.00  0.00    -0.166 F 
ATOM     10  F   UNL A   1     -29.180   1.446  29.327  0.00  0.00    -0.166 F 
ENDBRANCH   2   7
BRANCH   4  11
ATOM     11  C   UNL A   1     -23.530   2.172  27.576  0.00  0.00    +0.341 C 
ATOM     12  O   UNL A   1     -23.359   3.002  27.023  0.00  0.00    -0.245 OA
BRANCH  11  13
ATOM     13  O   UNL A   1     -22.402   1.696  28.314  0.00  0.00    -0.441 OA
ATOM     14  C   UNL A   1     -21.729   0.579  27.856  0.00  0.00    +0.256 C 
ENDBRANCH  11  13
ENDBRANCH   4  11
BRANCH   1  15
ATOM     15  C   UNL A   1     -28.016  -0.814  28.878  0.00  0.00    +0.046 C 
BRANCH  15  16
ATOM     16  C   UNL A   1     -28.042  -1.543  30.242  0.00  0.00    +0.202 C 
BRANCH  16  17
ATOM     17  C   UNL A   1     -29.323  -2.191  30.605  0.00  0.00    +0.408 C 
ATOM     18  F   UNL A   1     -29.212  -3.295  30.897  0.00  0.00    -0.169 F 
ATOM     19  F   UNL A   1     -30.235  -2.078  29.653  0.00  0.00    -0.169 F 
ATOM     20  F   UNL A   1     -29.728  -1.466  31.685  0.00  0.00    -0.169 F 
ENDBRANCH  16  17
BRANCH  16  21
ATOM     21  C   UNL A   1     -27.019  -1.662  30.793  0.00  0.00    +0.373 C 
ATOM     22  O   UNL A   1     -26.449  -0.839  31.597  0.00  0.00    -0.245 OA
ATOM     23  O   UNL A   1     -26.334  -2.840  30.915  0.00  0.00    -0.245 OA
ENDBRANCH  16  21
ENDBRANCH  15  16
ENDBRANCH   1  15
TORSDOF 7
