MODEL 2697
MODEL 1
REMARK VINA RESULT:    -5.399      0.000      0.000
REMARK INTER + INTRA:          -5.932
REMARK INTER:                  -5.714
REMARK INTRA:                  -0.218
REMARK UNBOUND:                -0.218
REMARK  Name = No_2697-gen_results/8p0m/2024-11-26-14-13-15/
REMARK  1 active torsions:
REMARK  status: ('A' for Active; 'I' for Inactive)
REMARK    1  A    between atoms: C_3  and  C_4
REMARK                            x       y       z     vdW  Elec       q    Type
REMARK                         _______ _______ _______ _____ _____    ______ ____
ROOT
ATOM      1  C   UNL A   1      -9.419  -9.062  19.931  0.00  0.00    +0.004 A 
ATOM      2  C   UNL A   1     -10.247  -9.543  19.489  0.00  0.00    -0.000 A 
ATOM      3  C   UNL A   1      -8.238  -8.947  19.166  0.00  0.00    +0.071 A 
ATOM      4  C   UNL A   1     -10.417 -10.162  18.162  0.00  0.00    -0.000 A 
ATOM      5  C   UNL A   1      -9.285 -10.087  17.350  0.00  0.00    -0.000 A 
ATOM      6  C   UNL A   1      -8.183  -9.440  17.807  0.00  0.00    +0.004 A 
ENDROOT
BRANCH   3   7
ATOM      7  C   UNL A   1      -7.023  -8.207  19.597  0.00  0.00    +0.419 C 
ATOM      8  F   UNL A   1      -7.380  -7.297  20.240  0.00  0.00    -0.166 F 
ATOM      9  F   UNL A   1      -6.182  -9.024  20.249  0.00  0.00    -0.166 F 
ATOM     10  F   UNL A   1      -6.379  -7.679  18.498  0.00  0.00    -0.166 F 
ENDBRANCH   3   7
TORSDOF 1
ENDMDL
ENDMDL
