MODEL 2698
MODEL 1
REMARK VINA RESULT:    -7.627      0.000      0.000
REMARK INTER + INTRA:         -11.166
REMARK INTER:                  -9.857
REMARK INTRA:                  -1.309
REMARK UNBOUND:                -1.309
REMARK  Name = No_2698-gen_results/8p0m/2024-11-26-14-13-15/
REMARK  5 active torsions:
REMARK  status: ('A' for Active; 'I' for Inactive)
REMARK    1  A    between atoms: C_1  and  C_2
REMARK    2  A    between atoms: C_1  and  N_8
REMARK    3  A    between atoms: C_3  and  C_23
REMARK    4  A    between atoms: C_5  and  C_12
REMARK    5  A    between atoms: C_11  and  C_14
REMARK                            x       y       z     vdW  Elec       q    Type
REMARK                         _______ _______ _______ _____ _____    ______ ____
ROOT
ATOM      1  N   UNL A   1     -24.532   0.436  27.751  0.00  0.00    -0.263 NA
ATOM      2  C   UNL A   1     -24.666   1.003  28.572  0.00  0.00    +0.101 C 
ATOM      3  C   UNL A   1     -24.800   1.298  29.587  0.00  0.00    +0.043 C 
ATOM      4  C   UNL A   1     -25.087   1.971  30.773  0.00  0.00    +0.208 C 
ATOM      5  F   UNL A   1     -26.345   2.082  30.574  0.00  0.00    -0.201 F 
ATOM      6  C   UNL A   1     -24.435  -1.090  27.989  0.00  0.00    +0.111 C 
ATOM      7  C   UNL A   1     -23.805  -1.491  29.159  0.00  0.00    +0.193 C 
ATOM      8  O   UNL A   1     -22.837  -2.106  28.908  0.00  0.00    -0.216 OA
ATOM      9  C   UNL A   1     -24.501  -0.146  30.508  0.00  0.00    +0.189 C 
ATOM     10  C   UNL A   1     -24.554  -2.729  29.343  0.00  0.00    +0.025 C 
ATOM     11  C   UNL A   1     -24.332  -0.668  31.722  0.00  0.00    +0.052 C 
ATOM     12  O   UNL A   1     -25.531  -0.844  30.448  0.00  0.00    -0.465 OA
ATOM     13  C   UNL A   1     -25.942  -1.912  30.698  0.00  0.00    +0.215 C 
ATOM     14  C   UNL A   1     -25.749  -2.879  30.002  0.00  0.00    -0.068 C 
ATOM     15  C   UNL A   1     -24.081  -3.944  28.691  0.00  0.00    +0.037 C 
ENDROOT
BRANCH   4  16
ATOM     16  C   UNL A   1     -25.145   2.559  31.816  0.00  0.00    +0.444 C 
ATOM     17  F   UNL A   1     -24.247   2.799  32.283  0.00  0.00    -0.164 F 
ATOM     18  F   UNL A   1     -25.919   3.669  31.579  0.00  0.00    -0.164 F 
ATOM     19  F   UNL A   1     -26.193   1.859  32.449  0.00  0.00    -0.164 F 
ENDBRANCH   4  16
BRANCH   1  20
ATOM     20  C   UNL A   1     -24.397   0.734  26.395  0.00  0.00    +0.100 C 
BRANCH  20  21
ATOM     21  C   UNL A   1     -25.398   0.972  25.760  0.00  0.00    -0.002 A 
ATOM     22  C   UNL A   1     -25.897   2.246  25.568  0.00  0.00    +0.052 A 
ATOM     23  C   UNL A   1     -27.132   2.576  24.882  0.00  0.00    +0.008 A 
ATOM     24  C   UNL A   1     -27.910   1.529  24.341  0.00  0.00    +0.050 A 
ATOM     25  C   UNL A   1     -27.408   0.195  24.547  0.00  0.00    +0.004 A 
ATOM     26  C   UNL A   1     -26.253  -0.097  25.233  0.00  0.00    -0.003 A 
BRANCH  22  27
ATOM     27  C   UNL A   1     -25.148   3.413  26.018  0.00  0.00    +0.265 C 
ATOM     28  O   UNL A   1     -24.171   3.824  25.540  0.00  0.00    -0.268 OA
ATOM     29  N   UNL A   1     -25.741   4.159  27.055  0.00  0.00    -0.200 NA
ATOM     30  C   UNL A   1     -25.214   5.384  27.548  0.00  0.00    +0.139 C 
ENDBRANCH  22  27
BRANCH  24  31
ATOM     31  C   UNL A   1     -29.124   1.757  23.609  0.00  0.00    +0.254 C 
ATOM     32 CL   UNL A   1     -30.033   3.051  23.966  0.00  0.00    -0.038 Cl
ATOM     33  O   UNL A   1     -29.777   0.651  23.235  0.00  0.00    -0.274 OA
ENDBRANCH  24  31
ENDBRANCH  20  21
ENDBRANCH   1  20
TORSDOF 5
ENDMDL
ENDMDL
