REMARK  Name = No_2698-gen_results/8p0m/2024-11-26-14-13-15/
REMARK  5 active torsions:
REMARK  status: ('A' for Active; 'I' for Inactive)
REMARK    1  A    between atoms: C_1  and  C_2
REMARK    2  A    between atoms: C_1  and  N_8
REMARK    3  A    between atoms: C_3  and  C_23
REMARK    4  A    between atoms: C_5  and  C_12
REMARK    5  A    between atoms: C_11  and  C_14
REMARK                            x       y       z     vdW  Elec       q    Type
REMARK                         _______ _______ _______ _____ _____    ______ ____
ROOT
ATOM      1  N   UNL A   1     -28.730  -0.530  30.043  0.00  0.00    -0.263 NA
ATOM      2  C   UNL A   1     -28.932   0.323  30.538  0.00  0.00    +0.101 C 
ATOM      3  C   UNL A   1     -29.304   1.006  31.266  0.00  0.00    +0.043 C 
ATOM      4  C   UNL A   1     -29.729   2.128  31.974  0.00  0.00    +0.208 C 
ATOM      5  F   UNL A   1     -30.694   2.433  31.194  0.00  0.00    -0.201 F 
ATOM      6  C   UNL A   1     -29.294  -1.828  30.669  0.00  0.00    +0.111 C 
ATOM      7  C   UNL A   1     -29.323  -1.879  32.056  0.00  0.00    +0.193 C 
ATOM      8  O   UNL A   1     -28.629  -2.743  32.444  0.00  0.00    -0.216 OA
ATOM      9  C   UNL A   1     -29.910  -0.001  32.546  0.00  0.00    +0.189 C 
ATOM     10  C   UNL A   1     -30.487  -2.751  32.172  0.00  0.00    +0.025 C 
ATOM     11  C   UNL A   1     -30.395  -0.041  33.787  0.00  0.00    +0.052 C 
ATOM     12  O   UNL A   1     -31.029  -0.419  32.191  0.00  0.00    -0.465 OA
ATOM     13  C   UNL A   1     -31.864  -1.189  32.478  0.00  0.00    +0.215 C 
ATOM     14  C   UNL A   1     -31.804  -2.365  32.216  0.00  0.00    -0.068 C 
ATOM     15  C   UNL A   1     -30.294  -4.195  32.139  0.00  0.00    +0.037 C 
ENDROOT
BRANCH   4  16
ATOM     16  C   UNL A   1     -29.937   3.068  32.688  0.00  0.00    +0.444 C 
ATOM     17  F   UNL A   1     -30.840   3.571  32.570  0.00  0.00    -0.164 F 
ATOM     18  F   UNL A   1     -29.761   2.611  33.972  0.00  0.00    -0.164 F 
ATOM     19  F   UNL A   1     -28.678   3.703  32.651  0.00  0.00    -0.164 F 
ENDBRANCH   4  16
BRANCH   1  20
ATOM     20  C   UNL A   1     -28.016  -0.814  28.878  0.00  0.00    +0.100 C 
BRANCH  20  21
ATOM     21  C   UNL A   1     -27.064  -0.119  28.608  0.00  0.00    -0.002 A 
ATOM     22  C   UNL A   1     -27.001   0.691  27.491  0.00  0.00    +0.052 A 
ATOM     23  C   UNL A   1     -25.855   1.482  27.083  0.00  0.00    +0.008 A 
ATOM     24  C   UNL A   1     -24.690   1.453  27.881  0.00  0.00    +0.050 A 
ATOM     25  C   UNL A   1     -24.738   0.601  29.042  0.00  0.00    +0.004 A 
ATOM     26  C   UNL A   1     -25.823  -0.169  29.389  0.00  0.00    -0.003 A 
BRANCH  22  27
ATOM     27  C   UNL A   1     -28.164   0.859  26.628  0.00  0.00    +0.265 C 
ATOM     28  O   UNL A   1     -28.263   0.479  25.534  0.00  0.00    -0.268 OA
ATOM     29  N   UNL A   1     -29.298   1.436  27.233  0.00  0.00    -0.200 NA
ATOM     30  C   UNL A   1     -30.553   1.578  26.582  0.00  0.00    +0.139 C 
ENDBRANCH  22  27
BRANCH  24  31
ATOM     31  C   UNL A   1     -23.522   2.233  27.585  0.00  0.00    +0.254 C 
ATOM     32 CL   UNL A   1     -22.870   2.151  26.103  0.00  0.00    -0.038 Cl
ATOM     33  O   UNL A   1     -22.671   2.391  28.606  0.00  0.00    -0.274 OA
ENDBRANCH  24  31
ENDBRANCH  20  21
ENDBRANCH   1  20
TORSDOF 5
