MODEL 2699
MODEL 1
REMARK VINA RESULT:    -6.605      0.000      0.000
REMARK INTER + INTRA:         -15.320
REMARK INTER:                 -11.238
REMARK INTRA:                  -4.082
REMARK UNBOUND:                -4.082
REMARK  Name = No_2699-gen_results/8p0m/2024-11-26-14-13-15/
REMARK  12 active torsions:
REMARK  status: ('A' for Active; 'I' for Inactive)
REMARK    1  A    between atoms: C_2  and  C_11
REMARK    2  A    between atoms: C_3  and  C_4
REMARK    3  A    between atoms: C_11  and  O_12
REMARK    4  A    between atoms: O_12  and  C_14
REMARK    5  A    between atoms: C_14  and  C_15
REMARK    6  A    between atoms: C_14  and  N_19
REMARK    7  A    between atoms: C_20  and  C_22
REMARK    8  A    between atoms: C_22  and  O_24
REMARK    9  A    between atoms: O_24  and  C_25
REMARK   10  A    between atoms: C_25  and  C_26
REMARK   11  A    between atoms: C_28  and  C_32
REMARK   12  A    between atoms: C_33  and  C_34
REMARK                            x       y       z     vdW  Elec       q    Type
REMARK                         _______ _______ _______ _____ _____    ______ ____
ROOT
ATOM      1  C   UNL A   1      -8.440   0.821  35.506  0.00  0.00    +0.362 C 
ENDROOT
BRANCH   1   2
ATOM      2  C   UNL A   1      -7.292   0.159  34.932  0.00  0.00    +0.456 C 
ATOM      3  F   UNL A   1      -6.430  -0.348  35.616  0.00  0.00    -0.165 F 
ATOM      4  F   UNL A   1      -6.655   1.122  34.129  0.00  0.00    -0.165 F 
ATOM      5  F   UNL A   1      -7.795  -0.752  34.019  0.00  0.00    -0.165 F 
ENDBRANCH   1   2
BRANCH   1   6
ATOM      6  N   UNL A   1      -9.676   0.664  34.855  0.00  0.00    -0.149 NA
ATOM      7  C   UNL A   1     -10.110   1.545  33.881  0.00  0.00    +0.344 C 
ATOM      8  O   UNL A   1      -9.484   2.516  33.706  0.00  0.00    -0.261 OA
BRANCH   7   9
ATOM      9  C   UNL A   1     -11.478   1.185  33.329  0.00  0.00    +0.398 C 
ATOM     10  O   UNL A   1     -11.576   0.837  32.246  0.00  0.00    -0.240 OA
BRANCH   9  11
ATOM     11  O   UNL A   1     -12.461   1.407  34.100  0.00  0.00    -0.437 OA
BRANCH  11  12
ATOM     12  C   UNL A   1     -12.800   2.631  34.555  0.00  0.00    +0.235 C 
BRANCH  12  13
ATOM     13  C   UNL A   1     -13.413   2.702  35.879  0.00  0.00    +0.021 A 
ATOM     14  C   UNL A   1     -12.781   2.421  36.916  0.00  0.00    -0.001 A 
ATOM     15  C   UNL A   1     -13.321   2.564  38.249  0.00  0.00    -0.000 A 
ATOM     16  C   UNL A   1     -14.634   3.070  38.349  0.00  0.00    -0.000 A 
ATOM     17  C   UNL A   1     -15.333   3.480  37.206  0.00  0.00    -0.000 A 
ATOM     18  C   UNL A   1     -14.792   3.345  35.959  0.00  0.00    -0.001 A 
BRANCH  15  19
ATOM     19  C   UNL A   1     -12.613   2.183  39.410  0.00  0.00    -0.000 C 
ATOM     20  C   UNL A   1     -13.146   1.599  40.281  0.00  0.00    -0.000 C 
BRANCH  20  21
ATOM     21  C   UNL A   1     -12.529   1.171  41.516  0.00  0.00    -0.000 C 
ATOM     22  C   UNL A   1     -13.171   0.092  42.105  0.00  0.00    +0.000 C 
ENDBRANCH  20  21
ENDBRANCH  15  19
ENDBRANCH  12  13
ENDBRANCH  11  12
ENDBRANCH   9  11
ENDBRANCH   7   9
ENDBRANCH   1   6
BRANCH   1  23
ATOM     23  O   UNL A   1      -8.603   0.380  36.903  0.00  0.00    -0.420 OA
BRANCH  23  24
ATOM     24  C   UNL A   1      -9.311   0.890  37.646  0.00  0.00    +0.343 C 
ATOM     25  O   UNL A   1      -9.439   2.125  37.828  0.00  0.00    -0.245 OA
BRANCH  24  27
ATOM     26  C   UNL A   1      -9.621  -0.471  39.436  0.00  0.00    +0.010 A 
ATOM     27  C   UNL A   1     -10.055  -0.211  38.512  0.00  0.00    +0.076 A 
ATOM     28  C   UNL A   1     -10.374  -1.508  40.239  0.00  0.00    +0.072 A 
ATOM     29  C   UNL A   1     -11.145  -0.817  37.736  0.00  0.00    +0.006 A 
ATOM     30  C   UNL A   1     -11.864  -1.793  38.393  0.00  0.00    +0.000 A 
ATOM     31  C   UNL A   1     -11.493  -2.199  39.649  0.00  0.00    +0.004 A 
BRANCH  28  32
ATOM     32  C   UNL A   1     -10.075  -1.927  41.585  0.00  0.00    +0.419 C 
ATOM     33  F   UNL A   1     -10.116  -1.091  42.398  0.00  0.00    -0.166 F 
ATOM     34  F   UNL A   1      -8.810  -2.570  41.662  0.00  0.00    -0.166 F 
ATOM     35  F   UNL A   1     -10.929  -3.007  41.977  0.00  0.00    -0.166 F 
ENDBRANCH  28  32
ENDBRANCH  24  27
ENDBRANCH  23  24
ENDBRANCH   1  23
TORSDOF 12
ENDMDL
ENDMDL
