REMARK  Name = No_2699-gen_results/8p0m/2024-11-26-14-13-15/
REMARK  12 active torsions:
REMARK  status: ('A' for Active; 'I' for Inactive)
REMARK    1  A    between atoms: C_2  and  C_11
REMARK    2  A    between atoms: C_3  and  C_4
REMARK    3  A    between atoms: C_11  and  O_12
REMARK    4  A    between atoms: O_12  and  C_14
REMARK    5  A    between atoms: C_14  and  C_15
REMARK    6  A    between atoms: C_14  and  N_19
REMARK    7  A    between atoms: C_20  and  C_22
REMARK    8  A    between atoms: C_22  and  O_24
REMARK    9  A    between atoms: O_24  and  C_25
REMARK   10  A    between atoms: C_25  and  C_26
REMARK   11  A    between atoms: C_28  and  C_32
REMARK   12  A    between atoms: C_33  and  C_34
REMARK                            x       y       z     vdW  Elec       q    Type
REMARK                         _______ _______ _______ _____ _____    ______ ____
ROOT
ATOM      1  C   UNL A   1     -31.822  -0.481  28.420  0.00  0.00    +0.362 C 
ENDROOT
BRANCH   1   2
ATOM      2  C   UNL A   1     -32.271   0.712  27.742  0.00  0.00    +0.456 C 
ATOM      3  F   UNL A   1     -31.824   1.809  28.000  0.00  0.00    -0.165 F 
ATOM      4  F   UNL A   1     -33.659   0.780  27.964  0.00  0.00    -0.165 F 
ATOM      5  F   UNL A   1     -32.166   0.444  26.388  0.00  0.00    -0.165 F 
ENDBRANCH   1   2
BRANCH   1   6
ATOM      6  N   UNL A   1     -31.794  -1.678  27.683  0.00  0.00    -0.149 NA
ATOM      7  C   UNL A   1     -32.261  -2.871  28.204  0.00  0.00    +0.344 C 
ATOM      8  O   UNL A   1     -32.554  -2.895  29.335  0.00  0.00    -0.261 OA
BRANCH   7   9
ATOM      9  C   UNL A   1     -32.118  -4.032  27.235  0.00  0.00    +0.398 C 
ATOM     10  O   UNL A   1     -32.378  -3.883  26.134  0.00  0.00    -0.240 OA
BRANCH   9  11
ATOM     11  O   UNL A   1     -31.814  -5.150  27.753  0.00  0.00    -0.437 OA
BRANCH  11  12
ATOM     12  C   UNL A   1     -31.205  -5.284  28.950  0.00  0.00    +0.235 C 
BRANCH  12  13
ATOM     13  C   UNL A   1     -31.731  -6.305  29.852  0.00  0.00    +0.021 A 
ATOM     14  C   UNL A   1     -32.379  -7.285  29.436  0.00  0.00    -0.001 A 
ATOM     15  C   UNL A   1     -32.839  -8.362  30.282  0.00  0.00    -0.000 A 
ATOM     16  C   UNL A   1     -32.504  -8.280  31.650  0.00  0.00    -0.000 A 
ATOM     17  C   UNL A   1     -31.698  -7.238  32.129  0.00  0.00    -0.000 A 
ATOM     18  C   UNL A   1     -31.267  -6.240  31.302  0.00  0.00    -0.001 A 
BRANCH  15  19
ATOM     19  C   UNL A   1     -33.625  -9.434  29.803  0.00  0.00    -0.000 C 
ATOM     20  C   UNL A   1     -33.771  -9.610  28.649  0.00  0.00    -0.000 C 
BRANCH  20  21
ATOM     21  C   UNL A   1     -34.560 -10.660  28.046  0.00  0.00    -0.000 C 
ATOM     22  C   UNL A   1     -35.110 -11.534  28.973  0.00  0.00    +0.000 C 
ENDBRANCH  20  21
ENDBRANCH  15  19
ENDBRANCH  12  13
ENDBRANCH  11  12
ENDBRANCH   9  11
ENDBRANCH   7   9
ENDBRANCH   1   6
BRANCH   1  23
ATOM     23  O   UNL A   1     -30.470  -0.249  28.960  0.00  0.00    -0.420 OA
BRANCH  23  24
ATOM     24  C   UNL A   1     -30.054  -0.798  29.876  0.00  0.00    +0.343 C 
ATOM     25  O   UNL A   1     -30.720  -1.276  30.826  0.00  0.00    -0.245 OA
BRANCH  24  27
ATOM     26  C   UNL A   1     -28.016  -0.814  28.878  0.00  0.00    +0.010 A 
ATOM     27  C   UNL A   1     -28.469  -0.785  29.829  0.00  0.00    +0.076 A 
ATOM     28  C   UNL A   1     -26.504  -0.778  28.877  0.00  0.00    +0.072 A 
ATOM     29  C   UNL A   1     -27.918  -0.937  31.182  0.00  0.00    +0.006 A 
ATOM     30  C   UNL A   1     -26.542  -0.940  31.261  0.00  0.00    +0.000 A 
ATOM     31  C   UNL A   1     -25.783  -0.893  30.120  0.00  0.00    +0.004 A 
BRANCH  28  32
ATOM     32  C   UNL A   1     -25.654  -0.660  27.719  0.00  0.00    +0.419 C 
ATOM     33  F   UNL A   1     -26.149  -0.922  26.696  0.00  0.00    -0.166 F 
ATOM     34  F   UNL A   1     -24.471  -1.436  27.861  0.00  0.00    -0.166 F 
ATOM     35  F   UNL A   1     -25.085   0.652  27.645  0.00  0.00    -0.166 F 
ENDBRANCH  28  32
ENDBRANCH  24  27
ENDBRANCH  23  24
ENDBRANCH   1  23
TORSDOF 12
