MODEL 269
MODEL 1
REMARK VINA RESULT:    -6.788      0.000      0.000
REMARK INTER + INTRA:         -11.184
REMARK INTER:                  -9.566
REMARK INTRA:                  -1.618
REMARK UNBOUND:                -1.618
REMARK  Name = No_269-gen_results/8p0m/2024-11-26-14-13-15/
REMARK  7 active torsions:
REMARK  status: ('A' for Active; 'I' for Inactive)
REMARK    1  A    between atoms: C_1  and  C_2
REMARK    2  A    between atoms: C_5  and  C_9
REMARK    3  A    between atoms: N_8  and  C_14
REMARK    4  A    between atoms: C_14  and  C_15
REMARK    5  A    between atoms: C_15  and  O_16
REMARK    6  A    between atoms: O_16  and  C_17
REMARK    7  A    between atoms: C_17  and  C_18
REMARK                            x       y       z     vdW  Elec       q    Type
REMARK                         _______ _______ _______ _____ _____    ______ ____
ROOT
ATOM      1  C   UNL A   1     -25.050   2.093  26.038  0.00  0.00    +0.265 C 
ATOM      2  N   UNL A   1     -23.848   1.394  26.088  0.00  0.00    -0.199 NA
ATOM      3  O   UNL A   1     -24.974   3.250  26.252  0.00  0.00    -0.268 OA
ENDROOT
BRANCH   1   4
ATOM      4  C   UNL A   1     -25.985   1.469  25.592  0.00  0.00    +0.055 A 
ATOM      5  C   UNL A   1     -25.887   0.171  25.129  0.00  0.00    +0.004 A 
ATOM      6  C   UNL A   1     -26.958  -0.592  24.515  0.00  0.00    +0.004 A 
ATOM      7  C   UNL A   1     -27.907  -0.126  24.271  0.00  0.00    +0.071 A 
ATOM      8  C   UNL A   1     -28.287   1.272  24.650  0.00  0.00    +0.004 A 
ATOM      9  C   UNL A   1     -27.281   2.057  25.265  0.00  0.00    +0.004 A 
BRANCH   7  10
ATOM     10  C   UNL A   1     -29.185  -0.801  23.653  0.00  0.00    +0.419 C 
ATOM     11  F   UNL A   1     -28.916  -1.691  22.875  0.00  0.00    -0.166 F 
ATOM     12  F   UNL A   1     -30.087  -1.261  24.554  0.00  0.00    -0.166 F 
ATOM     13  F   UNL A   1     -29.946   0.085  22.887  0.00  0.00    -0.166 F 
ENDBRANCH   7  10
ENDBRANCH   1   4
BRANCH   2  14
ATOM     14  C   UNL A   1     -22.528   2.012  26.570  0.00  0.00    +0.147 C 
BRANCH  14  15
ATOM     15  C   UNL A   1     -22.117   1.503  27.798  0.00  0.00    +0.166 C 
BRANCH  15  16
ATOM     16  O   UNL A   1     -23.038   1.319  28.647  0.00  0.00    -0.353 OA
BRANCH  16  17
ATOM     17  C   UNL A   1     -23.097   0.021  29.168  0.00  0.00    +0.112 C 
ATOM     18  C   UNL A   1     -23.260   0.401  30.710  0.00  0.00    +0.034 C 
ATOM     19  C   UNL A   1     -21.699  -0.561  29.242  0.00  0.00    +0.034 C 
BRANCH  17  20
ATOM     20  C   UNL A   1     -23.941  -0.850  28.760  0.00  0.00    +0.002 A 
ATOM     21  C   UNL A   1     -25.035  -0.747  28.696  0.00  0.00    -0.002 A 
ATOM     22  C   UNL A   1     -25.979  -1.686  29.258  0.00  0.00    -0.000 A 
ATOM     23  C   UNL A   1     -25.568  -3.083  29.326  0.00  0.00    -0.000 A 
ATOM     24  C   UNL A   1     -24.165  -3.278  29.229  0.00  0.00    -0.000 A 
ATOM     25  C   UNL A   1     -23.340  -2.218  29.068  0.00  0.00    -0.002 A 
ENDBRANCH  17  20
ENDBRANCH  16  17
ENDBRANCH  15  16
ENDBRANCH  14  15
ENDBRANCH   2  14
TORSDOF 7
ENDMDL
ENDMDL
