MODEL 26
MODEL 1
REMARK VINA RESULT:    -5.467      0.000      0.000
REMARK INTER + INTRA:          -7.216
REMARK INTER:                  -6.746
REMARK INTRA:                  -0.470
REMARK UNBOUND:                -0.470
REMARK  Name = No_26-gen_results/8p0m/2024-11-26-14-13-15/
REMARK  4 active torsions:
REMARK  status: ('A' for Active; 'I' for Inactive)
REMARK    1  A    between atoms: C_4  and  C_7
REMARK    2  A    between atoms: C_7  and  C_8
REMARK    3  A    between atoms: C_9  and  C_10
REMARK    4  A    between atoms: C_11  and  C_13
REMARK                            x       y       z     vdW  Elec       q    Type
REMARK                         _______ _______ _______ _____ _____    ______ ____
ROOT
ATOM      1  C   UNL A   1      -4.484  -0.498  35.134  0.00  0.00    +0.042 A 
ATOM      2  C   UNL A   1      -4.537  -1.493  34.791  0.00  0.00    +0.003 A 
ATOM      3  C   UNL A   1      -5.757   0.233  35.235  0.00  0.00    +0.192 A 
ATOM      4  C   UNL A   1      -6.996  -0.435  35.011  0.00  0.00    +0.021 A 
ATOM      5  C   UNL A   1      -6.910  -1.750  34.628  0.00  0.00    -0.001 A 
ATOM      6  C   UNL A   1      -5.713  -2.365  34.527  0.00  0.00    -0.000 A 
ATOM      7  O   UNL A   1      -5.852   1.549  35.606  0.00  0.00    -0.287 OA
ENDROOT
BRANCH   4   8
ATOM      8  C   UNL A   1      -8.253   0.260  35.122  0.00  0.00    +0.056 C 
BRANCH   8   9
ATOM      9  C   UNL A   1      -8.851   0.226  36.399  0.00  0.00    -0.021 C 
ATOM     10  C   UNL A   1      -9.943  -0.463  36.701  0.00  0.00    -0.004 C 
BRANCH  10  11
ATOM     11  C   UNL A   1     -10.464  -1.168  37.477  0.00  0.00    -0.000 C 
ATOM     12  C   UNL A   1     -10.676  -0.970  38.906  0.00  0.00    -0.000 C 
BRANCH  12  13
ATOM     13  C   UNL A   1     -11.567  -1.803  39.526  0.00  0.00    -0.000 C 
ATOM     14  C   UNL A   1     -12.355  -2.768  38.733  0.00  0.00    -0.000 C 
ENDBRANCH  12  13
ENDBRANCH  10  11
ENDBRANCH   8   9
ENDBRANCH   4   8
TORSDOF 4
ENDMDL
ENDMDL
