REMARK  Name = No_27-gen_results/8p0m/2024-11-26-14-13-15/
REMARK  5 active torsions:
REMARK  status: ('A' for Active; 'I' for Inactive)
REMARK    1  A    between atoms: C_3  and  C_9
REMARK    2  A    between atoms: C_11  and  C_15
REMARK    3  A    between atoms: C_15  and  N_16
REMARK    4  A    between atoms: N_16  and  N_17
REMARK    5  A    between atoms: C_18  and  C_19
REMARK                            x       y       z     vdW  Elec       q    Type
REMARK                         _______ _______ _______ _____ _____    ______ ____
ROOT
ATOM      1  C   UNL A   1     -26.164   0.803  29.950  0.00  0.00    +0.001 A 
ATOM      2  C   UNL A   1     -25.576   1.010  28.895  0.00  0.00    -0.003 A 
ATOM      3  C   UNL A   1     -24.136   0.957  28.674  0.00  0.00    +0.001 A 
ATOM      4  C   UNL A   1     -23.308   0.640  29.775  0.00  0.00    -0.003 A 
ATOM      5  C   UNL A   1     -23.944   0.323  30.990  0.00  0.00    -0.000 A 
ATOM      6  C   UNL A   1     -25.348   0.394  31.162  0.00  0.00    +0.000 A 
ENDROOT
BRANCH   1   9
ATOM      7 CL   UNL A   1     -28.149  -0.820  28.908  0.00  0.00    -0.082 Cl
ATOM      8  C   UNL A   1     -28.532  -0.047  29.773  0.00  0.00    +0.060 A 
ATOM      9  C   UNL A   1     -27.602   0.785  30.319  0.00  0.00    +0.011 A 
ATOM     10  C   UNL A   1     -27.926   1.809  31.369  0.00  0.00    +0.003 A 
ATOM     11  C   UNL A   1     -29.282   1.830  31.744  0.00  0.00    +0.030 A 
ATOM     12  C   UNL A   1     -30.164   1.002  31.242  0.00  0.00    +0.141 A 
ATOM     13  C   UNL A   1     -29.816   0.049  30.295  0.00  0.00    +0.041 A 
ATOM     14  F   UNL A   1     -31.423   1.017  31.669  0.00  0.00    -0.204 F 
ENDBRANCH   1   9
BRANCH   3  15
ATOM     15  C   UNL A   1     -23.443   1.234  27.437  0.00  0.00    +0.162 C 
BRANCH  15  16
ATOM     16  N   UNL A   1     -23.247   2.312  27.064  0.00  0.00    -0.139 NA
BRANCH  16  17
ATOM     17  N   UNL A   1     -23.797   3.336  27.724  0.00  0.00    -0.162 NA
ATOM     18  C   UNL A   1     -24.434   4.364  26.867  0.00  0.00    +0.119 C 
BRANCH  18  19
ATOM     19  C   UNL A   1     -25.010   5.474  27.531  0.00  0.00    +0.021 A 
ATOM     20  C   UNL A   1     -25.671   5.420  28.592  0.00  0.00    +0.002 A 
ATOM     21  C   UNL A   1     -26.192   6.603  29.251  0.00  0.00    +0.000 A 
ATOM     22  C   UNL A   1     -26.054   7.781  28.560  0.00  0.00    +0.000 A 
ATOM     23  C   UNL A   1     -24.859   6.805  26.913  0.00  0.00    +0.002 A 
ATOM     24  C   UNL A   1     -25.349   7.934  27.445  0.00  0.00    +0.000 A 
ENDBRANCH  18  19
ENDBRANCH  16  17
ENDBRANCH  15  16
ENDBRANCH   3  15
TORSDOF 5
