REMARK  Name = No_2700-gen_results/8p0m/2024-11-26-14-13-15/
REMARK  8 active torsions:
REMARK  status: ('A' for Active; 'I' for Inactive)
REMARK    1  A    between atoms: C_2  and  O_7
REMARK    2  A    between atoms: C_3  and  O_24
REMARK    3  A    between atoms: C_4  and  C_15
REMARK    4  A    between atoms: O_7  and  C_8
REMARK    5  A    between atoms: C_8  and  C_9
REMARK    6  A    between atoms: C_15  and  C_16
REMARK    7  A    between atoms: C_16  and  C_17
REMARK    8  A    between atoms: O_24  and  C_25
REMARK                            x       y       z     vdW  Elec       q    Type
REMARK                         _______ _______ _______ _____ _____    ______ ____
ROOT
ATOM      1  C   UNL A   1     -28.016  -0.814  28.878  0.00  0.00    +0.074 A 
ATOM      2  C   UNL A   1     -28.469  -0.785  29.829  0.00  0.00    +0.142 A 
ATOM      3  C   UNL A   1     -26.546  -0.876  28.850  0.00  0.00    +0.144 A 
ATOM      4  C   UNL A   1     -25.804  -1.032  30.057  0.00  0.00    +0.013 A 
ATOM      5  C   UNL A   1     -27.944  -0.987  31.207  0.00  0.00    +0.037 A 
ATOM      6  C   UNL A   1     -26.582  -1.039  31.223  0.00  0.00    +0.002 A 
ENDROOT
BRANCH   2   7
ATOM      7  O   UNL A   1     -29.927  -0.726  29.877  0.00  0.00    -0.470 OA
BRANCH   7   8
ATOM      8  C   UNL A   1     -30.526   0.422  30.241  0.00  0.00    +0.232 C 
BRANCH   8   9
ATOM      9  C   UNL A   1     -31.452   0.831  29.559  0.00  0.00    +0.021 A 
ATOM     10  C   UNL A   1     -31.983   0.114  28.423  0.00  0.00    -0.001 A 
ATOM     11  C   UNL A   1     -32.980   0.615  27.537  0.00  0.00    -0.000 A 
ATOM     12  C   UNL A   1     -33.495   1.889  27.880  0.00  0.00    -0.000 A 
ATOM     13  C   UNL A   1     -33.081   2.626  28.908  0.00  0.00    -0.000 A 
ATOM     14  C   UNL A   1     -32.048   2.154  29.740  0.00  0.00    -0.001 A 
ENDBRANCH   8   9
ENDBRANCH   7   8
ENDBRANCH   2   7
BRANCH   4  15
ATOM     15  C   UNL A   1     -24.368  -1.141  30.064  0.00  0.00    +0.034 C 
BRANCH  15  16
ATOM     16  C   UNL A   1     -23.699   0.058  29.843  0.00  0.00    +0.027 C 
ATOM     17  C   UNL A   1     -22.162  -0.253  29.646  0.00  0.00    +0.005 C 
BRANCH  16  18
ATOM     18  C   UNL A   1     -23.825   1.149  30.565  0.00  0.00    -0.022 A 
ATOM     19  C   UNL A   1     -23.282   2.400  30.188  0.00  0.00    -0.004 A 
ATOM     20  C   UNL A   1     -23.981   3.472  30.482  0.00  0.00    -0.000 A 
ATOM     21  C   UNL A   1     -24.981   3.461  31.568  0.00  0.00    -0.000 A 
ATOM     22  C   UNL A   1     -25.417   2.244  32.028  0.00  0.00    -0.000 A 
ATOM     23  C   UNL A   1     -24.917   1.125  31.517  0.00  0.00    -0.004 A 
ENDBRANCH  16  18
ENDBRANCH  15  16
ENDBRANCH   4  15
BRANCH   3  24
ATOM     24  O   UNL A   1     -25.823  -0.795  27.711  0.00  0.00    -0.454 OA
BRANCH  24  25
ATOM     25  C   UNL A   1     -26.055   0.171  26.799  0.00  0.00    +0.145 A 
ATOM     26  C   UNL A   1     -25.221   0.230  25.748  0.00  0.00    +0.037 A 
ATOM     27  C   UNL A   1     -26.920   1.255  26.951  0.00  0.00    +0.037 A 
ATOM     28  C   UNL A   1     -27.088   2.225  26.038  0.00  0.00    +0.003 A 
ATOM     29  C   UNL A   1     -25.309   1.176  24.717  0.00  0.00    +0.003 A 
ATOM     30  C   UNL A   1     -26.244   2.188  24.892  0.00  0.00    +0.000 A 
ENDBRANCH  24  25
ENDBRANCH   3  24
TORSDOF 8
