MODEL 2700
MODEL 1
REMARK VINA RESULT:    -7.975      0.000      0.000
REMARK INTER + INTRA:         -14.278
REMARK INTER:                 -11.705
REMARK INTRA:                  -2.573
REMARK UNBOUND:                -2.573
REMARK  Name = No_2700-gen_results/8p0m/2024-11-26-14-13-15/
REMARK  8 active torsions:
REMARK  status: ('A' for Active; 'I' for Inactive)
REMARK    1  A    between atoms: C_2  and  O_7
REMARK    2  A    between atoms: C_3  and  O_24
REMARK    3  A    between atoms: C_4  and  C_15
REMARK    4  A    between atoms: O_7  and  C_8
REMARK    5  A    between atoms: C_8  and  C_9
REMARK    6  A    between atoms: C_15  and  C_16
REMARK    7  A    between atoms: C_16  and  C_17
REMARK    8  A    between atoms: O_24  and  C_25
REMARK                            x       y       z     vdW  Elec       q    Type
REMARK                         _______ _______ _______ _____ _____    ______ ____
ROOT
ATOM      1  C   UNL A   1     -24.757  -0.366  26.756  0.00  0.00    +0.074 A 
ATOM      2  C   UNL A   1     -25.022   0.572  26.357  0.00  0.00    +0.142 A 
ATOM      3  C   UNL A   1     -24.158  -0.365  28.100  0.00  0.00    +0.144 A 
ATOM      4  C   UNL A   1     -24.081   0.839  28.859  0.00  0.00    +0.013 A 
ATOM      5  C   UNL A   1     -25.098   1.938  26.945  0.00  0.00    +0.037 A 
ATOM      6  C   UNL A   1     -24.542   1.981  28.188  0.00  0.00    +0.002 A 
ENDROOT
BRANCH   2   7
ATOM      7  O   UNL A   1     -25.620   0.591  25.025  0.00  0.00    -0.470 OA
BRANCH   7   8
ATOM      8  C   UNL A   1     -26.655  -0.226  24.759  0.00  0.00    +0.232 C 
BRANCH   8   9
ATOM      9  C   UNL A   1     -27.697   0.272  24.365  0.00  0.00    +0.021 A 
ATOM     10  C   UNL A   1     -28.859  -0.501  23.991  0.00  0.00    -0.001 A 
ATOM     11  C   UNL A   1     -30.046   0.039  23.417  0.00  0.00    -0.000 A 
ATOM     12  C   UNL A   1     -30.054   1.449  23.284  0.00  0.00    -0.000 A 
ATOM     13  C   UNL A   1     -29.042   2.251  23.606  0.00  0.00    -0.000 A 
ATOM     14  C   UNL A   1     -27.846   1.704  24.110  0.00  0.00    -0.001 A 
ENDBRANCH   8   9
ENDBRANCH   7   8
ENDBRANCH   2   7
BRANCH   4  15
ATOM     15  C   UNL A   1     -23.542   0.870  30.194  0.00  0.00    +0.034 C 
BRANCH  15  16
ATOM     16  C   UNL A   1     -24.501   0.900  31.201  0.00  0.00    +0.027 C 
ATOM     17  C   UNL A   1     -24.517   2.347  31.836  0.00  0.00    +0.005 C 
BRANCH  16  18
ATOM     18  C   UNL A   1     -24.631   0.011  32.160  0.00  0.00    -0.022 A 
ATOM     19  C   UNL A   1     -23.714  -1.045  32.374  0.00  0.00    -0.004 A 
ATOM     20  C   UNL A   1     -23.476  -1.391  33.618  0.00  0.00    -0.000 A 
ATOM     21  C   UNL A   1     -24.444  -1.099  34.694  0.00  0.00    -0.000 A 
ATOM     22  C   UNL A   1     -25.419  -0.166  34.445  0.00  0.00    -0.000 A 
ATOM     23  C   UNL A   1     -25.487   0.419  33.255  0.00  0.00    -0.004 A 
ENDBRANCH  16  18
ENDBRANCH  15  16
ENDBRANCH   4  15
BRANCH   3  24
ATOM     24  O   UNL A   1     -23.658  -1.474  28.689  0.00  0.00    -0.454 OA
BRANCH  24  25
ATOM     25  C   UNL A   1     -24.460  -2.490  29.068  0.00  0.00    +0.145 A 
ATOM     26  C   UNL A   1     -24.083  -3.729  28.714  0.00  0.00    +0.037 A 
ATOM     27  C   UNL A   1     -25.752  -2.371  29.581  0.00  0.00    +0.037 A 
ATOM     28  C   UNL A   1     -26.540  -3.410  29.902  0.00  0.00    +0.003 A 
ATOM     29  C   UNL A   1     -24.803  -4.895  29.013  0.00  0.00    +0.003 A 
ATOM     30  C   UNL A   1     -26.051  -4.711  29.594  0.00  0.00    +0.000 A 
ENDBRANCH  24  25
ENDBRANCH   3  24
TORSDOF 8
ENDMDL
ENDMDL
