MODEL 2701
MODEL 1
REMARK VINA RESULT:    -6.557      0.000      0.000
REMARK INTER + INTRA:          -7.257
REMARK INTER:                  -6.941
REMARK INTRA:                  -0.316
REMARK UNBOUND:                -0.316
REMARK  Name = No_2701-gen_results/8p0m/2024-11-26-14-13-15/
REMARK  1 active torsions:
REMARK  status: ('A' for Active; 'I' for Inactive)
REMARK    1  A    between atoms: C_3  and  C_8
REMARK                            x       y       z     vdW  Elec       q    Type
REMARK                         _______ _______ _______ _____ _____    ______ ____
ROOT
ATOM      1  C   UNL A   1     -23.592   0.673  27.533  0.00  0.00    +0.011 A 
ATOM      2  C   UNL A   1     -24.312  -0.277  27.739  0.00  0.00    +0.001 A 
ATOM      3  C   UNL A   1     -23.961  -1.347  28.561  0.00  0.00    +0.000 A 
ATOM      4  C   UNL A   1     -22.643  -1.371  29.165  0.00  0.00    +0.001 A 
ATOM      5  C   UNL A   1     -21.855  -0.234  28.873  0.00  0.00    +0.011 A 
ATOM      6  C   UNL A   1     -22.270   0.722  28.082  0.00  0.00    +0.058 A 
ATOM      7 CL   UNL A   1     -21.178   1.998  27.761  0.00  0.00    -0.082 Cl
ENDROOT
BRANCH   3   8
ATOM      8  C   UNL A   1     -24.811  -2.550  28.874  0.00  0.00    +0.000 A 
ATOM      9  C   UNL A   1     -25.976  -2.410  29.498  0.00  0.00    +0.000 A 
ATOM     10  C   UNL A   1     -26.675  -3.520  29.946  0.00  0.00    +0.000 A 
ATOM     11  C   UNL A   1     -26.253  -4.834  29.741  0.00  0.00    +0.000 A 
ATOM     12  C   UNL A   1     -24.297  -3.891  28.725  0.00  0.00    +0.000 A 
ATOM     13  C   UNL A   1     -25.039  -5.021  29.121  0.00  0.00    +0.000 A 
ENDBRANCH   3   8
TORSDOF 1
ENDMDL
ENDMDL
