MODEL 2702
MODEL 1
REMARK VINA RESULT:    -5.527      0.000      0.000
REMARK INTER + INTRA:          -5.995
REMARK INTER:                  -5.851
REMARK INTRA:                  -0.144
REMARK UNBOUND:                -0.144
REMARK  Name = No_2702-gen_results/8p0m/2024-11-26-14-13-15/
REMARK  1 active torsions:
REMARK  status: ('A' for Active; 'I' for Inactive)
REMARK    1  A    between atoms: C_3  and  C_12
REMARK                            x       y       z     vdW  Elec       q    Type
REMARK                         _______ _______ _______ _____ _____    ______ ____
ROOT
ATOM      1  O   UNL A   1     -23.201  -1.155  31.195  0.00  0.00    -0.273 OA
ATOM      2  C   UNL A   1     -23.565  -1.018  30.110  0.00  0.00    +0.251 C 
ATOM      3  C   UNL A   1     -24.343  -1.350  29.432  0.00  0.00    +0.105 C 
ATOM      4  N   UNL A   1     -22.883   0.156  29.535  0.00  0.00    -0.160 NA
ATOM      5  C   UNL A   1     -23.198   0.602  28.212  0.00  0.00    +0.154 A 
ATOM      6  C   UNL A   1     -24.206  -0.025  27.540  0.00  0.00    +0.031 A 
ATOM      7  C   UNL A   1     -24.801  -0.769  27.997  0.00  0.00    +0.044 C 
ATOM      8  N   UNL A   1     -22.448   1.654  27.732  0.00  0.00    -0.207 NA
ATOM      9  C   UNL A   1     -22.881   2.089  26.448  0.00  0.00    +0.200 A 
ATOM     10  N   UNL A   1     -23.848   1.634  25.768  0.00  0.00    -0.223 NA
ATOM     11  C   UNL A   1     -24.455   0.669  26.200  0.00  0.00    +0.099 A 
ENDROOT
BRANCH   3  12
ATOM     12  C   UNL A   1     -25.270  -2.543  29.940  0.00  0.00    -0.021 C 
ATOM     13  C   UNL A   1     -25.281  -3.629  29.403  0.00  0.00    -0.030 C 
ATOM     14  C   UNL A   1     -24.121  -4.145  28.625  0.00  0.00    +0.030 C 
ENDBRANCH   3  12
TORSDOF 1
ENDMDL
ENDMDL
