REMARK  Name = No_2703-gen_results/8p0m/2024-11-26-14-13-15/
REMARK  1 active torsions:
REMARK  status: ('A' for Active; 'I' for Inactive)
REMARK    1  A    between atoms: C_13  and  C_16
REMARK                            x       y       z     vdW  Elec       q    Type
REMARK                         _______ _______ _______ _____ _____    ______ ____
ROOT
ATOM      1  O   UNL A   1     -28.123  -1.335  28.487  0.00  0.00    -0.265 OA
ATOM      2  C   UNL A   1     -27.064  -0.824  28.869  0.00  0.00    +0.279 A 
ATOM      3  C   UNL A   1     -25.946  -1.040  28.849  0.00  0.00    +0.058 A 
ATOM      4  C   UNL A   1     -25.352  -2.252  28.547  0.00  0.00    +0.005 A 
ATOM      5  N   UNL A   1     -27.257   0.621  29.484  0.00  0.00    -0.208 NA
ATOM      6  C   UNL A   1     -26.262   1.394  29.837  0.00  0.00    +0.085 A 
ATOM      7  C   UNL A   1     -24.955   0.904  29.815  0.00  0.00    +0.018 A 
ATOM      8  C   UNL A   1     -24.676  -0.288  29.392  0.00  0.00    +0.006 A 
ATOM      9  C   UNL A   1     -24.045  -2.783  28.933  0.00  0.00    +0.000 A 
ATOM     10  C   UNL A   1     -23.023  -1.990  29.317  0.00  0.00    +0.000 A 
ATOM     11  C   UNL A   1     -23.316  -0.760  29.593  0.00  0.00    +0.000 A 
ATOM     12  C   UNL A   1     -26.631   2.727  30.388  0.00  0.00    +0.026 A 
ATOM     13  C   UNL A   1     -25.634   3.543  30.779  0.00  0.00    +0.081 A 
ATOM     14  C   UNL A   1     -24.274   2.975  30.911  0.00  0.00    +0.007 A 
ATOM     15  C   UNL A   1     -24.000   1.817  30.404  0.00  0.00    +0.002 A 
ENDROOT
BRANCH  13  16
ATOM     16  C   UNL A   1     -25.828   4.881  31.426  0.00  0.00    +0.388 C 
ATOM     17  O   UNL A   1     -25.228   5.793  30.858  0.00  0.00    -0.241 OA
ATOM     18  O   UNL A   1     -26.312   4.945  32.605  0.00  0.00    -0.241 OA
ENDBRANCH  13  16
TORSDOF 1
