MODEL 2703
MODEL 1
REMARK VINA RESULT:    -7.225      0.000      0.000
REMARK INTER + INTRA:          -7.731
REMARK INTER:                  -7.647
REMARK INTRA:                  -0.084
REMARK UNBOUND:                -0.084
REMARK  Name = No_2703-gen_results/8p0m/2024-11-26-14-13-15/
REMARK  1 active torsions:
REMARK  status: ('A' for Active; 'I' for Inactive)
REMARK    1  A    between atoms: C_13  and  C_16
REMARK                            x       y       z     vdW  Elec       q    Type
REMARK                         _______ _______ _______ _____ _____    ______ ____
ROOT
ATOM      1  O   UNL A   1     -32.277  -8.443  29.161  0.00  0.00    -0.265 OA
ATOM      2  C   UNL A   1     -31.389  -9.299  29.250  0.00  0.00    +0.279 A 
ATOM      3  C   UNL A   1     -30.761  -9.962  28.570  0.00  0.00    +0.058 A 
ATOM      4  C   UNL A   1     -31.001 -10.227  27.234  0.00  0.00    +0.005 A 
ATOM      5  N   UNL A   1     -30.853  -9.488  30.726  0.00  0.00    -0.208 NA
ATOM      6  C   UNL A   1     -29.832 -10.248  31.031  0.00  0.00    +0.085 A 
ATOM      7  C   UNL A   1     -29.247 -11.057  30.056  0.00  0.00    +0.018 A 
ATOM      8  C   UNL A   1     -29.641 -11.038  28.822  0.00  0.00    +0.006 A 
ATOM      9  C   UNL A   1     -30.600 -11.368  26.412  0.00  0.00    +0.000 A 
ATOM     10  C   UNL A   1     -29.561 -12.166  26.735  0.00  0.00    +0.000 A 
ATOM     11  C   UNL A   1     -29.095 -12.054  27.937  0.00  0.00    +0.000 A 
ATOM     12  C   UNL A   1     -29.460 -10.298  32.472  0.00  0.00    +0.026 A 
ATOM     13  C   UNL A   1     -28.427 -11.085  32.827  0.00  0.00    +0.081 A 
ATOM     14  C   UNL A   1     -27.914 -12.058  31.837  0.00  0.00    +0.007 A 
ATOM     15  C   UNL A   1     -28.258 -11.965  30.594  0.00  0.00    +0.002 A 
ENDROOT
BRANCH  13  16
ATOM     16  C   UNL A   1     -27.970 -11.313  34.236  0.00  0.00    +0.388 C 
ATOM     17  O   UNL A   1     -28.024 -10.305  34.940  0.00  0.00    -0.241 OA
ATOM     18  O   UNL A   1     -27.318 -12.372  34.522  0.00  0.00    -0.241 OA
ENDBRANCH  13  16
TORSDOF 1
ENDMDL
ENDMDL
