MODEL 2704
MODEL 1
REMARK VINA RESULT:    -7.916      0.000      0.000
REMARK INTER + INTRA:         -12.321
REMARK INTER:                  -9.767
REMARK INTRA:                  -2.554
REMARK UNBOUND:                -2.554
REMARK  Name = No_2704-gen_results/8p0m/2024-11-26-14-13-15/
REMARK  4 active torsions:
REMARK  status: ('A' for Active; 'I' for Inactive)
REMARK    1  A    between atoms: C_1  and  C_7
REMARK    2  A    between atoms: C_11  and  C_26
REMARK    3  A    between atoms: C_13  and  N_14
REMARK    4  A    between atoms: C_19  and  C_20
REMARK                            x       y       z     vdW  Elec       q    Type
REMARK                         _______ _______ _______ _____ _____    ______ ____
ROOT
ATOM      1  C   UNL A   1      -8.159   0.638  34.810  0.00  0.00    +0.253 C 
ATOM      2  O   UNL A   1      -8.392   1.339  33.834  0.00  0.00    -0.270 OA
ATOM      3  N   UNL A   1      -8.926   0.775  35.914  0.00  0.00    -0.253 N 
ATOM      4  C   UNL A   1      -8.825  -0.022  37.100  0.00  0.00    +0.065 C 
ATOM      5  C   UNL A   1      -9.387   0.559  38.124  0.00  0.00    +0.009 C 
ATOM      6  C   UNL A   1     -10.000   1.622  36.103  0.00  0.00    +0.119 C 
ATOM      7  C   UNL A   1     -10.369   1.456  37.513  0.00  0.00    +0.102 C 
ENDROOT
BRANCH   7   8
ATOM      8  N   UNL A   1     -10.497   2.778  38.217  0.00  0.00    -0.267 NA
ATOM      9  C   UNL A   1      -9.833   3.150  39.118  0.00  0.00    +0.073 C 
ATOM     10  C   UNL A   1      -9.880   3.168  40.219  0.00  0.00    +0.017 C 
ATOM     11  C   UNL A   1     -11.178   2.682  40.835  0.00  0.00    +0.003 C 
ATOM     12  C   UNL A   1     -12.080   2.078  40.151  0.00  0.00    +0.019 C 
ATOM     13  C   UNL A   1     -11.910   2.477  38.730  0.00  0.00    +0.080 C 
ATOM     14  C   UNL A   1     -13.332   1.631  40.528  0.00  0.00    +0.002 C 
BRANCH  13  15
ATOM     15  C   UNL A   1     -13.038   3.023  38.058  0.00  0.00    -0.008 A 
ATOM     16  C   UNL A   1     -13.652   2.482  37.276  0.00  0.00    -0.003 A 
ATOM     17  C   UNL A   1     -14.779   3.115  36.602  0.00  0.00    -0.000 A 
ATOM     18  C   UNL A   1     -15.158   4.395  36.954  0.00  0.00    -0.000 A 
ATOM     19  C   UNL A   1     -14.427   5.045  37.938  0.00  0.00    -0.000 A 
ATOM     20  C   UNL A   1     -13.352   4.444  38.524  0.00  0.00    -0.003 A 
ENDBRANCH  13  15
ENDBRANCH   7   8
BRANCH   1  21
ATOM     21  C   UNL A   1      -6.910  -0.209  34.795  0.00  0.00    +0.054 A 
ATOM     22  C   UNL A   1      -5.826   0.308  34.936  0.00  0.00    +0.004 A 
ATOM     23  C   UNL A   1      -4.637  -0.393  34.924  0.00  0.00    +0.000 A 
ATOM     24  C   UNL A   1      -4.692  -1.796  34.694  0.00  0.00    +0.000 A 
ATOM     25  C   UNL A   1      -5.907  -2.299  34.373  0.00  0.00    +0.000 A 
ATOM     26  C   UNL A   1      -6.988  -1.543  34.369  0.00  0.00    +0.004 A 
ENDBRANCH   1  21
BRANCH   5  27
ATOM     27  C   UNL A   1     -10.241  -0.595  38.908  0.00  0.00    -0.001 A 
ATOM     28  C   UNL A   1     -11.309  -1.166  38.252  0.00  0.00    -0.000 A 
ATOM     29  C   UNL A   1     -12.080  -2.105  38.905  0.00  0.00    -0.000 A 
ATOM     30  C   UNL A   1     -11.848  -2.427  40.222  0.00  0.00    -0.000 A 
ATOM     31  C   UNL A   1     -10.827  -1.809  40.902  0.00  0.00    -0.000 A 
ATOM     32  C   UNL A   1      -9.997  -0.848  40.235  0.00  0.00    -0.000 A 
ENDBRANCH   5  27
TORSDOF 4
ENDMDL
ENDMDL
