REMARK  Name = No_2704-gen_results/8p0m/2024-11-26-14-13-15/
REMARK  4 active torsions:
REMARK  status: ('A' for Active; 'I' for Inactive)
REMARK    1  A    between atoms: C_1  and  C_7
REMARK    2  A    between atoms: C_11  and  C_26
REMARK    3  A    between atoms: C_13  and  N_14
REMARK    4  A    between atoms: C_19  and  C_20
REMARK                            x       y       z     vdW  Elec       q    Type
REMARK                         _______ _______ _______ _____ _____    ______ ____
ROOT
ATOM      1  C   UNL A   1     -28.003  -1.660  30.127  0.00  0.00    +0.253 C 
ATOM      2  O   UNL A   1     -27.122  -2.502  30.244  0.00  0.00    -0.270 OA
ATOM      3  N   UNL A   1     -29.011  -1.637  31.027  0.00  0.00    -0.253 N 
ATOM      4  C   UNL A   1     -30.067  -0.670  31.066  0.00  0.00    +0.065 C 
ATOM      5  C   UNL A   1     -31.088  -1.096  31.757  0.00  0.00    +0.009 C 
ATOM      6  C   UNL A   1     -29.190  -2.456  32.124  0.00  0.00    +0.119 C 
ATOM      7  C   UNL A   1     -30.502  -2.083  32.664  0.00  0.00    +0.102 C 
ENDROOT
BRANCH   7   8
ATOM      8  N   UNL A   1     -31.375  -3.286  32.891  0.00  0.00    -0.267 NA
ATOM      9  C   UNL A   1     -31.195  -4.130  33.695  0.00  0.00    +0.073 C 
ATOM     10  C   UNL A   1     -30.729  -5.127  33.747  0.00  0.00    +0.017 C 
ATOM     11  C   UNL A   1     -30.235  -5.698  32.431  0.00  0.00    +0.003 C 
ATOM     12  C   UNL A   1     -30.152  -4.991  31.363  0.00  0.00    +0.019 C 
ATOM     13  C   UNL A   1     -31.108  -3.862  31.495  0.00  0.00    +0.080 C 
ATOM     14  C   UNL A   1     -29.791  -5.357  30.081  0.00  0.00    +0.002 C 
BRANCH  13  15
ATOM     15  C   UNL A   1     -32.069  -3.686  30.462  0.00  0.00    -0.008 A 
ATOM     16  C   UNL A   1     -32.803  -4.475  30.117  0.00  0.00    -0.003 A 
ATOM     17  C   UNL A   1     -33.742  -4.237  29.028  0.00  0.00    -0.000 A 
ATOM     18  C   UNL A   1     -33.790  -2.997  28.422  0.00  0.00    -0.000 A 
ATOM     19  C   UNL A   1     -32.915  -2.018  28.870  0.00  0.00    -0.000 A 
ATOM     20  C   UNL A   1     -32.019  -2.280  29.864  0.00  0.00    -0.003 A 
ENDBRANCH  13  15
ENDBRANCH   7   8
BRANCH   1  21
ATOM     21  C   UNL A   1     -28.016  -0.814  28.878  0.00  0.00    +0.054 A 
ATOM     22  C   UNL A   1     -27.064  -0.119  28.608  0.00  0.00    +0.004 A 
ATOM     23  C   UNL A   1     -27.001   0.691  27.491  0.00  0.00    +0.000 A 
ATOM     24  C   UNL A   1     -28.137   0.736  26.635  0.00  0.00    +0.000 A 
ATOM     25  C   UNL A   1     -29.236   0.076  27.069  0.00  0.00    +0.000 A 
ATOM     26  C   UNL A   1     -29.218  -0.643  28.175  0.00  0.00    +0.004 A 
ENDBRANCH   1  21
BRANCH   5  27
ATOM     27  C   UNL A   1     -31.578   0.155  32.690  0.00  0.00    -0.001 A 
ATOM     28  C   UNL A   1     -32.892   0.558  32.592  0.00  0.00    -0.000 A 
ATOM     29  C   UNL A   1     -33.323   1.642  33.327  0.00  0.00    -0.000 A 
ATOM     30  C   UNL A   1     -32.450   2.374  34.098  0.00  0.00    -0.000 A 
ATOM     31  C   UNL A   1     -31.124   2.018  34.144  0.00  0.00    -0.000 A 
ATOM     32  C   UNL A   1     -30.659   0.879  33.408  0.00  0.00    -0.000 A 
ENDBRANCH   5  27
TORSDOF 4
