MODEL 2705
MODEL 1
REMARK VINA RESULT:    -7.660      0.000      0.000
REMARK INTER + INTRA:          -9.926
REMARK INTER:                  -9.003
REMARK INTRA:                  -0.923
REMARK UNBOUND:                -0.923
REMARK  Name = No_2705-gen_results/8p0m/2024-11-26-14-13-15/
REMARK  3 active torsions:
REMARK  status: ('A' for Active; 'I' for Inactive)
REMARK    1  A    between atoms: C_2  and  C_15
REMARK    2  A    between atoms: C_6  and  O_7
REMARK    3  A    between atoms: O_7  and  C_9
REMARK                            x       y       z     vdW  Elec       q    Type
REMARK                         _______ _______ _______ _____ _____    ______ ____
ROOT
ATOM      1  C   UNL A   1     -25.193  -0.073  27.841  0.00  0.00    +0.038 A 
ATOM      2  C   UNL A   1     -24.979   0.723  26.956  0.00  0.00    +0.014 A 
ATOM      3  C   UNL A   1     -23.716   1.275  26.777  0.00  0.00    +0.058 A 
ATOM      4  C   UNL A   1     -22.632   0.951  27.669  0.00  0.00    +0.015 A 
ATOM      5  C   UNL A   1     -22.973   0.041  28.678  0.00  0.00    +0.038 A 
ATOM      6  C   UNL A   1     -24.188  -0.440  28.814  0.00  0.00    +0.145 A 
ATOM      7 CL   UNL A   1     -23.287   2.422  25.540  0.00  0.00    -0.082 Cl
ENDROOT
BRANCH   2   8
ATOM      8  C   UNL A   1     -25.983   1.086  25.885  0.00  0.00    +0.001 A 
ATOM      9  C   UNL A   1     -26.588   2.203  26.016  0.00  0.00    +0.000 A 
ATOM     10  C   UNL A   1     -26.230   0.113  24.898  0.00  0.00    +0.000 A 
ATOM     11  C   UNL A   1     -27.144   0.264  23.944  0.00  0.00    +0.000 A 
ATOM     12  C   UNL A   1     -27.633   2.500  24.979  0.00  0.00    +0.000 A 
ATOM     13  C   UNL A   1     -27.896   1.551  23.951  0.00  0.00    +0.000 A 
ENDBRANCH   2   8
BRANCH   6  14
ATOM     14  O   UNL A   1     -24.446  -1.290  29.846  0.00  0.00    -0.450 OA
BRANCH  14  15
ATOM     15  C   UNL A   1     -24.708  -2.631  29.606  0.00  0.00    +0.184 A 
ATOM     16  C   UNL A   1     -23.762  -3.331  29.076  0.00  0.00    +0.041 A 
ATOM     17  C   UNL A   1     -24.093  -4.502  28.573  0.00  0.00    +0.003 A 
ATOM     18  C   UNL A   1     -25.244  -5.213  29.029  0.00  0.00    +0.004 A 
ATOM     19  C   UNL A   1     -26.244  -4.500  29.680  0.00  0.00    +0.045 A 
ATOM     20  C   UNL A   1     -25.980  -3.101  29.997  0.00  0.00    +0.230 A 
ATOM     21  O   UNL A   1     -26.842  -2.399  30.662  0.00  0.00    -0.283 OA
ENDBRANCH  14  15
ENDBRANCH   6  14
TORSDOF 3
ENDMDL
ENDMDL
