REMARK  Name = No_2705-gen_results/8p0m/2024-11-26-14-13-15/
REMARK  3 active torsions:
REMARK  status: ('A' for Active; 'I' for Inactive)
REMARK    1  A    between atoms: C_2  and  C_15
REMARK    2  A    between atoms: C_6  and  O_7
REMARK    3  A    between atoms: O_7  and  C_9
REMARK                            x       y       z     vdW  Elec       q    Type
REMARK                         _______ _______ _______ _____ _____    ______ ____
ROOT
ATOM      1  C   UNL A   1     -28.016  -0.814  28.878  0.00  0.00    +0.038 A 
ATOM      2  C   UNL A   1     -27.064  -0.119  28.608  0.00  0.00    +0.014 A 
ATOM      3  C   UNL A   1     -25.792  -0.430  29.076  0.00  0.00    +0.058 A 
ATOM      4  C   UNL A   1     -25.576  -1.565  29.936  0.00  0.00    +0.015 A 
ATOM      5  C   UNL A   1     -26.735  -2.300  30.217  0.00  0.00    +0.038 A 
ATOM      6  C   UNL A   1     -27.918  -1.954  29.763  0.00  0.00    +0.145 A 
ATOM      7 CL   UNL A   1     -24.350   0.489  28.750  0.00  0.00    -0.082 Cl
ENDROOT
BRANCH   2   8
ATOM      8  C   UNL A   1     -27.113   1.043  27.642  0.00  0.00    +0.001 A 
ATOM      9  C   UNL A   1     -26.997   2.213  28.140  0.00  0.00    +0.000 A 
ATOM     10  C   UNL A   1     -27.384   0.732  26.296  0.00  0.00    +0.000 A 
ATOM     11  C   UNL A   1     -27.536   1.658  25.354  0.00  0.00    +0.000 A 
ATOM     12  C   UNL A   1     -27.127   3.349  27.166  0.00  0.00    +0.000 A 
ATOM     13  C   UNL A   1     -27.378   3.074  25.792  0.00  0.00    +0.000 A 
ENDBRANCH   2   8
BRANCH   6  14
ATOM     14  O   UNL A   1     -29.000  -2.701  30.115  0.00  0.00    -0.450 OA
BRANCH  14  15
ATOM     15  C   UNL A   1     -29.370  -2.823  31.447  0.00  0.00    +0.184 A 
ATOM     16  C   UNL A   1     -29.950  -1.807  31.992  0.00  0.00    +0.041 A 
ATOM     17  C   UNL A   1     -30.028  -1.797  33.307  0.00  0.00    +0.003 A 
ATOM     18  C   UNL A   1     -29.992  -3.005  34.067  0.00  0.00    +0.004 A 
ATOM     19  C   UNL A   1     -29.450  -4.140  33.475  0.00  0.00    +0.045 A 
ATOM     20  C   UNL A   1     -29.100  -4.064  32.061  0.00  0.00    +0.230 A 
ATOM     21  O   UNL A   1     -28.654  -5.106  31.433  0.00  0.00    -0.283 OA
ENDBRANCH  14  15
ENDBRANCH   6  14
TORSDOF 3
