MODEL 2706
MODEL 1
REMARK VINA RESULT:    -5.535      0.000      0.000
REMARK INTER + INTRA:          -9.311
REMARK INTER:                  -7.800
REMARK INTRA:                  -1.511
REMARK UNBOUND:                -1.511
REMARK  Name = No_2706-gen_results/8p0m/2024-11-26-14-13-15/
REMARK  7 active torsions:
REMARK  status: ('A' for Active; 'I' for Inactive)
REMARK    1  A    between atoms: C_1  and  C_2
REMARK    2  A    between atoms: C_1  and  C_8
REMARK    3  A    between atoms: C_3  and  C_20
REMARK    4  A    between atoms: C_5  and  C_10
REMARK    5  A    between atoms: C_8  and  C_9
REMARK    6  A    between atoms: N_14  and  C_16
REMARK    7  A    between atoms: C_16  and  C_17
REMARK                            x       y       z     vdW  Elec       q    Type
REMARK                         _______ _______ _______ _____ _____    ______ ____
ROOT
ATOM      1  C   UNL A   1     -23.221  -0.750  29.149  0.00  0.00    -0.020 A 
ATOM      2  C   UNL A   1     -24.244  -1.357  28.447  0.00  0.00    +0.015 A 
ATOM      3  C   UNL A   1     -24.887  -0.826  27.260  0.00  0.00    +0.005 A 
ATOM      4  C   UNL A   1     -24.461   0.424  26.757  0.00  0.00    +0.071 A 
ATOM      5  C   UNL A   1     -23.384   1.061  27.472  0.00  0.00    +0.004 A 
ATOM      6  C   UNL A   1     -22.764   0.520  28.574  0.00  0.00    -0.004 A 
ENDROOT
BRANCH   4   7
ATOM      7  C   UNL A   1     -24.685   0.953  25.508  0.00  0.00    +0.419 C 
ATOM      8  F   UNL A   1     -23.662   1.619  25.072  0.00  0.00    -0.166 F 
ATOM      9  F   UNL A   1     -24.754  -0.035  24.477  0.00  0.00    -0.166 F 
ATOM     10  F   UNL A   1     -25.773   1.651  25.279  0.00  0.00    -0.166 F 
ENDBRANCH   4   7
BRANCH   2  11
ATOM     11  C   UNL A   1     -24.789  -2.633  28.873  0.00  0.00    +0.093 C 
ATOM     12  N   UNL A   1     -24.519  -3.792  28.558  0.00  0.00    -0.267 NA
ATOM     13  C   UNL A   1     -24.914  -4.870  29.188  0.00  0.00    +0.152 C 
ENDBRANCH   2  11
BRANCH   1  14
ATOM     14  C   UNL A   1     -22.667  -1.257  30.096  0.00  0.00    +0.035 C 
BRANCH  14  15
ATOM     15  C   UNL A   1     -22.812  -0.503  31.394  0.00  0.00    +0.081 C 
BRANCH  15  16
ATOM     16  C   UNL A   1     -24.066  -0.554  32.091  0.00  0.00    +0.195 C 
ATOM     17  N   UNL A   1     -24.806   0.345  32.046  0.00  0.00    -0.235 NA
ATOM     18  F   UNL A   1     -24.211  -1.393  32.995  0.00  0.00    -0.189 F 
BRANCH  17  19
ATOM     19  C   UNL A   1     -26.218   0.170  31.794  0.00  0.00    +0.241 C 
BRANCH  19  20
ATOM     20  C   UNL A   1     -26.733   0.462  30.436  0.00  0.00    +0.389 C 
ATOM     21  O   UNL A   1     -26.143   1.328  29.895  0.00  0.00    -0.243 OA
ATOM     22  O   UNL A   1     -27.427  -0.403  29.853  0.00  0.00    -0.243 OA
ENDBRANCH  19  20
ENDBRANCH  17  19
ENDBRANCH  15  16
ENDBRANCH  14  15
ENDBRANCH   1  14
TORSDOF 7
ENDMDL
ENDMDL
