MODEL 2707
MODEL 1
REMARK VINA RESULT:    -6.970      0.000      0.000
REMARK INTER + INTRA:         -11.678
REMARK INTER:                  -9.823
REMARK INTRA:                  -1.856
REMARK UNBOUND:                -1.856
REMARK  Name = No_2707-gen_results/8p0m/2024-11-26-14-13-15/
REMARK  7 active torsions:
REMARK  status: ('A' for Active; 'I' for Inactive)
REMARK    1  A    between atoms: C_2  and  C_23
REMARK    2  A    between atoms: C_4  and  C_7
REMARK    3  A    between atoms: C_8  and  C_14
REMARK    4  A    between atoms: C_17  and  C_18
REMARK    5  A    between atoms: N_22  and  C_26
REMARK    6  A    between atoms: C_30  and  O_33
REMARK    7  A    between atoms: O_33  and  C_34
REMARK                            x       y       z     vdW  Elec       q    Type
REMARK                         _______ _______ _______ _____ _____    ______ ____
ROOT
ATOM      1  C   UNL A   1     -28.357   1.492  26.120  0.00  0.00    +0.352 C 
ATOM      2  O   UNL A   1     -28.348   0.941  27.191  0.00  0.00    -0.243 OA
ATOM      3  N   UNL A   1     -27.145   1.565  25.403  0.00  0.00    +0.035 NA
ATOM      4  C   UNL A   1     -25.970   0.718  25.812  0.00  0.00    +0.442 C 
ATOM      5  N   UNL A   1     -25.298   1.114  26.839  0.00  0.00    -0.033 NA
ENDROOT
BRANCH   1   7
ATOM      6  C   UNL A   1     -30.360   2.115  24.684  0.00  0.00    +0.046 C 
ATOM      7  C   UNL A   1     -29.373   2.440  25.660  0.00  0.00    +0.114 C 
ATOM      8  C   UNL A   1     -29.233   3.784  26.062  0.00  0.00    +0.049 C 
ATOM      9  C   UNL A   1     -30.040   4.778  25.455  0.00  0.00    +0.165 C 
ATOM     10  C   UNL A   1     -31.461   3.179  24.752  0.00  0.00    +0.095 C 
ATOM     11  N   UNL A   1     -31.041   4.483  24.844  0.00  0.00    -0.201 NA
ATOM     12  C   UNL A   1     -29.684   2.429  23.210  0.00  0.00    +0.006 C 
ATOM     13  N   UNL A   1     -29.803   6.088  25.905  0.00  0.00    -0.114 NA
BRANCH   6  17
ATOM     14  C   UNL A   1     -32.326  -1.045  25.662  0.00  0.00    +0.006 A 
ATOM     15  C   UNL A   1     -31.765  -1.711  25.068  0.00  0.00    +0.080 A 
ATOM     16  C   UNL A   1     -31.865   0.395  25.635  0.00  0.00    -0.004 A 
ATOM     17  C   UNL A   1     -30.845   0.779  24.739  0.00  0.00    -0.021 A 
ATOM     18  C   UNL A   1     -30.707  -1.570  24.042  0.00  0.00    +0.006 A 
ATOM     19  C   UNL A   1     -30.263  -0.256  23.984  0.00  0.00    -0.004 A 
BRANCH  15  20
ATOM     20  C   UNL A   1     -32.213  -3.236  25.159  0.00  0.00    +0.388 C 
ATOM     21  O   UNL A   1     -32.933  -3.777  24.451  0.00  0.00    -0.241 OA
ATOM     22  O   UNL A   1     -31.690  -3.891  26.181  0.00  0.00    -0.241 OA
ENDBRANCH  15  20
ENDBRANCH   6  17
ENDBRANCH   1   7
BRANCH   5  23
ATOM     23  C   UNL A   1     -24.401   1.004  27.334  0.00  0.00    +0.196 A 
ATOM     24  C   UNL A   1     -23.273   1.282  27.007  0.00  0.00    +0.047 A 
ATOM     25  C   UNL A   1     -22.031   1.199  27.824  0.00  0.00    +0.007 A 
ATOM     26  C   UNL A   1     -22.246   0.793  29.134  0.00  0.00    +0.038 A 
ATOM     27  C   UNL A   1     -23.466   0.504  29.669  0.00  0.00    +0.149 A 
ATOM     28  C   UNL A   1     -24.535   0.586  28.843  0.00  0.00    +0.084 A 
BRANCH  27  29
ATOM     29  O   UNL A   1     -23.561   0.093  30.966  0.00  0.00    -0.450 OA
BRANCH  29  30
ATOM     30  C   UNL A   1     -23.492  -0.988  31.439  0.00  0.00    +0.180 C 
ATOM     31  C   UNL A   1     -22.857  -1.293  32.487  0.00  0.00    +0.044 C 
ENDBRANCH  29  30
ENDBRANCH  27  29
ENDBRANCH   5  23
BRANCH   4  32
ATOM     32  C   UNL A   1     -25.693  -0.249  24.877  0.00  0.00    +0.502 C 
ATOM     33  F   UNL A   1     -24.733   0.116  24.169  0.00  0.00    -0.160 F 
ATOM     34  F   UNL A   1     -25.344  -1.475  25.421  0.00  0.00    -0.160 F 
ATOM     35  F   UNL A   1     -26.780  -0.497  24.081  0.00  0.00    -0.160 F 
ENDBRANCH   4  32
TORSDOF 7
ENDMDL
ENDMDL
