REMARK  Name = No_2708-gen_results/8p0m/2024-11-26-14-13-15/
REMARK  7 active torsions:
REMARK  status: ('A' for Active; 'I' for Inactive)
REMARK    1  A    between atoms: C_1  and  C_8
REMARK    2  A    between atoms: C_5  and  C_14
REMARK    3  A    between atoms: C_12  and  C_19
REMARK    4  A    between atoms: C_19  and  C_20
REMARK    5  A    between atoms: C_20  and  C_22
REMARK    6  A    between atoms: C_23  and  C_24
REMARK    7  A    between atoms: C_24  and  C_26
REMARK                            x       y       z     vdW  Elec       q    Type
REMARK                         _______ _______ _______ _____ _____    ______ ____
ROOT
ATOM      1  C   UNL A   1     -28.633  -0.462  30.245  0.00  0.00    -0.001 A 
ATOM      2  C   UNL A   1     -29.671  -0.411  30.532  0.00  0.00    -0.000 A 
ATOM      3  C   UNL A   1     -30.199  -0.055  31.875  0.00  0.00    -0.000 A 
ATOM      4  C   UNL A   1     -29.290   0.171  32.884  0.00  0.00    -0.004 A 
ATOM      5  C   UNL A   1     -27.930   0.018  32.590  0.00  0.00    -0.022 A 
ATOM      6  C   UNL A   1     -27.559  -0.304  31.374  0.00  0.00    -0.004 A 
ENDROOT
BRANCH   1   7
ATOM      7  C   UNL A   1     -28.016  -0.814  28.878  0.00  0.00    -0.006 C 
ATOM      8  C   UNL A   1     -27.064  -0.119  28.608  0.00  0.00    -0.012 C 
ATOM      9  C   UNL A   1     -26.972   0.714  27.506  0.00  0.00    +0.180 C 
ATOM     10  C   UNL A   1     -25.820   1.491  27.116  0.00  0.00    +0.048 C 
ATOM     11  C   UNL A   1     -24.858   1.342  27.601  0.00  0.00    +0.099 C 
ATOM     12  C   UNL A   1     -24.622   0.529  28.814  0.00  0.00    +0.013 C 
ATOM     13  C   UNL A   1     -25.734  -0.181  29.191  0.00  0.00    +0.025 C 
ATOM     14  F   UNL A   1     -28.080   0.917  26.802  0.00  0.00    -0.233 F 
BRANCH  11  15
ATOM     15  C   UNL A   1     -23.518   2.127  27.248  0.00  0.00    +0.398 C 
ATOM     16  F   UNL A   1     -23.240   1.908  26.034  0.00  0.00    -0.170 F 
ATOM     17  F   UNL A   1     -22.404   1.728  27.945  0.00  0.00    -0.170 F 
ATOM     18  F   UNL A   1     -23.716   3.449  27.405  0.00  0.00    -0.170 F 
ENDBRANCH  11  15
ENDBRANCH   1   7
BRANCH   5  19
ATOM     19  C   UNL A   1     -26.925   0.250  33.643  0.00  0.00    +0.027 C 
ATOM     20  C   UNL A   1     -26.800  -0.660  34.712  0.00  0.00    +0.005 C 
BRANCH  19  21
ATOM     21  C   UNL A   1     -26.066   1.341  33.533  0.00  0.00    +0.030 C 
BRANCH  21  22
ATOM     22  C   UNL A   1     -26.451   2.668  34.034  0.00  0.00    -0.029 C 
ATOM     23  C   UNL A   1     -25.926   3.837  33.335  0.00  0.00    -0.007 C 
BRANCH  23  24
ATOM     24  C   UNL A   1     -26.215   3.988  32.104  0.00  0.00    +0.166 C 
ATOM     25 CL   UNL A   1     -27.500   3.701  31.440  0.00  0.00    -0.102 Cl
BRANCH  24  26
ATOM     26  C   UNL A   1     -25.079   4.559  31.224  0.00  0.00    +0.228 C 
ATOM     27  O   UNL A   1     -24.078   4.615  31.519  0.00  0.00    -0.287 OA
ENDBRANCH  24  26
ENDBRANCH  23  24
ENDBRANCH  21  22
ENDBRANCH  19  21
ENDBRANCH   5  19
TORSDOF 7
