MODEL 2708
MODEL 1
REMARK VINA RESULT:    -7.074      0.000      0.000
REMARK INTER + INTRA:         -11.810
REMARK INTER:                  -9.969
REMARK INTRA:                  -1.841
REMARK UNBOUND:                -1.841
REMARK  Name = No_2708-gen_results/8p0m/2024-11-26-14-13-15/
REMARK  7 active torsions:
REMARK  status: ('A' for Active; 'I' for Inactive)
REMARK    1  A    between atoms: C_1  and  C_8
REMARK    2  A    between atoms: C_5  and  C_14
REMARK    3  A    between atoms: C_12  and  C_19
REMARK    4  A    between atoms: C_19  and  C_20
REMARK    5  A    between atoms: C_20  and  C_22
REMARK    6  A    between atoms: C_23  and  C_24
REMARK    7  A    between atoms: C_24  and  C_26
REMARK                            x       y       z     vdW  Elec       q    Type
REMARK                         _______ _______ _______ _____ _____    ______ ____
ROOT
ATOM      1  C   UNL A   1     -26.520   0.327  25.654  0.00  0.00    -0.001 A 
ATOM      2  C   UNL A   1     -27.009   0.303  26.615  0.00  0.00    -0.000 A 
ATOM      3  C   UNL A   1     -26.450   0.794  27.902  0.00  0.00    -0.000 A 
ATOM      4  C   UNL A   1     -25.158   1.268  27.902  0.00  0.00    -0.004 A 
ATOM      5  C   UNL A   1     -24.442   1.227  26.700  0.00  0.00    -0.022 A 
ATOM      6  C   UNL A   1     -25.019   0.771  25.614  0.00  0.00    -0.004 A 
ENDROOT
BRANCH   1   7
ATOM      7  C   UNL A   1     -27.038  -0.154  24.285  0.00  0.00    -0.006 C 
ATOM      8  C   UNL A   1     -28.098   0.348  23.990  0.00  0.00    -0.012 C 
ATOM      9  C   UNL A   1     -29.270  -0.348  23.750  0.00  0.00    +0.180 C 
ATOM     10  C   UNL A   1     -30.526   0.216  23.318  0.00  0.00    +0.048 C 
ATOM     11  C   UNL A   1     -30.588   1.252  22.991  0.00  0.00    +0.099 C 
ATOM     12  C   UNL A   1     -29.517   2.263  23.127  0.00  0.00    +0.013 C 
ATOM     13  C   UNL A   1     -28.337   1.718  23.567  0.00  0.00    +0.025 C 
ATOM     14  F   UNL A   1     -29.285  -1.640  24.058  0.00  0.00    -0.233 F 
BRANCH  11  15
ATOM     15  C   UNL A   1     -31.910   1.979  22.481  0.00  0.00    +0.398 C 
ATOM     16  F   UNL A   1     -31.734   2.320  21.277  0.00  0.00    -0.170 F 
ATOM     17  F   UNL A   1     -32.229   3.142  23.137  0.00  0.00    -0.170 F 
ATOM     18  F   UNL A   1     -32.944   1.118  22.531  0.00  0.00    -0.170 F 
ENDBRANCH  11  15
ENDBRANCH   1   7
BRANCH   5  19
ATOM     19  C   UNL A   1     -23.055   1.725  26.659  0.00  0.00    +0.027 C 
ATOM     20  C   UNL A   1     -22.559   2.336  25.489  0.00  0.00    +0.005 C 
BRANCH  19  21
ATOM     21  C   UNL A   1     -22.268   1.638  27.805  0.00  0.00    +0.030 C 
BRANCH  21  22
ATOM     22  C   UNL A   1     -21.382   0.489  28.036  0.00  0.00    -0.029 C 
ATOM     23  C   UNL A   1     -21.483  -0.199  29.320  0.00  0.00    -0.007 C 
BRANCH  23  24
ATOM     24  C   UNL A   1     -22.596  -0.728  29.639  0.00  0.00    +0.166 C 
ATOM     25 CL   UNL A   1     -23.380  -1.710  28.868  0.00  0.00    -0.102 Cl
BRANCH  24  26
ATOM     26  C   UNL A   1     -23.167  -0.290  31.009  0.00  0.00    +0.228 C 
ATOM     27  O   UNL A   1     -23.919   0.424  31.131  0.00  0.00    -0.287 OA
ENDBRANCH  24  26
ENDBRANCH  23  24
ENDBRANCH  21  22
ENDBRANCH  19  21
ENDBRANCH   5  19
TORSDOF 7
ENDMDL
ENDMDL
