MODEL 270
MODEL 1
REMARK VINA RESULT:    -4.448      0.000      0.000
REMARK INTER + INTRA:          -4.448
REMARK INTER:                  -4.448
REMARK INTRA:                   0.000
REMARK UNBOUND:                 0.000
REMARK  Name = No_270-gen_results/8p0m/2024-11-26-14-13-15/
REMARK  0 active torsions:
REMARK  status: ('A' for Active; 'I' for Inactive)
REMARK                            x       y       z     vdW  Elec       q    Type
REMARK                         _______ _______ _______ _____ _____    ______ ____
ROOT
ATOM      1  C   UNL A   1      -9.287  -9.258  20.000  0.00  0.00    +0.011 A 
ATOM      2  C   UNL A   1      -8.276  -9.901  19.838  0.00  0.00    +0.058 A 
ATOM      3  C   UNL A   1      -8.065 -10.730  18.783  0.00  0.00    +0.011 A 
ATOM      4  C   UNL A   1      -9.080 -10.852  17.816  0.00  0.00    +0.001 A 
ATOM      5  C   UNL A   1     -10.326  -9.260  19.002  0.00  0.00    +0.001 A 
ATOM      6  C   UNL A   1     -10.175 -10.098  17.938  0.00  0.00    +0.000 A 
ATOM      7 CL   UNL A   1      -6.955  -9.815  20.970  0.00  0.00    -0.082 Cl
ENDROOT
TORSDOF 0
ENDMDL
ENDMDL
