MODEL 2710
MODEL 1
REMARK VINA RESULT:    -6.116      0.000      0.000
REMARK INTER + INTRA:          -8.028
REMARK INTER:                  -7.546
REMARK INTRA:                  -0.482
REMARK UNBOUND:                -0.482
REMARK  Name = No_2710-gen_results/8p0m/2024-11-26-14-13-15/
REMARK  4 active torsions:
REMARK  status: ('A' for Active; 'I' for Inactive)
REMARK    1  A    between atoms: C_1  and  C_2
REMARK    2  A    between atoms: C_5  and  C_9
REMARK    3  A    between atoms: N_8  and  C_14
REMARK    4  A    between atoms: C_14  and  C_15
REMARK                            x       y       z     vdW  Elec       q    Type
REMARK                         _______ _______ _______ _____ _____    ______ ____
ROOT
ATOM      1  C   UNL A   1     -25.271   1.108  26.269  0.00  0.00    +0.055 A 
ATOM      2  C   UNL A   1     -24.100   1.839  26.316  0.00  0.00    +0.004 A 
ATOM      3  C   UNL A   1     -22.943   1.532  27.136  0.00  0.00    +0.004 A 
ATOM      4  C   UNL A   1     -22.990   0.401  27.981  0.00  0.00    +0.071 A 
ATOM      5  C   UNL A   1     -24.201  -0.378  27.931  0.00  0.00    +0.004 A 
ATOM      6  C   UNL A   1     -25.271  -0.088  27.118  0.00  0.00    +0.004 A 
ENDROOT
BRANCH   4   7
ATOM      7  C   UNL A   1     -21.911   0.030  28.838  0.00  0.00    +0.419 C 
ATOM      8  F   UNL A   1     -22.066   0.411  30.005  0.00  0.00    -0.166 F 
ATOM      9  F   UNL A   1     -20.689   0.449  28.423  0.00  0.00    -0.166 F 
ATOM     10  F   UNL A   1     -21.789  -1.334  28.948  0.00  0.00    -0.166 F 
ENDBRANCH   4   7
BRANCH   1  11
ATOM     11  C   UNL A   1     -26.188   1.361  25.522  0.00  0.00    +0.265 C 
ATOM     12  N   UNL A   1     -26.796   0.267  24.794  0.00  0.00    -0.197 NA
ATOM     13  O   UNL A   1     -26.956   2.340  25.639  0.00  0.00    -0.268 OA
BRANCH  12  14
ATOM     14  C   UNL A   1     -27.960   0.405  23.884  0.00  0.00    +0.146 C 
BRANCH  14  15
ATOM     15  C   UNL A   1     -29.119  -0.227  24.396  0.00  0.00    +0.058 C 
ATOM     16  C   UNL A   1     -29.608  -1.358  23.610  0.00  0.00    +0.276 C 
ATOM     17  F   UNL A   1     -30.300  -2.124  24.294  0.00  0.00    -0.172 F 
ATOM     18  F   UNL A   1     -28.597  -2.006  23.034  0.00  0.00    -0.172 F 
ENDBRANCH  14  15
ENDBRANCH  12  14
ENDBRANCH   1  11
TORSDOF 4
ENDMDL
ENDMDL
