REMARK  Name = No_2711-gen_results/8p0m/2024-11-26-14-13-15/
REMARK  3 active torsions:
REMARK  status: ('A' for Active; 'I' for Inactive)
REMARK    1  A    between atoms: C_2  and  C_14
REMARK    2  A    between atoms: C_3  and  C_4
REMARK    3  A    between atoms: N_16  and  C_19
REMARK                            x       y       z     vdW  Elec       q    Type
REMARK                         _______ _______ _______ _____ _____    ______ ____
ROOT
ATOM      1  C   UNL A   1     -28.016  -0.814  28.878  0.00  0.00    +0.007 A 
ATOM      2  C   UNL A   1     -28.469  -0.785  29.829  0.00  0.00    +0.085 A 
ATOM      3  C   UNL A   1     -28.182   0.428  28.113  0.00  0.00    +0.001 A 
ATOM      4  C   UNL A   1     -29.426   0.110  30.418  0.00  0.00    +0.019 A 
ATOM      5  C   UNL A   1     -29.623   1.220  29.735  0.00  0.00    +0.058 A 
ATOM      6  C   UNL A   1     -28.961   1.453  28.551  0.00  0.00    +0.011 A 
ATOM      7 CL   UNL A   1     -30.676   2.477  30.323  0.00  0.00    -0.082 Cl
ENDROOT
BRANCH   3   8
ATOM      8  C   UNL A   1     -27.450   0.643  26.850  0.00  0.00    +0.000 A 
ATOM      9  C   UNL A   1     -27.860   1.457  25.908  0.00  0.00    +0.000 A 
ATOM     10  C   UNL A   1     -27.173   1.574  24.703  0.00  0.00    +0.000 A 
ATOM     11  C   UNL A   1     -26.089   0.747  24.413  0.00  0.00    +0.000 A 
ATOM     12  C   UNL A   1     -25.636  -0.119  25.397  0.00  0.00    +0.000 A 
ATOM     13  C   UNL A   1     -26.281  -0.206  26.582  0.00  0.00    +0.000 A 
ENDBRANCH   3   8
BRANCH   2  14
ATOM     14  C   UNL A   1     -28.279  -2.143  30.716  0.00  0.00    +0.343 C 
ATOM     15  N   UNL A   1     -28.852  -2.786  31.281  0.00  0.00    -0.039 NA
ATOM     16  N   UNL A   1     -26.899  -2.639  30.532  0.00  0.00    -0.080 N 
ATOM     17  C   UNL A   1     -28.293  -4.011  31.447  0.00  0.00    +0.398 C 
ATOM     18  N   UNL A   1     -27.172  -3.990  30.747  0.00  0.00    +0.028 NA
BRANCH  16  19
ATOM     19  C   UNL A   1     -25.737  -2.167  29.974  0.00  0.00    +0.160 A 
ATOM     20  C   UNL A   1     -25.009  -1.229  30.751  0.00  0.00    +0.043 A 
ATOM     21  C   UNL A   1     -25.197  -2.442  28.800  0.00  0.00    +0.043 A 
ATOM     22  C   UNL A   1     -23.792  -0.706  30.360  0.00  0.00    +0.015 A 
ATOM     23  C   UNL A   1     -23.259  -1.097  29.152  0.00  0.00    +0.058 A 
ATOM     24  C   UNL A   1     -23.964  -1.956  28.362  0.00  0.00    +0.015 A 
ATOM     25 CL   UNL A   1     -21.771  -0.464  28.669  0.00  0.00    -0.082 Cl
ENDBRANCH  16  19
ENDBRANCH   2  14
TORSDOF 3
