MODEL 2711
MODEL 1
REMARK VINA RESULT:    -7.764      0.000      0.000
REMARK INTER + INTRA:         -10.525
REMARK INTER:                  -9.126
REMARK INTRA:                  -1.400
REMARK UNBOUND:                -1.400
REMARK  Name = No_2711-gen_results/8p0m/2024-11-26-14-13-15/
REMARK  3 active torsions:
REMARK  status: ('A' for Active; 'I' for Inactive)
REMARK    1  A    between atoms: C_2  and  C_14
REMARK    2  A    between atoms: C_3  and  C_4
REMARK    3  A    between atoms: N_16  and  C_19
REMARK                            x       y       z     vdW  Elec       q    Type
REMARK                         _______ _______ _______ _____ _____    ______ ____
ROOT
ATOM      1  C   UNL A   1     -24.463  -0.407  28.469  0.00  0.00    +0.007 A 
ATOM      2  C   UNL A   1     -24.694   0.620  28.507  0.00  0.00    +0.085 A 
ATOM      3  C   UNL A   1     -25.375  -1.241  29.262  0.00  0.00    +0.001 A 
ATOM      4  C   UNL A   1     -25.544   1.390  29.373  0.00  0.00    +0.019 A 
ATOM      5  C   UNL A   1     -26.350   0.667  30.124  0.00  0.00    +0.058 A 
ATOM      6  C   UNL A   1     -26.333  -0.708  30.067  0.00  0.00    +0.011 A 
ATOM      7 CL   UNL A   1     -27.524   1.409  31.176  0.00  0.00    -0.082 Cl
ENDROOT
BRANCH   3   8
ATOM      8  C   UNL A   1     -25.330  -2.713  29.169  0.00  0.00    +0.000 A 
ATOM      9  C   UNL A   1     -26.232  -3.498  29.706  0.00  0.00    +0.000 A 
ATOM     10  C   UNL A   1     -26.110  -4.883  29.652  0.00  0.00    +0.000 A 
ATOM     11  C   UNL A   1     -24.967  -5.482  29.124  0.00  0.00    +0.000 A 
ATOM     12  C   UNL A   1     -24.002  -4.670  28.547  0.00  0.00    +0.000 A 
ATOM     13  C   UNL A   1     -24.138  -3.325  28.566  0.00  0.00    +0.000 A 
ENDBRANCH   3   8
BRANCH   2  14
ATOM     14  C   UNL A   1     -23.713   1.572  27.613  0.00  0.00    +0.343 C 
ATOM     15  N   UNL A   1     -22.801   2.043  27.700  0.00  0.00    -0.039 NA
ATOM     16  N   UNL A   1     -24.261   1.663  26.244  0.00  0.00    -0.080 N 
ATOM     17  C   UNL A   1     -22.231   2.350  26.507  0.00  0.00    +0.398 C 
ATOM     18  N   UNL A   1     -23.048   1.869  25.586  0.00  0.00    +0.028 NA
BRANCH  16  19
ATOM     19  C   UNL A   1     -25.430   1.313  25.614  0.00  0.00    +0.160 A 
ATOM     20  C   UNL A   1     -26.427   2.321  25.546  0.00  0.00    +0.043 A 
ATOM     21  C   UNL A   1     -25.779   0.160  25.071  0.00  0.00    +0.043 A 
ATOM     22  C   UNL A   1     -27.632   2.150  24.894  0.00  0.00    +0.015 A 
ATOM     23  C   UNL A   1     -27.894   0.940  24.290  0.00  0.00    +0.058 A 
ATOM     24  C   UNL A   1     -26.975  -0.063  24.387  0.00  0.00    +0.015 A 
ATOM     25 CL   UNL A   1     -29.363   0.724  23.490  0.00  0.00    -0.082 Cl
ENDBRANCH  16  19
ENDBRANCH   2  14
TORSDOF 3
ENDMDL
ENDMDL
