REMARK  Name = No_2712-gen_results/8p0m/2024-11-26-14-13-15/
REMARK  5 active torsions:
REMARK  status: ('A' for Active; 'I' for Inactive)
REMARK    1  A    between atoms: C_3  and  C_7
REMARK    2  A    between atoms: C_7  and  C_8
REMARK    3  A    between atoms: C_8  and  C_10
REMARK    4  A    between atoms: C_11  and  C_12
REMARK    5  A    between atoms: C_13  and  C_14
REMARK                            x       y       z     vdW  Elec       q    Type
REMARK                         _______ _______ _______ _____ _____    ______ ____
ROOT
ATOM      1  C   UNL A   1     -26.462   0.196  27.137  0.00  0.00    +0.027 C 
ATOM      2  C   UNL A   1     -25.169  -0.384  26.989  0.00  0.00    +0.005 C 
ENDROOT
BRANCH   1   5
ATOM      3  C   UNL A   1     -28.016  -0.814  28.878  0.00  0.00    -0.004 A 
ATOM      4  C   UNL A   1     -28.469  -0.785  29.829  0.00  0.00    -0.000 A 
ATOM      5  C   UNL A   1     -27.136   0.236  28.535  0.00  0.00    -0.022 A 
ATOM      6  C   UNL A   1     -26.805   1.051  29.276  0.00  0.00    -0.004 A 
ATOM      7  C   UNL A   1     -28.237   0.150  30.930  0.00  0.00    -0.000 A 
ATOM      8  C   UNL A   1     -27.352   1.124  30.607  0.00  0.00    -0.000 A 
ENDBRANCH   1   5
BRANCH   1   9
ATOM      9  C   UNL A   1     -27.026   0.789  26.161  0.00  0.00    +0.030 C 
BRANCH   9  10
ATOM     10  C   UNL A   1     -28.263   1.343  26.199  0.00  0.00    -0.026 C 
ATOM     11  C   UNL A   1     -28.782   1.835  27.075  0.00  0.00    -0.005 C 
BRANCH  11  12
ATOM     12  C   UNL A   1     -30.125   2.549  26.932  0.00  0.00    -0.000 C 
ATOM     13  C   UNL A   1     -30.824   3.101  28.016  0.00  0.00    -0.000 C 
BRANCH  13  14
ATOM     14  C   UNL A   1     -32.049   3.611  27.887  0.00  0.00    -0.005 C 
ATOM     15  C   UNL A   1     -32.602   3.685  26.586  0.00  0.00    -0.026 C 
ATOM     16  C   UNL A   1     -31.951   3.189  25.506  0.00  0.00    +0.031 C 
ENDBRANCH  13  14
ENDBRANCH  11  12
ENDBRANCH   9  10
ENDBRANCH   1   9
TORSDOF 5
