MODEL 2712
MODEL 1
REMARK VINA RESULT:    -5.994      0.000      0.000
REMARK INTER + INTRA:          -8.598
REMARK INTER:                  -7.745
REMARK INTRA:                  -0.853
REMARK UNBOUND:                -0.853
REMARK  Name = No_2712-gen_results/8p0m/2024-11-26-14-13-15/
REMARK  5 active torsions:
REMARK  status: ('A' for Active; 'I' for Inactive)
REMARK    1  A    between atoms: C_3  and  C_7
REMARK    2  A    between atoms: C_7  and  C_8
REMARK    3  A    between atoms: C_8  and  C_10
REMARK    4  A    between atoms: C_11  and  C_12
REMARK    5  A    between atoms: C_13  and  C_14
REMARK                            x       y       z     vdW  Elec       q    Type
REMARK                         _______ _______ _______ _____ _____    ______ ____
ROOT
ATOM      1  C   UNL A   1     -10.645   0.404  37.021  0.00  0.00    +0.027 C 
ATOM      2  C   UNL A   1     -11.498   1.154  36.161  0.00  0.00    +0.005 C 
ENDROOT
BRANCH   1   5
ATOM      3  C   UNL A   1     -11.423  -1.958  37.550  0.00  0.00    -0.004 A 
ATOM      4  C   UNL A   1     -11.835  -2.659  38.221  0.00  0.00    -0.000 A 
ATOM      5  C   UNL A   1     -11.256  -0.632  38.004  0.00  0.00    -0.022 A 
ATOM      6  C   UNL A   1     -11.438  -0.308  39.092  0.00  0.00    -0.004 A 
ATOM      7  C   UNL A   1     -12.172  -2.491  39.634  0.00  0.00    -0.000 A 
ATOM      8  C   UNL A   1     -11.959  -1.226  40.073  0.00  0.00    -0.000 A 
ENDBRANCH   1   5
BRANCH   1   9
ATOM      9  C   UNL A   1      -9.378   0.484  36.915  0.00  0.00    +0.030 C 
BRANCH   9  10
ATOM     10  C   UNL A   1      -8.623  -0.248  36.061  0.00  0.00    -0.026 C 
ATOM     11  C   UNL A   1      -8.310   0.012  35.006  0.00  0.00    -0.005 C 
BRANCH  11  12
ATOM     12  C   UNL A   1      -7.331  -0.849  34.209  0.00  0.00    -0.000 C 
ATOM     13  C   UNL A   1      -6.454  -1.770  34.802  0.00  0.00    -0.000 C 
BRANCH  13  14
ATOM     14  C   UNL A   1      -5.526  -2.421  34.102  0.00  0.00    -0.005 C 
ATOM     15  C   UNL A   1      -4.171  -2.063  34.304  0.00  0.00    -0.026 C 
ATOM     16  C   UNL A   1      -3.808  -1.143  35.230  0.00  0.00    +0.031 C 
ENDBRANCH  13  14
ENDBRANCH  11  12
ENDBRANCH   9  10
ENDBRANCH   1   9
TORSDOF 5
ENDMDL
ENDMDL
