MODEL 2713
MODEL 1
REMARK VINA RESULT:    -5.154      0.000      0.000
REMARK INTER + INTRA:          -5.154
REMARK INTER:                  -5.154
REMARK INTRA:                   0.000
REMARK UNBOUND:                 0.000
REMARK  Name = No_2713-gen_results/8p0m/2024-11-26-14-13-15/
REMARK  0 active torsions:
REMARK  status: ('A' for Active; 'I' for Inactive)
REMARK                            x       y       z     vdW  Elec       q    Type
REMARK                         _______ _______ _______ _____ _____    ______ ____
ROOT
ATOM      1  C   UNL A   1     -25.749  -1.360  30.257  0.00  0.00    +0.099 A 
ATOM      2  C   UNL A   1     -25.517  -2.475  29.849  0.00  0.00    +0.019 A 
ATOM      3  C   UNL A   1     -26.348  -3.556  30.065  0.00  0.00    +0.002 A 
ATOM      4  C   UNL A   1     -26.078  -4.925  29.664  0.00  0.00    +0.000 A 
ATOM      5  C   UNL A   1     -24.874  -5.208  28.983  0.00  0.00    +0.000 A 
ATOM      6  C   UNL A   1     -23.991  -4.091  28.764  0.00  0.00    +0.000 A 
ATOM      7  C   UNL A   1     -24.251  -2.808  29.185  0.00  0.00    +0.003 A 
ATOM      8  N   UNL A   1     -24.792  -0.319  29.981  0.00  0.00    -0.242 NA
ATOM      9  C   UNL A   1     -23.537  -0.591  29.546  0.00  0.00    +0.099 A 
ATOM     10  C   UNL A   1     -23.250  -1.858  29.074  0.00  0.00    +0.021 A 
ENDROOT
TORSDOF 0
ENDMDL
ENDMDL
