MODEL 2714
MODEL 1
REMARK VINA RESULT:    -7.159      0.000      0.000
REMARK INTER + INTRA:         -11.811
REMARK INTER:                 -10.507
REMARK INTRA:                  -1.304
REMARK UNBOUND:                -1.304
REMARK  Name = No_2714-gen_results/8p0m/2024-11-26-14-13-15/
REMARK  8 active torsions:
REMARK  status: ('A' for Active; 'I' for Inactive)
REMARK    1  A    between atoms: C_2  and  C_3
REMARK    2  A    between atoms: C_3  and  P_5
REMARK    3  A    between atoms: P_5  and  O_6
REMARK    4  A    between atoms: P_5  and  O_8
REMARK    5  A    between atoms: O_6  and  C_9
REMARK    6  A    between atoms: C_9  and  C_11
REMARK    7  A    between atoms: C_11  and  N_18
REMARK    8  A    between atoms: C_19  and  C_20
REMARK                            x       y       z     vdW  Elec       q    Type
REMARK                         _______ _______ _______ _____ _____    ______ ____
ROOT
ATOM      1  C   UNL A   1     -12.309   2.517  37.434  0.00  0.00    +0.137 C 
ATOM      2  C   UNL A   1     -13.539   3.204  37.573  0.00  0.00    -0.008 C 
ATOM      3  C   UNL A   1     -14.658   2.803  36.788  0.00  0.00    +0.025 C 
ATOM      4  C   UNL A   1     -15.531   3.839  36.395  0.00  0.00    +0.009 C 
ATOM      5  C   UNL A   1     -16.658   3.778  36.936  0.00  0.00    +0.026 C 
ATOM      6  C   UNL A   1     -16.488   3.881  38.174  0.00  0.00    -0.030 C 
ATOM      7  C   UNL A   1     -15.375   3.256  38.800  0.00  0.00    -0.026 C 
ATOM      8  C   UNL A   1     -14.023   3.407  38.655  0.00  0.00    +0.050 C 
ENDROOT
BRANCH   1   9
ATOM      9  O   UNL A   1     -11.342   3.051  36.767  0.00  0.00    -0.424 OA
BRANCH   9  10
ATOM     10  P   UNL A   1     -11.030   2.493  35.535  0.00  0.00    +0.430 P 
ATOM     11  O   UNL A   1     -11.869   1.173  35.359  0.00  0.00    -0.240 OA
BRANCH  10  12
ATOM     12  O   UNL A   1     -12.071   3.378  34.512  0.00  0.00    -0.095 OA
ATOM     13  F   UNL A   1     -13.010   2.973  33.987  0.00  0.00    -0.038 F 
ENDBRANCH  10  12
BRANCH  10  14
ATOM     14  C   UNL A   1      -9.809   2.492  35.087  0.00  0.00    +0.218 C 
BRANCH  14  16
ATOM     15  O   UNL A   1      -9.949   1.766  32.975  0.00  0.00    -0.272 OA
ATOM     16  C   UNL A   1      -9.313   2.019  34.004  0.00  0.00    +0.263 C 
ATOM     17  N   UNL A   1      -8.049   1.375  34.197  0.00  0.00    -0.130 NA
ATOM     18  C   UNL A   1      -7.561   0.234  34.738  0.00  0.00    +0.332 C 
ATOM     19 CL   UNL A   1      -6.142  -0.382  34.740  0.00  0.00    -0.020 Cl
ATOM     20  O   UNL A   1      -8.527  -0.368  35.466  0.00  0.00    -0.255 OA
ENDBRANCH  14  16
ENDBRANCH  10  14
ENDBRANCH   9  10
ENDBRANCH   1   9
BRANCH   1  21
ATOM     21  C   UNL A   1     -11.908   2.125  38.859  0.00  0.00    +0.158 C 
BRANCH  21  22
ATOM     22  N   UNL A   1     -10.596   1.772  38.897  0.00  0.00    -0.267 N 
ATOM     23  C   UNL A   1     -10.107   0.524  38.609  0.00  0.00    +0.249 C 
ATOM     24  C   UNL A   1      -9.590   2.783  39.135  0.00  0.00    +0.116 C 
ATOM     25  O   UNL A   1      -8.896   0.258  38.731  0.00  0.00    -0.270 OA
BRANCH  23  26
ATOM     26  C   UNL A   1     -10.973  -0.582  38.520  0.00  0.00    +0.054 A 
ATOM     27  C   UNL A   1     -11.021  -1.268  37.622  0.00  0.00    +0.004 A 
ATOM     28  C   UNL A   1     -11.711  -2.583  37.585  0.00  0.00    +0.000 A 
ATOM     29  C   UNL A   1     -12.387  -2.937  38.771  0.00  0.00    +0.000 A 
ATOM     30  C   UNL A   1     -12.306  -2.135  39.909  0.00  0.00    +0.000 A 
ATOM     31  C   UNL A   1     -11.565  -1.020  39.851  0.00  0.00    +0.004 A 
ENDBRANCH  23  26
ENDBRANCH  21  22
ENDBRANCH   1  21
TORSDOF 8
ENDMDL
ENDMDL
