REMARK  Name = No_2714-gen_results/8p0m/2024-11-26-14-13-15/
REMARK  8 active torsions:
REMARK  status: ('A' for Active; 'I' for Inactive)
REMARK    1  A    between atoms: C_2  and  C_3
REMARK    2  A    between atoms: C_3  and  P_5
REMARK    3  A    between atoms: P_5  and  O_6
REMARK    4  A    between atoms: P_5  and  O_8
REMARK    5  A    between atoms: O_6  and  C_9
REMARK    6  A    between atoms: C_9  and  C_11
REMARK    7  A    between atoms: C_11  and  N_18
REMARK    8  A    between atoms: C_19  and  C_20
REMARK                            x       y       z     vdW  Elec       q    Type
REMARK                         _______ _______ _______ _____ _____    ______ ____
ROOT
ATOM      1  C   UNL A   1     -25.550   1.669  27.647  0.00  0.00    +0.137 C 
ATOM      2  C   UNL A   1     -24.139   1.782  27.665  0.00  0.00    -0.008 C 
ATOM      3  C   UNL A   1     -23.345   0.617  27.869  0.00  0.00    +0.025 C 
ATOM      4  C   UNL A   1     -22.143   0.814  28.581  0.00  0.00    +0.009 C 
ATOM      5  C   UNL A   1     -21.115   0.654  27.885  0.00  0.00    +0.026 C 
ATOM      6  C   UNL A   1     -21.148   1.504  26.964  0.00  0.00    -0.030 C 
ATOM      7  C   UNL A   1     -22.378   1.830  26.332  0.00  0.00    -0.026 C 
ATOM      8  C   UNL A   1     -23.547   2.368  26.797  0.00  0.00    +0.050 C 
ENDROOT
BRANCH   1   9
ATOM      9  O   UNL A   1     -26.242   2.039  28.671  0.00  0.00    -0.424 OA
BRANCH   9  10
ATOM     10  P   UNL A   1     -26.263   1.191  29.770  0.00  0.00    +0.430 P 
ATOM     11  O   UNL A   1     -24.812   1.125  30.375  0.00  0.00    -0.240 OA
BRANCH  10  12
ATOM     12  O   UNL A   1     -26.801   2.261  30.987  0.00  0.00    -0.095 OA
ATOM     13  F   UNL A   1     -27.876   2.350  31.383  0.00  0.00    -0.038 F 
ENDBRANCH  10  12
BRANCH  10  14
ATOM     14  C   UNL A   1     -26.959   0.093  29.758  0.00  0.00    +0.218 C 
BRANCH  14  16
ATOM     15  O   UNL A   1     -28.123  -1.335  28.487  0.00  0.00    -0.272 OA
ATOM     16  C   UNL A   1     -27.064  -0.824  28.869  0.00  0.00    +0.263 C 
ATOM     17  N   UNL A   1     -25.847  -1.549  28.659  0.00  0.00    -0.130 NA
ATOM     18  C   UNL A   1     -25.088  -2.469  29.300  0.00  0.00    +0.332 C 
ATOM     19 CL   UNL A   1     -23.838  -3.264  28.855  0.00  0.00    -0.020 Cl
ATOM     20  O   UNL A   1     -25.508  -2.588  30.578  0.00  0.00    -0.255 OA
ENDBRANCH  14  16
ENDBRANCH  10  14
ENDBRANCH   9  10
ENDBRANCH   1   9
BRANCH   1  21
ATOM     21  C   UNL A   1     -25.988   2.353  26.349  0.00  0.00    +0.158 C 
BRANCH  21  22
ATOM     22  N   UNL A   1     -26.487   1.434  25.480  0.00  0.00    -0.267 N 
ATOM     23  C   UNL A   1     -27.684   1.542  24.821  0.00  0.00    +0.249 C 
ATOM     24  C   UNL A   1     -25.677   0.299  25.097  0.00  0.00    +0.116 C 
ATOM     25  O   UNL A   1     -28.106   0.625  24.090  0.00  0.00    -0.270 OA
BRANCH  23  26
ATOM     26  C   UNL A   1     -28.635   2.501  25.215  0.00  0.00    +0.054 A 
ATOM     27  C   UNL A   1     -29.663   2.237  25.609  0.00  0.00    +0.004 A 
ATOM     28  C   UNL A   1     -30.591   3.183  26.280  0.00  0.00    +0.000 A 
ATOM     29  C   UNL A   1     -30.131   4.514  26.364  0.00  0.00    +0.000 A 
ATOM     30  C   UNL A   1     -28.851   4.858  25.932  0.00  0.00    +0.000 A 
ATOM     31  C   UNL A   1     -28.064   3.893  25.437  0.00  0.00    +0.004 A 
ENDBRANCH  23  26
ENDBRANCH  21  22
ENDBRANCH   1  21
TORSDOF 8
