MODEL 2716
MODEL 1
REMARK VINA RESULT:    -5.139      0.000      0.000
REMARK INTER + INTRA:          -5.998
REMARK INTER:                  -5.740
REMARK INTRA:                  -0.257
REMARK UNBOUND:                -0.257
REMARK  Name = No_2716-gen_results/8p0m/2024-11-26-14-13-15/
REMARK  2 active torsions:
REMARK  status: ('A' for Active; 'I' for Inactive)
REMARK    1  A    between atoms: C_3  and  C_7
REMARK    2  A    between atoms: C_8  and  C_9
REMARK                            x       y       z     vdW  Elec       q    Type
REMARK                         _______ _______ _______ _____ _____    ______ ____
ROOT
ATOM      1  C   UNL A   1     -23.911  -3.522  28.623  0.00  0.00    +0.000 A 
ATOM      2  C   UNL A   1     -24.046  -4.567  28.622  0.00  0.00    +0.000 A 
ATOM      3  C   UNL A   1     -24.914  -2.755  29.305  0.00  0.00    +0.000 A 
ATOM      4  C   UNL A   1     -26.046  -3.288  29.774  0.00  0.00    +0.000 A 
ATOM      5  C   UNL A   1     -25.194  -5.354  29.049  0.00  0.00    +0.000 A 
ATOM      6  C   UNL A   1     -26.141  -4.656  29.662  0.00  0.00    +0.000 A 
ENDROOT
BRANCH   3   7
ATOM      7  C   UNL A   1     -24.690  -1.241  29.415  0.00  0.00    +0.000 C 
ATOM      8  C   UNL A   1     -24.264  -0.679  30.323  0.00  0.00    +0.000 C 
BRANCH   8   9
ATOM      9  C   UNL A   1     -23.913  -1.427  31.507  0.00  0.00    +0.000 C 
ATOM     10  C   UNL A   1     -23.044  -1.110  32.249  0.00  0.00    +0.000 C 
ENDBRANCH   8   9
ENDBRANCH   3   7
TORSDOF 2
ENDMDL
ENDMDL
