MODEL 2717
MODEL 1
REMARK VINA RESULT:    -4.280      0.000      0.000
REMARK INTER + INTRA:          -4.280
REMARK INTER:                  -4.280
REMARK INTRA:                   0.000
REMARK UNBOUND:                 0.000
REMARK  Name = No_2717-gen_results/8p0m/2024-11-26-14-13-15/
REMARK  0 active torsions:
REMARK  status: ('A' for Active; 'I' for Inactive)
REMARK                            x       y       z     vdW  Elec       q    Type
REMARK                         _______ _______ _______ _____ _____    ______ ____
ROOT
ATOM      1  C   UNL A   1     -24.145  -4.864  28.634  0.00  0.00    +0.000 A 
ATOM      2  C   UNL A   1     -25.042  -5.257  29.023  0.00  0.00    +0.000 A 
ATOM      3  C   UNL A   1     -24.040  -3.411  28.757  0.00  0.00    +0.000 A 
ATOM      4  C   UNL A   1     -25.023  -2.655  29.347  0.00  0.00    +0.000 A 
ATOM      5  C   UNL A   1     -26.226  -4.715  29.690  0.00  0.00    +0.000 A 
ATOM      6  C   UNL A   1     -26.134  -3.308  29.814  0.00  0.00    +0.000 A 
ENDROOT
TORSDOF 0
ENDMDL
ENDMDL
