MODEL 2718
MODEL 1
REMARK VINA RESULT:    -5.457      0.000      0.000
REMARK INTER + INTRA:          -8.228
REMARK INTER:                  -7.372
REMARK INTRA:                  -0.857
REMARK UNBOUND:                -0.857
REMARK  Name = No_2718-gen_results/8p0m/2024-11-26-14-13-15/
REMARK  6 active torsions:
REMARK  status: ('A' for Active; 'I' for Inactive)
REMARK    1  A    between atoms: C_2  and  C_14
REMARK    2  A    between atoms: C_4  and  C_7
REMARK    3  A    between atoms: C_7  and  C_8
REMARK    4  A    between atoms: C_8  and  C_9
REMARK    5  A    between atoms: C_8  and  C_13
REMARK    6  A    between atoms: C_13  and  C_17
REMARK                            x       y       z     vdW  Elec       q    Type
REMARK                         _______ _______ _______ _____ _____    ______ ____
ROOT
ATOM      1  C   UNL A   1      -6.567  -0.404  10.098  0.00  0.00    +0.209 C 
ATOM      2  O   UNL A   1      -6.872  -1.615   9.722  0.00  0.00    -0.288 OA
ENDROOT
BRANCH   1   6
ATOM      3  C   UNL A   1      -9.532   2.047  10.186  0.00  0.00    +0.007 A 
ATOM      4  C   UNL A   1      -9.547   2.237   9.150  0.00  0.00    +0.080 A 
ATOM      5  C   UNL A   1      -8.497   1.046  10.648  0.00  0.00    +0.003 A 
ATOM      6  C   UNL A   1      -7.551   0.553   9.724  0.00  0.00    +0.037 A 
ATOM      7  C   UNL A   1      -8.675   1.893   8.004  0.00  0.00    +0.007 A 
ATOM      8  C   UNL A   1      -7.706   0.978   8.392  0.00  0.00    +0.003 A 
BRANCH   4   9
ATOM      9  C   UNL A   1     -10.654   3.319   8.629  0.00  0.00    +0.388 C 
ATOM     10  O   UNL A   1     -11.824   2.856   8.235  0.00  0.00    -0.241 OA
ATOM     11  O   UNL A   1     -10.335   4.464   8.392  0.00  0.00    -0.241 OA
ENDBRANCH   4   9
ENDBRANCH   1   6
BRANCH   1  12
ATOM     12  C   UNL A   1      -5.431   0.130  10.774  0.00  0.00    +0.269 C 
ATOM     13  O   UNL A   1      -4.516  -1.151  10.586  0.00  0.00    -0.209 OA
BRANCH  12  14
ATOM     14  C   UNL A   1      -5.266   0.468  11.931  0.00  0.00    +0.429 C 
ATOM     15  F   UNL A   1      -4.196   0.176  12.439  0.00  0.00    -0.167 F 
ATOM     16  F   UNL A   1      -5.398   1.757  12.245  0.00  0.00    -0.167 F 
ATOM     17  F   UNL A   1      -6.163  -0.170  12.783  0.00  0.00    -0.167 F 
ENDBRANCH  12  14
BRANCH  12  18
ATOM     18  C   UNL A   1      -4.714   1.035   9.715  0.00  0.00    +0.082 C 
BRANCH  18  19
ATOM     19  C   UNL A   1      -3.867   0.189   8.951  0.00  0.00    +0.185 C 
ATOM     20  O   UNL A   1      -4.198   0.324   7.596  0.00  0.00    -0.220 OA
ENDBRANCH  18  19
ENDBRANCH  12  18
ENDBRANCH   1  12
TORSDOF 6
ENDMDL
ENDMDL
