REMARK  Name = No_2718-gen_results/8p0m/2024-11-26-14-13-15/
REMARK  6 active torsions:
REMARK  status: ('A' for Active; 'I' for Inactive)
REMARK    1  A    between atoms: C_2  and  C_14
REMARK    2  A    between atoms: C_4  and  C_7
REMARK    3  A    between atoms: C_7  and  C_8
REMARK    4  A    between atoms: C_8  and  C_9
REMARK    5  A    between atoms: C_8  and  C_13
REMARK    6  A    between atoms: C_13  and  C_17
REMARK                            x       y       z     vdW  Elec       q    Type
REMARK                         _______ _______ _______ _____ _____    ______ ____
ROOT
ATOM      1  C   UNL A   1     -24.389  -0.805  30.164  0.00  0.00    +0.209 C 
ATOM      2  O   UNL A   1     -23.856  -1.968  30.414  0.00  0.00    -0.288 OA
ENDROOT
BRANCH   1   6
ATOM      3  C   UNL A   1     -28.016  -0.814  28.878  0.00  0.00    +0.007 A 
ATOM      4  C   UNL A   1     -28.469  -0.785  29.829  0.00  0.00    +0.080 A 
ATOM      5  C   UNL A   1     -26.504  -0.778  28.877  0.00  0.00    +0.003 A 
ATOM      6  C   UNL A   1     -25.810  -0.853  30.103  0.00  0.00    +0.037 A 
ATOM      7  C   UNL A   1     -27.991  -0.892  31.226  0.00  0.00    +0.007 A 
ATOM      8  C   UNL A   1     -26.604  -0.868  31.265  0.00  0.00    +0.003 A 
BRANCH   4   9
ATOM      9  C   UNL A   1     -30.101  -0.827  29.854  0.00  0.00    +0.388 C 
ATOM     10  O   UNL A   1     -30.723   0.012  30.658  0.00  0.00    -0.241 OA
ATOM     11  O   UNL A   1     -30.704  -1.744  29.338  0.00  0.00    -0.241 OA
ENDBRANCH   4   9
ENDBRANCH   1   6
BRANCH   1  12
ATOM     12  C   UNL A   1     -23.817   0.476  29.912  0.00  0.00    +0.269 C 
ATOM     13  O   UNL A   1     -22.519   0.247  30.794  0.00  0.00    -0.209 OA
BRANCH  12  14
ATOM     14  C   UNL A   1     -24.195   1.598  30.192  0.00  0.00    +0.429 C 
ATOM     15  F   UNL A   1     -24.552   1.783  31.344  0.00  0.00    -0.167 F 
ATOM     16  F   UNL A   1     -23.373   2.623  29.971  0.00  0.00    -0.167 F 
ATOM     17  F   UNL A   1     -25.344   1.941  29.485  0.00  0.00    -0.167 F 
ENDBRANCH  12  14
BRANCH  12  18
ATOM     18  C   UNL A   1     -23.123   0.345  28.513  0.00  0.00    +0.082 C 
BRANCH  18  19
ATOM     19  C   UNL A   1     -21.877   1.020  28.602  0.00  0.00    +0.185 C 
ATOM     20  O   UNL A   1     -21.828   2.009  27.610  0.00  0.00    -0.220 OA
ENDBRANCH  18  19
ENDBRANCH  12  18
ENDBRANCH   1  12
TORSDOF 6
