REMARK  Name = No_2719-gen_results/8p0m/2024-11-26-14-13-15/
REMARK  3 active torsions:
REMARK  status: ('A' for Active; 'I' for Inactive)
REMARK    1  A    between atoms: C_2  and  C_17
REMARK    2  A    between atoms: C_4  and  C_7
REMARK    3  A    between atoms: C_8  and  C_14
REMARK                            x       y       z     vdW  Elec       q    Type
REMARK                         _______ _______ _______ _____ _____    ______ ____
ROOT
ATOM      1  C   UNL A   1     -24.389  -0.805  30.164  0.00  0.00    +0.045 C 
ATOM      2  C   UNL A   1     -23.817   0.476  29.912  0.00  0.00    +0.111 C 
ATOM      3  C   UNL A   1     -22.501   0.545  29.410  0.00  0.00    +0.049 C 
ATOM      4  C   UNL A   1     -21.770  -0.652  29.213  0.00  0.00    +0.165 C 
ATOM      5  C   UNL A   1     -23.694  -1.821  29.252  0.00  0.00    +0.095 C 
ATOM      6  N   UNL A   1     -22.327  -1.724  29.165  0.00  0.00    -0.201 NA
ATOM      7  C   UNL A   1     -23.853  -1.274  31.654  0.00  0.00    +0.006 C 
ATOM      8  N   UNL A   1     -20.487  -0.356  28.656  0.00  0.00    -0.114 NA
ENDROOT
BRANCH   1  12
ATOM      9  C   UNL A   1     -28.016  -0.814  28.878  0.00  0.00    +0.006 A 
ATOM     10  C   UNL A   1     -28.469  -0.785  29.829  0.00  0.00    +0.080 A 
ATOM     11  C   UNL A   1     -26.504  -0.778  28.877  0.00  0.00    -0.004 A 
ATOM     12  C   UNL A   1     -25.810  -0.853  30.103  0.00  0.00    -0.021 A 
ATOM     13  C   UNL A   1     -27.991  -0.892  31.226  0.00  0.00    +0.006 A 
ATOM     14  C   UNL A   1     -26.604  -0.868  31.265  0.00  0.00    -0.004 A 
BRANCH  10  15
ATOM     15  C   UNL A   1     -30.038  -0.735  29.646  0.00  0.00    +0.388 C 
ATOM     16  O   UNL A   1     -30.457  -0.377  28.689  0.00  0.00    -0.241 OA
ATOM     17  O   UNL A   1     -30.815  -1.080  30.689  0.00  0.00    -0.241 OA
ENDBRANCH  10  15
ENDBRANCH   1  12
BRANCH   2  18
ATOM     18  C   UNL A   1     -24.440   1.731  30.337  0.00  0.00    +0.365 C 
ATOM     19  O   UNL A   1     -24.914   2.491  29.424  0.00  0.00    -0.246 OA
ATOM     20  O   UNL A   1     -24.272   2.190  31.598  0.00  0.00    -0.246 OA
ENDBRANCH   2  18
TORSDOF 3
