MODEL 271
MODEL 1
REMARK VINA RESULT:    -5.014      0.000      0.000
REMARK INTER + INTRA:          -5.014
REMARK INTER:                  -5.014
REMARK INTRA:                   0.000
REMARK UNBOUND:                 0.000
REMARK  Name = No_271-gen_results/8p0m/2024-11-26-14-13-15/
REMARK  0 active torsions:
REMARK  status: ('A' for Active; 'I' for Inactive)
REMARK                            x       y       z     vdW  Elec       q    Type
REMARK                         _______ _______ _______ _____ _____    ______ ____
ROOT
ATOM      1  C   UNL A   1     -10.519  -9.297  19.137  0.00  0.00    +0.042 A 
ATOM      2  C   UNL A   1      -9.792  -9.100  20.083  0.00  0.00    +0.003 A 
ATOM      3  C   UNL A   1      -8.495  -9.602  20.110  0.00  0.00    +0.000 A 
ATOM      4  C   UNL A   1      -7.993 -10.413  19.031  0.00  0.00    +0.003 A 
ATOM      5  C   UNL A   1      -8.908 -10.612  17.988  0.00  0.00    +0.042 A 
ATOM      6  C   UNL A   1     -10.129 -10.128  18.019  0.00  0.00    +0.196 A 
ATOM      7  O   UNL A   1     -10.968 -10.400  16.983  0.00  0.00    -0.287 OA
ENDROOT
TORSDOF 0
ENDMDL
ENDMDL
