REMARK  Name = No_272-gen_results/8p0m/2024-11-26-14-13-15/
REMARK  3 active torsions:
REMARK  status: ('A' for Active; 'I' for Inactive)
REMARK    1  A    between atoms: C_1  and  C_2
REMARK    2  A    between atoms: C_1  and  N_8
REMARK    3  A    between atoms: N_8  and  C_9
REMARK                            x       y       z     vdW  Elec       q    Type
REMARK                         _______ _______ _______ _____ _____    ______ ____
ROOT
ATOM      1  C   UNL A   1     -27.064  -0.119  28.608  0.00  0.00    -0.001 A 
ATOM      2  C   UNL A   1     -26.929   1.171  29.008  0.00  0.00    -0.003 A 
ATOM      3  C   UNL A   1     -25.770   2.034  28.688  0.00  0.00    -0.000 A 
ATOM      4  C   UNL A   1     -24.714   1.443  27.919  0.00  0.00    -0.000 A 
ATOM      5  C   UNL A   1     -24.859   0.078  27.584  0.00  0.00    -0.000 A 
ATOM      6  C   UNL A   1     -25.965  -0.661  27.916  0.00  0.00    -0.003 A 
ENDROOT
BRANCH   1   7
ATOM      7  C   UNL A   1     -28.016  -0.814  28.878  0.00  0.00    +0.139 C 
BRANCH   7   8
ATOM      8  N   UNL A   1     -29.178  -0.305  28.964  0.00  0.00    -0.232 NA
BRANCH   8   9
ATOM      9  C   UNL A   1     -29.743   0.364  28.067  0.00  0.00    +0.076 C 
ATOM     10  C   UNL A   1     -29.497   0.732  27.131  0.00  0.00    -0.008 C 
ATOM     11  C   UNL A   1     -30.267   1.443  26.088  0.00  0.00    +0.032 C 
ENDBRANCH   8   9
ENDBRANCH   7   8
ENDBRANCH   1   7
TORSDOF 3
