MODEL 2720
MODEL 1
REMARK VINA RESULT:    -6.328      0.000      0.000
REMARK INTER + INTRA:         -10.036
REMARK INTER:                  -9.288
REMARK INTRA:                  -0.748
REMARK UNBOUND:                -0.748
REMARK  Name = No_2720-gen_results/8p0m/2024-11-26-14-13-15/
REMARK  8 active torsions:
REMARK  status: ('A' for Active; 'I' for Inactive)
REMARK    1  A    between atoms: C_1  and  C_2
REMARK    2  A    between atoms: C_1  and  C_8
REMARK    3  A    between atoms: C_5  and  C_11
REMARK    4  A    between atoms: C_8  and  C_15
REMARK    5  A    between atoms: C_9  and  C_10
REMARK    6  A    between atoms: C_15  and  N_16
REMARK    7  A    between atoms: N_16  and  C_17
REMARK    8  A    between atoms: C_17  and  C_20
REMARK                            x       y       z     vdW  Elec       q    Type
REMARK                         _______ _______ _______ _____ _____    ______ ____
ROOT
ATOM      1  C   UNL A   1     -22.895  -1.180  29.426  0.00  0.00    +0.050 C 
ENDROOT
BRANCH   1   2
ATOM      2  C   UNL A   1     -22.981  -0.234  28.677  0.00  0.00    -0.018 A 
ATOM      3  C   UNL A   1     -22.108   0.712  28.480  0.00  0.00    -0.004 A 
ATOM      4  C   UNL A   1     -22.249   1.856  27.545  0.00  0.00    +0.004 A 
ATOM      5  C   UNL A   1     -23.436   1.888  26.760  0.00  0.00    +0.071 A 
ATOM      6  C   UNL A   1     -24.334   0.828  26.925  0.00  0.00    +0.004 A 
ATOM      7  C   UNL A   1     -24.138  -0.195  27.796  0.00  0.00    -0.004 A 
BRANCH   5   8
ATOM      8  C   UNL A   1     -23.703   2.957  25.827  0.00  0.00    +0.419 C 
ATOM      9  F   UNL A   1     -23.046   3.205  25.049  0.00  0.00    -0.166 F 
ATOM     10  F   UNL A   1     -25.039   2.708  25.303  0.00  0.00    -0.166 F 
ATOM     11  F   UNL A   1     -23.990   4.182  26.582  0.00  0.00    -0.166 F 
ENDBRANCH   5   8
ENDBRANCH   1   2
BRANCH   1  12
ATOM     12  C   UNL A   1     -23.760  -1.197  30.688  0.00  0.00    -0.021 C 
ATOM     13  C   UNL A   1     -23.591  -0.834  31.643  0.00  0.00    -0.012 C 
BRANCH  13  14
ATOM     14  C   UNL A   1     -24.630  -0.638  32.754  0.00  0.00    +0.135 C 
ATOM     15  N   UNL A   1     -25.170   0.591  32.940  0.00  0.00    -0.126 NA
ENDBRANCH  13  14
BRANCH  12  16
ATOM     16  C   UNL A   1     -24.823  -2.091  30.734  0.00  0.00    +0.135 C 
BRANCH  16  17
ATOM     17  N   UNL A   1     -25.444  -2.518  29.508  0.00  0.00    -0.226 NA
BRANCH  17  18
ATOM     18  C   UNL A   1     -25.736  -3.845  29.460  0.00  0.00    +0.164 C 
ATOM     19  C   UNL A   1     -26.996  -4.419  29.939  0.00  0.00    +0.026 C 
BRANCH  18  20
ATOM     20  C   UNL A   1     -24.732  -4.769  29.006  0.00  0.00    +0.491 C 
ATOM     21  N   UNL A   1     -24.747  -6.036  29.557  0.00  0.00    +0.206 NA
ATOM     22  N   UNL A   1     -23.724  -4.379  28.297  0.00  0.00    +0.206 NA
ENDBRANCH  18  20
ENDBRANCH  17  18
ENDBRANCH  16  17
ENDBRANCH  12  16
ENDBRANCH   1  12
TORSDOF 8
ENDMDL
ENDMDL
