REMARK  Name = No_2720-gen_results/8p0m/2024-11-26-14-13-15/
REMARK  8 active torsions:
REMARK  status: ('A' for Active; 'I' for Inactive)
REMARK    1  A    between atoms: C_1  and  C_2
REMARK    2  A    between atoms: C_1  and  C_8
REMARK    3  A    between atoms: C_5  and  C_11
REMARK    4  A    between atoms: C_8  and  C_15
REMARK    5  A    between atoms: C_9  and  C_10
REMARK    6  A    between atoms: C_15  and  N_16
REMARK    7  A    between atoms: N_16  and  C_17
REMARK    8  A    between atoms: C_17  and  C_20
REMARK                            x       y       z     vdW  Elec       q    Type
REMARK                         _______ _______ _______ _____ _____    ______ ____
ROOT
ATOM      1  C   UNL A   1     -28.016  -0.814  28.878  0.00  0.00    +0.050 C 
ENDROOT
BRANCH   1   2
ATOM      2  C   UNL A   1     -27.064  -0.119  28.608  0.00  0.00    -0.018 A 
ATOM      3  C   UNL A   1     -26.876   1.133  28.913  0.00  0.00    -0.004 A 
ATOM      4  C   UNL A   1     -25.688   1.952  28.567  0.00  0.00    +0.004 A 
ATOM      5  C   UNL A   1     -24.639   1.283  27.875  0.00  0.00    +0.071 A 
ATOM      6  C   UNL A   1     -24.818  -0.080  27.617  0.00  0.00    +0.004 A 
ATOM      7  C   UNL A   1     -25.931  -0.772  27.970  0.00  0.00    -0.004 A 
BRANCH   5   8
ATOM      8  C   UNL A   1     -23.438   1.972  27.464  0.00  0.00    +0.419 C 
ATOM      9  F   UNL A   1     -22.491   1.523  27.492  0.00  0.00    -0.166 F 
ATOM     10  F   UNL A   1     -23.712   2.495  26.132  0.00  0.00    -0.166 F 
ATOM     11  F   UNL A   1     -23.354   3.247  28.185  0.00  0.00    -0.166 F 
ENDBRANCH   5   8
ENDBRANCH   1   2
BRANCH   1  12
ATOM     12  C   UNL A   1     -28.089  -1.450  30.268  0.00  0.00    -0.021 C 
ATOM     13  C   UNL A   1     -28.863  -1.518  30.953  0.00  0.00    -0.012 C 
BRANCH  13  14
ATOM     14  C   UNL A   1     -28.925  -2.426  32.188  0.00  0.00    +0.135 C 
ATOM     15  N   UNL A   1     -30.055  -2.439  32.937  0.00  0.00    -0.126 NA
ENDBRANCH  13  14
BRANCH  12  16
ATOM     16  C   UNL A   1     -26.893  -1.728  30.919  0.00  0.00    +0.135 C 
BRANCH  16  17
ATOM     17  N   UNL A   1     -25.659  -1.689  30.180  0.00  0.00    -0.226 NA
BRANCH  17  18
ATOM     18  C   UNL A   1     -24.592  -1.240  30.893  0.00  0.00    +0.164 C 
ATOM     19  C   UNL A   1     -24.708  -0.513  32.160  0.00  0.00    +0.026 C 
BRANCH  18  20
ATOM     20  C   UNL A   1     -23.270  -1.390  30.348  0.00  0.00    +0.491 C 
ATOM     21  N   UNL A   1     -22.262  -0.641  30.926  0.00  0.00    +0.206 NA
ATOM     22  N   UNL A   1     -23.064  -2.008  29.232  0.00  0.00    +0.206 NA
ENDBRANCH  18  20
ENDBRANCH  17  18
ENDBRANCH  16  17
ENDBRANCH  12  16
ENDBRANCH   1  12
TORSDOF 8
