MODEL 2721
MODEL 1
REMARK VINA RESULT:    -7.871      0.000      0.000
REMARK INTER + INTRA:          -9.860
REMARK INTER:                  -9.251
REMARK INTRA:                  -0.609
REMARK UNBOUND:                -0.609
REMARK  Name = No_2721-gen_results/8p0m/2024-11-26-14-13-15/
REMARK  3 active torsions:
REMARK  status: ('A' for Active; 'I' for Inactive)
REMARK    1  A    between atoms: C_3  and  C_8
REMARK    2  A    between atoms: C_9  and  O_11
REMARK    3  A    between atoms: O_11  and  C_16
REMARK                            x       y       z     vdW  Elec       q    Type
REMARK                         _______ _______ _______ _____ _____    ______ ____
ROOT
ATOM      1  C   UNL A   1     -24.177   0.372  27.294  0.00  0.00    +0.056 A 
ATOM      2  C   UNL A   1     -24.073  -0.615  28.235  0.00  0.00    +0.230 A 
ATOM      3  N   UNL A   1     -22.953  -0.613  29.020  0.00  0.00    -0.210 NA
ATOM      4  C   UNL A   1     -21.801   0.223  28.868  0.00  0.00    +0.102 A 
ATOM      5  C   UNL A   1     -23.054   1.301  27.187  0.00  0.00    +0.006 A 
ATOM      6  C   UNL A   1     -22.005   1.163  27.967  0.00  0.00    +0.021 A 
ENDROOT
BRANCH   1   9
ATOM      7  C   UNL A   1     -27.475   1.399  25.958  0.00  0.00    +0.041 A 
ATOM      8  C   UNL A   1     -26.527   1.307  26.704  0.00  0.00    +0.141 A 
ATOM      9  C   UNL A   1     -25.409   0.519  26.436  0.00  0.00    +0.032 A 
ATOM     10  C   UNL A   1     -25.386  -0.288  25.232  0.00  0.00    +0.003 A 
ATOM     11  C   UNL A   1     -26.530  -0.137  24.415  0.00  0.00    +0.011 A 
ATOM     12  C   UNL A   1     -27.538   0.626  24.755  0.00  0.00    +0.060 A 
ATOM     13 CL   UNL A   1     -28.968   0.734  23.860  0.00  0.00    -0.082 Cl
ATOM     14  F   UNL A   1     -26.393   2.066  27.834  0.00  0.00    -0.204 F 
ENDBRANCH   1   9
BRANCH   2  15
ATOM     15  O   UNL A   1     -25.000  -1.453  28.473  0.00  0.00    -0.436 OA
BRANCH  15  16
ATOM     16  C   UNL A   1     -24.855  -2.694  29.057  0.00  0.00    +0.147 A 
ATOM     17  C   UNL A   1     -23.891  -3.542  28.579  0.00  0.00    +0.038 A 
ATOM     18  C   UNL A   1     -24.145  -4.787  28.529  0.00  0.00    +0.003 A 
ATOM     19  C   UNL A   1     -25.224  -5.329  29.291  0.00  0.00    +0.000 A 
ATOM     20  C   UNL A   1     -26.241  -4.498  29.724  0.00  0.00    +0.003 A 
ATOM     21  C   UNL A   1     -26.065  -3.180  29.529  0.00  0.00    +0.038 A 
ENDBRANCH  15  16
ENDBRANCH   2  15
TORSDOF 3
ENDMDL
ENDMDL
