REMARK  Name = No_2721-gen_results/8p0m/2024-11-26-14-13-15/
REMARK  3 active torsions:
REMARK  status: ('A' for Active; 'I' for Inactive)
REMARK    1  A    between atoms: C_3  and  C_8
REMARK    2  A    between atoms: C_9  and  O_11
REMARK    3  A    between atoms: O_11  and  C_16
REMARK                            x       y       z     vdW  Elec       q    Type
REMARK                         _______ _______ _______ _____ _____    ______ ____
ROOT
ATOM      1  C   UNL A   1     -24.522   0.405  28.721  0.00  0.00    +0.056 A 
ATOM      2  C   UNL A   1     -24.082   1.402  29.547  0.00  0.00    +0.230 A 
ATOM      3  N   UNL A   1     -22.995   2.121  29.132  0.00  0.00    -0.210 NA
ATOM      4  C   UNL A   1     -22.171   1.849  27.993  0.00  0.00    +0.102 A 
ATOM      5  C   UNL A   1     -23.754   0.173  27.500  0.00  0.00    +0.006 A 
ATOM      6  C   UNL A   1     -22.690   0.900  27.240  0.00  0.00    +0.021 A 
ENDROOT
BRANCH   1   9
ATOM      7  C   UNL A   1     -28.016  -0.814  28.878  0.00  0.00    +0.041 A 
ATOM      8  C   UNL A   1     -27.064  -0.119  28.608  0.00  0.00    +0.141 A 
ATOM      9  C   UNL A   1     -25.765  -0.390  29.036  0.00  0.00    +0.032 A 
ATOM     10  C   UNL A   1     -25.530  -1.530  29.901  0.00  0.00    +0.003 A 
ATOM     11  C   UNL A   1     -26.689  -2.289  30.181  0.00  0.00    +0.011 A 
ATOM     12  C   UNL A   1     -27.873  -1.951  29.737  0.00  0.00    +0.060 A 
ATOM     13 CL   UNL A   1     -29.293  -2.768  30.152  0.00  0.00    -0.082 Cl
ATOM     14  F   UNL A   1     -27.137   0.942  27.747  0.00  0.00    -0.204 F 
ENDBRANCH   1   9
BRANCH   2  15
ATOM     15  O   UNL A   1     -24.689   1.747  30.610  0.00  0.00    -0.436 OA
BRANCH  15  16
ATOM     16  C   UNL A   1     -25.485   2.862  30.776  0.00  0.00    +0.147 A 
ATOM     17  C   UNL A   1     -26.524   2.807  31.667  0.00  0.00    +0.038 A 
ATOM     18  C   UNL A   1     -27.609   3.403  31.376  0.00  0.00    +0.003 A 
ATOM     19  C   UNL A   1     -27.625   4.405  30.359  0.00  0.00    +0.000 A 
ATOM     20  C   UNL A   1     -26.619   4.433  29.410  0.00  0.00    +0.003 A 
ATOM     21  C   UNL A   1     -25.587   3.594  29.603  0.00  0.00    +0.038 A 
ENDBRANCH  15  16
ENDBRANCH   2  15
TORSDOF 3
