MODEL 2722
MODEL 1
REMARK VINA RESULT:    -8.582      0.000      0.000
REMARK INTER + INTRA:         -14.492
REMARK INTER:                 -12.595
REMARK INTRA:                  -1.897
REMARK UNBOUND:                -1.897
REMARK  Name = No_2722-gen_results/8p0m/2024-11-26-14-13-15/
REMARK  8 active torsions:
REMARK  status: ('A' for Active; 'I' for Inactive)
REMARK    1  A    between atoms: C_6  and  C_18
REMARK    2  A    between atoms: C_10  and  C_12
REMARK    3  A    between atoms: C_17  and  C_22
REMARK    4  A    between atoms: N_23  and  C_25
REMARK    5  A    between atoms: C_25  and  C_26
REMARK    6  A    between atoms: C_26  and  C_27
REMARK    7  A    between atoms: C_32  and  C_33
REMARK    8  A    between atoms: C_33  and  C_34
REMARK                            x       y       z     vdW  Elec       q    Type
REMARK                         _______ _______ _______ _____ _____    ______ ____
ROOT
ATOM      1  C   UNL A   1     -25.178   0.982  25.859  0.00  0.00    +0.002 A 
ATOM      2  C   UNL A   1     -26.168   1.818  26.126  0.00  0.00    +0.000 A 
ATOM      3  C   UNL A   1     -25.310  -0.015  24.801  0.00  0.00    +0.000 A 
ATOM      4  C   UNL A   1     -27.447   1.319  26.248  0.00  0.00    +0.005 A 
ATOM      5  C   UNL A   1     -26.694  -0.351  24.593  0.00  0.00    +0.005 A 
ATOM      6  C   UNL A   1     -27.758   0.344  25.177  0.00  0.00    +0.055 A 
ENDROOT
BRANCH   1  16
ATOM      7  C   UNL A   1     -21.654  -0.264  28.914  0.00  0.00    -0.000 A 
ATOM      8  C   UNL A   1     -22.201   0.559  28.218  0.00  0.00    +0.000 A 
ATOM      9  C   UNL A   1     -23.450   0.594  27.852  0.00  0.00    +0.002 A 
ATOM     10  C   UNL A   1     -24.309  -0.457  28.296  0.00  0.00    +0.002 A 
ATOM     11  C   UNL A   1     -22.486  -1.299  29.498  0.00  0.00    +0.002 A 
ATOM     12  C   UNL A   1     -23.775  -1.347  29.160  0.00  0.00    +0.048 A 
ATOM     13  C   UNL A   1     -21.390   1.758  27.650  0.00  0.00    +0.002 A 
ATOM     14  C   UNL A   1     -21.602   2.156  26.333  0.00  0.00    +0.030 A 
ATOM     15  C   UNL A   1     -22.932   2.037  25.827  0.00  0.00    +0.140 A 
ATOM     16  C   UNL A   1     -23.838   1.122  26.497  0.00  0.00    +0.028 A 
ATOM     17  F   UNL A   1     -23.246   2.703  24.779  0.00  0.00    -0.204 F 
BRANCH  12  18
ATOM     18  C   UNL A   1     -24.659  -2.360  29.828  0.00  0.00    +0.328 C 
ATOM     19 BR   UNL A   1     -26.400  -2.507  29.832  0.00  0.00    -0.005 Br
ATOM     20  F   UNL A   1     -24.166  -3.675  29.563  0.00  0.00    -0.187 F 
ATOM     21  F   UNL A   1     -24.429  -2.192  31.186  0.00  0.00    -0.187 F 
ENDBRANCH  12  18
ENDBRANCH   1  16
BRANCH   6  22
ATOM     22  C   UNL A   1     -29.135  -0.059  24.898  0.00  0.00    +0.265 C 
ATOM     23  N   UNL A   1     -29.546  -0.261  24.007  0.00  0.00    -0.201 NA
ATOM     24  O   UNL A   1     -29.818  -0.304  26.053  0.00  0.00    -0.268 OA
BRANCH  23  25
ATOM     25  C   UNL A   1     -31.032  -0.695  23.694  0.00  0.00    +0.120 C 
BRANCH  25  26
ATOM     26  C   UNL A   1     -31.869   0.381  23.865  0.00  0.00    +0.050 C 
BRANCH  26  27
ATOM     27  C   UNL A   1     -32.160   1.091  22.817  0.00  0.00    -0.024 A 
ATOM     28  C   UNL A   1     -33.272   0.617  22.088  0.00  0.00    -0.004 A 
ATOM     29  C   UNL A   1     -33.462   0.973  20.759  0.00  0.00    -0.000 A 
ATOM     30  C   UNL A   1     -32.847   2.168  20.316  0.00  0.00    -0.000 A 
ATOM     31  C   UNL A   1     -31.808   2.754  21.020  0.00  0.00    -0.004 A 
ATOM     32  C   UNL A   1     -31.427   2.162  22.268  0.00  0.00    -0.022 A 
BRANCH  32  33
ATOM     33  C   UNL A   1     -30.356   2.764  23.040  0.00  0.00    +0.052 C 
BRANCH  33  34
ATOM     34  C   UNL A   1     -30.697   3.483  24.053  0.00  0.00    -0.021 C 
ATOM     35  C   UNL A   1     -30.029   3.898  24.985  0.00  0.00    -0.005 C 
ENDBRANCH  33  34
ENDBRANCH  32  33
ENDBRANCH  26  27
ENDBRANCH  25  26
ENDBRANCH  23  25
ENDBRANCH   6  22
TORSDOF 8
ENDMDL
ENDMDL
