MODEL 2723
MODEL 1
REMARK VINA RESULT:    -5.731      0.000      0.000
REMARK INTER + INTRA:          -5.731
REMARK INTER:                  -5.731
REMARK INTRA:                   0.000
REMARK UNBOUND:                 0.000
REMARK  Name = No_2723-gen_results/8p0m/2024-11-26-14-13-15/
REMARK  0 active torsions:
REMARK  status: ('A' for Active; 'I' for Inactive)
REMARK                            x       y       z     vdW  Elec       q    Type
REMARK                         _______ _______ _______ _____ _____    ______ ____
ROOT
ATOM      1  C   UNL A   1     -24.170  -4.522  28.927  0.00  0.00    +0.019 A 
ATOM      2  C   UNL A   1     -25.200  -5.136  29.087  0.00  0.00    +0.002 A 
ATOM      3  C   UNL A   1     -26.332  -4.592  29.661  0.00  0.00    +0.000 A 
ATOM      4  C   UNL A   1     -26.293  -3.223  30.046  0.00  0.00    +0.006 A 
ATOM      5  C   UNL A   1     -25.182  -2.536  29.691  0.00  0.00    +0.076 A 
ATOM      6  C   UNL A   1     -24.160  -3.131  29.106  0.00  0.00    +0.091 A 
ATOM      7  C   UNL A   1     -25.172  -1.109  30.073  0.00  0.00    +0.284 A 
ATOM      8  N   UNL A   1     -24.155  -0.497  29.869  0.00  0.00    -0.152 NA
ATOM      9  O   UNL A   1     -26.166  -0.575  30.661  0.00  0.00    -0.265 OA
ATOM     10  C   UNL A   1     -22.967  -0.937  29.242  0.00  0.00    +0.371 A 
ATOM     11  N   UNL A   1     -23.004  -2.325  28.884  0.00  0.00    -0.191 NA
ATOM     12  O   UNL A   1     -21.997  -0.279  29.026  0.00  0.00    -0.242 OA
ENDROOT
TORSDOF 0
ENDMDL
ENDMDL
