REMARK  Name = No_2724-gen_results/8p0m/2024-11-26-14-13-15/
REMARK  3 active torsions:
REMARK  status: ('A' for Active; 'I' for Inactive)
REMARK    1  A    between atoms: C_15  and  C_16
REMARK    2  A    between atoms: C_24  and  C_31
REMARK    3  A    between atoms: C_31  and  C_33
REMARK                            x       y       z     vdW  Elec       q    Type
REMARK                         _______ _______ _______ _____ _____    ______ ____
ROOT
ATOM      1  C   UNL A   1     -28.016  -0.814  28.878  0.00  0.00    +0.169 A 
ATOM      2  C   UNL A   1     -27.064  -0.119  28.608  0.00  0.00    +0.019 A 
ATOM      3  C   UNL A   1     -25.792  -0.430  29.076  0.00  0.00    -0.001 A 
ATOM      4  C   UNL A   1     -25.576  -1.565  29.936  0.00  0.00    +0.003 A 
ATOM      5  C   UNL A   1     -26.735  -2.300  30.217  0.00  0.00    +0.040 A 
ATOM      6  C   UNL A   1     -27.918  -1.954  29.763  0.00  0.00    +0.172 A 
ATOM      7  O   UNL A   1     -29.000  -2.701  30.115  0.00  0.00    -0.476 OA
ATOM      8  C   UNL A   1     -24.529   0.349  28.800  0.00  0.00    -0.004 A 
ATOM      9  C   UNL A   1     -23.344   0.006  29.166  0.00  0.00    -0.000 A 
ATOM     10  C   UNL A   1     -22.178   0.781  28.778  0.00  0.00    -0.000 A 
ATOM     11  C   UNL A   1     -22.322   1.750  27.773  0.00  0.00    -0.000 A 
ATOM     12  C   UNL A   1     -24.610   1.356  27.748  0.00  0.00    -0.022 A 
ATOM     13  C   UNL A   1     -25.890   1.703  27.207  0.00  0.00    +0.030 C 
ATOM     14  C   UNL A   1     -23.488   2.080  27.293  0.00  0.00    -0.004 A 
ATOM     15  C   UNL A   1     -27.113   0.985  27.610  0.00  0.00    +0.052 C 
ATOM     16  C   UNL A   1     -26.037   2.839  26.336  0.00  0.00    +0.005 C 
ATOM     17  C   UNL A   1     -30.177  -2.186  30.477  0.00  0.00    +0.170 C 
ATOM     18  C   UNL A   1     -31.251  -2.711  29.764  0.00  0.00    +0.046 C 
ATOM     19  C   UNL A   1     -32.143  -1.796  29.217  0.00  0.00    +0.004 C 
ATOM     20  C   UNL A   1     -32.228  -0.455  29.802  0.00  0.00    +0.004 C 
ATOM     21  C   UNL A   1     -31.139   0.014  30.584  0.00  0.00    +0.047 C 
ATOM     22  C   UNL A   1     -29.961  -0.709  30.337  0.00  0.00    +0.202 C 
ATOM     23  O   UNL A   1     -28.905  -0.049  30.020  0.00  0.00    -0.473 OA
ATOM     24  C   UNL A   1     -30.364  -2.360  32.016  0.00  0.00    +0.047 C 
ENDROOT
BRANCH  15  25
ATOM     25  C   UNL A   1     -28.368   1.373  27.057  0.00  0.00    -0.018 A 
ATOM     26  C   UNL A   1     -28.946   2.376  27.792  0.00  0.00    -0.004 A 
ATOM     27  C   UNL A   1     -29.957   2.865  27.726  0.00  0.00    -0.000 A 
ATOM     28  C   UNL A   1     -30.881   2.440  26.732  0.00  0.00    -0.000 A 
ATOM     29  C   UNL A   1     -28.863   0.813  25.959  0.00  0.00    -0.004 A 
ATOM     30  C   UNL A   1     -29.811   1.232  25.601  0.00  0.00    -0.000 A 
ENDBRANCH  15  25
BRANCH  18  31
ATOM     31  C   UNL A   1     -31.401  -4.050  29.460  0.00  0.00    +0.070 C 
ATOM     32  C   UNL A   1     -30.966  -5.002  30.323  0.00  0.00    +0.006 C 
BRANCH  31  33
ATOM     33  C   UNL A   1     -31.822  -4.507  28.189  0.00  0.00    +0.319 C 
ATOM     34  F   UNL A   1     -32.088  -3.623  27.348  0.00  0.00    -0.198 F 
ATOM     35  F   UNL A   1     -31.848  -5.628  27.823  0.00  0.00    -0.198 F 
ENDBRANCH  31  33
ENDBRANCH  18  31
TORSDOF 3
