MODEL 2724
MODEL 1
REMARK VINA RESULT:    -7.947      0.000      0.000
REMARK INTER + INTRA:         -10.406
REMARK INTER:                  -9.341
REMARK INTRA:                  -1.065
REMARK UNBOUND:                -1.065
REMARK  Name = No_2724-gen_results/8p0m/2024-11-26-14-13-15/
REMARK  3 active torsions:
REMARK  status: ('A' for Active; 'I' for Inactive)
REMARK    1  A    between atoms: C_15  and  C_16
REMARK    2  A    between atoms: C_24  and  C_31
REMARK    3  A    between atoms: C_31  and  C_33
REMARK                            x       y       z     vdW  Elec       q    Type
REMARK                         _______ _______ _______ _____ _____    ______ ____
ROOT
ATOM      1  C   UNL A   1     -29.164 -11.518   8.478  0.00  0.00    +0.169 A 
ATOM      2  C   UNL A   1     -29.029 -12.720   8.482  0.00  0.00    +0.019 A 
ATOM      3  C   UNL A   1     -28.272 -13.360   7.507  0.00  0.00    -0.001 A 
ATOM      4  C   UNL A   1     -27.662 -12.617   6.435  0.00  0.00    +0.003 A 
ATOM      5  C   UNL A   1     -27.888 -11.235   6.494  0.00  0.00    +0.040 A 
ATOM      6  C   UNL A   1     -28.627 -10.680   7.428  0.00  0.00    +0.172 A 
ATOM      7  O   UNL A   1     -28.829  -9.335   7.391  0.00  0.00    -0.476 OA
ATOM      8  C   UNL A   1     -28.021 -14.846   7.411  0.00  0.00    -0.004 A 
ATOM      9  C   UNL A   1     -27.249 -15.420   6.556  0.00  0.00    -0.000 A 
ATOM     10  C   UNL A   1     -27.006 -16.852   6.598  0.00  0.00    -0.000 A 
ATOM     11  C   UNL A   1     -27.398 -17.564   7.742  0.00  0.00    -0.000 A 
ATOM     12  C   UNL A   1     -28.386 -15.638   8.580  0.00  0.00    -0.022 A 
ATOM     13  C   UNL A   1     -29.145 -15.028   9.631  0.00  0.00    +0.030 C 
ATOM     14  C   UNL A   1     -28.104 -17.015   8.690  0.00  0.00    -0.004 A 
ATOM     15  C   UNL A   1     -29.468 -13.589   9.608  0.00  0.00    +0.052 C 
ATOM     16  C   UNL A   1     -29.713 -15.824  10.686  0.00  0.00    +0.005 C 
ATOM     17  C   UNL A   1     -30.007  -8.751   7.618  0.00  0.00    +0.170 C 
ATOM     18  C   UNL A   1     -29.948  -7.747   8.581  0.00  0.00    +0.046 C 
ATOM     19  C   UNL A   1     -30.901  -7.796   9.592  0.00  0.00    +0.004 C 
ATOM     20  C   UNL A   1     -32.154  -8.514   9.348  0.00  0.00    +0.004 C 
ATOM     21  C   UNL A   1     -32.191  -9.480   8.307  0.00  0.00    +0.047 C 
ATOM     22  C   UNL A   1     -30.906  -9.907   7.937  0.00  0.00    +0.202 C 
ATOM     23  O   UNL A   1     -30.669 -11.170   7.936  0.00  0.00    -0.473 OA
ATOM     24  C   UNL A   1     -30.590  -8.226   6.270  0.00  0.00    +0.047 C 
ENDROOT
BRANCH  15  25
ATOM     25  C   UNL A   1     -30.238 -13.027  10.667  0.00  0.00    -0.018 A 
ATOM     26  C   UNL A   1     -29.433 -12.449  11.615  0.00  0.00    -0.004 A 
ATOM     27  C   UNL A   1     -29.663 -12.000  12.620  0.00  0.00    -0.000 A 
ATOM     28  C   UNL A   1     -31.006 -11.975  13.089  0.00  0.00    -0.000 A 
ATOM     29  C   UNL A   1     -31.566 -13.070  10.679  0.00  0.00    -0.004 A 
ATOM     30  C   UNL A   1     -32.048 -12.558  11.521  0.00  0.00    -0.000 A 
ENDBRANCH  15  25
BRANCH  18  31
ATOM     31  C   UNL A   1     -28.938  -6.808   8.663  0.00  0.00    +0.070 C 
ATOM     32  C   UNL A   1     -29.120  -5.559   8.165  0.00  0.00    +0.006 C 
BRANCH  31  33
ATOM     33  C   UNL A   1     -27.624  -7.128   9.077  0.00  0.00    +0.319 C 
ATOM     34  F   UNL A   1     -26.719  -6.373   8.663  0.00  0.00    -0.198 F 
ATOM     35  F   UNL A   1     -27.319  -7.968   9.847  0.00  0.00    -0.198 F 
ENDBRANCH  31  33
ENDBRANCH  18  31
TORSDOF 3
ENDMDL
ENDMDL
