REMARK  Name = No_2725-gen_results/8p0m/2024-11-26-14-13-15/
REMARK  1 active torsions:
REMARK  status: ('A' for Active; 'I' for Inactive)
REMARK    1  A    between atoms: C_14  and  C_21
REMARK                            x       y       z     vdW  Elec       q    Type
REMARK                         _______ _______ _______ _____ _____    ______ ____
ROOT
ATOM      1  C   UNL A   1     -28.016  -0.814  28.878  0.00  0.00    -0.000 A 
ATOM      2  C   UNL A   1     -28.469  -0.785  29.829  0.00  0.00    -0.000 A 
ATOM      3  C   UNL A   1     -27.136   0.236  28.535  0.00  0.00    -0.000 A 
ATOM      4  C   UNL A   1     -26.335   0.290  27.284  0.00  0.00    +0.000 A 
ATOM      5  C   UNL A   1     -28.369   0.196  30.924  0.00  0.00    -0.000 A 
ATOM      6  C   UNL A   1     -27.516   1.266  30.654  0.00  0.00    -0.000 A 
ATOM      7  C   UNL A   1     -26.841   1.294  29.476  0.00  0.00    -0.002 A 
ATOM      8  C   UNL A   1     -25.677   1.520  26.977  0.00  0.00    +0.001 A 
ATOM      9  C   UNL A   1     -25.432   2.502  27.954  0.00  0.00    +0.017 A 
ATOM     10  C   UNL A   1     -26.099   2.461  29.157  0.00  0.00    -0.001 A 
ATOM     11  C   UNL A   1     -25.876   3.597  30.091  0.00  0.00    +0.120 C 
ATOM     12  N   UNL A   1     -26.713   4.168  30.677  0.00  0.00    -0.238 NA
ATOM     13  C   UNL A   1     -27.210   5.067  30.648  0.00  0.00    +0.048 C 
ATOM     14  C   UNL A   1     -28.408   5.409  31.308  0.00  0.00    +0.012 C 
ATOM     15  C   UNL A   1     -26.764   6.205  29.730  0.00  0.00    +0.070 C 
ATOM     16  C   UNL A   1     -25.541   6.141  29.185  0.00  0.00    -0.005 C 
ATOM     17  C   UNL A   1     -25.081   4.870  28.674  0.00  0.00    +0.057 C 
ATOM     18  C   UNL A   1     -24.894   3.824  29.420  0.00  0.00    +0.071 C 
ATOM     19  N   UNL A   1     -24.665   4.607  27.404  0.00  0.00    -0.248 NA
ATOM     20  C   UNL A   1     -24.864   3.623  27.245  0.00  0.00    +0.098 C 
ENDROOT
BRANCH  14  21
ATOM     21  C   UNL A   1     -28.536   5.133  32.574  0.00  0.00    -0.004 C 
ATOM     22  C   UNL A   1     -29.775   5.306  33.331  0.00  0.00    -0.026 C 
ATOM     23  C   UNL A   1     -30.849   5.811  32.613  0.00  0.00    +0.031 C 
ENDBRANCH  14  21
TORSDOF 1
