MODEL 2726
MODEL 1
REMARK VINA RESULT:    -6.228      0.000      0.000
REMARK INTER + INTRA:          -9.393
REMARK INTER:                  -8.413
REMARK INTRA:                  -0.980
REMARK UNBOUND:                -0.980
REMARK  Name = No_2726-gen_results/8p0m/2024-11-26-14-13-15/
REMARK  6 active torsions:
REMARK  status: ('A' for Active; 'I' for Inactive)
REMARK    1  A    between atoms: C_1  and  C_2
REMARK    2  A    between atoms: C_1  and  C_8
REMARK    3  A    between atoms: C_5  and  C_16
REMARK    4  A    between atoms: C_8  and  C_9
REMARK    5  A    between atoms: C_10  and  C_11
REMARK    6  A    between atoms: C_12  and  C_13
REMARK                            x       y       z     vdW  Elec       q    Type
REMARK                         _______ _______ _______ _____ _____    ______ ____
ROOT
ATOM      1  C   UNL A   1     -22.473  -1.501  29.296  0.00  0.00    +0.031 C 
ENDROOT
BRANCH   1   2
ATOM      2  C   UNL A   1     -23.581  -1.937  29.509  0.00  0.00    -0.022 A 
ATOM      3  C   UNL A   1     -24.057  -3.090  28.975  0.00  0.00    -0.004 A 
ATOM      4  C   UNL A   1     -25.408  -3.639  29.226  0.00  0.00    +0.004 A 
ATOM      5  C   UNL A   1     -26.254  -2.898  30.117  0.00  0.00    +0.059 A 
ATOM      6  C   UNL A   1     -25.696  -1.742  30.708  0.00  0.00    +0.004 A 
ATOM      7  C   UNL A   1     -24.431  -1.293  30.427  0.00  0.00    -0.004 A 
BRANCH   5   8
ATOM      8  C   UNL A   1     -27.570  -3.333  30.453  0.00  0.00    +0.297 C 
ATOM      9  N   UNL A   1     -28.409  -3.024  31.224  0.00  0.00    -0.102 NA
ATOM     10  O   UNL A   1     -27.903  -4.453  29.745  0.00  0.00    -0.264 OA
ENDBRANCH   5   8
ENDBRANCH   1   2
BRANCH   1  11
ATOM     11  C   UNL A   1     -22.293   0.013  29.420  0.00  0.00    +0.031 C 
BRANCH  11  12
ATOM     12  C   UNL A   1     -22.156   0.714  28.365  0.00  0.00    -0.026 C 
ATOM     13  C   UNL A   1     -23.053   1.445  27.861  0.00  0.00    -0.005 C 
BRANCH  13  14
ATOM     14  C   UNL A   1     -22.726   2.246  26.663  0.00  0.00    -0.000 C 
ATOM     15  C   UNL A   1     -23.477   1.999  25.486  0.00  0.00    -0.000 C 
BRANCH  15  16
ATOM     16  C   UNL A   1     -24.633   1.389  25.525  0.00  0.00    -0.005 C 
ATOM     17  C   UNL A   1     -24.794   0.252  24.725  0.00  0.00    -0.026 C 
ATOM     18  C   UNL A   1     -26.048  -0.448  24.786  0.00  0.00    +0.031 C 
ENDBRANCH  15  16
ENDBRANCH  13  14
ENDBRANCH  11  12
ENDBRANCH   1  11
TORSDOF 6
ENDMDL
ENDMDL
