REMARK  Name = No_2726-gen_results/8p0m/2024-11-26-14-13-15/
REMARK  6 active torsions:
REMARK  status: ('A' for Active; 'I' for Inactive)
REMARK    1  A    between atoms: C_1  and  C_2
REMARK    2  A    between atoms: C_1  and  C_8
REMARK    3  A    between atoms: C_5  and  C_16
REMARK    4  A    between atoms: C_8  and  C_9
REMARK    5  A    between atoms: C_10  and  C_11
REMARK    6  A    between atoms: C_12  and  C_13
REMARK                            x       y       z     vdW  Elec       q    Type
REMARK                         _______ _______ _______ _____ _____    ______ ____
ROOT
ATOM      1  C   UNL A   1     -28.016  -0.814  28.878  0.00  0.00    +0.031 C 
ENDROOT
BRANCH   1   2
ATOM      2  C   UNL A   1     -27.064  -0.119  28.608  0.00  0.00    -0.022 A 
ATOM      3  C   UNL A   1     -26.929   1.171  29.008  0.00  0.00    -0.004 A 
ATOM      4  C   UNL A   1     -25.770   2.034  28.688  0.00  0.00    +0.004 A 
ATOM      5  C   UNL A   1     -24.714   1.443  27.919  0.00  0.00    +0.059 A 
ATOM      6  C   UNL A   1     -24.859   0.078  27.584  0.00  0.00    +0.004 A 
ATOM      7  C   UNL A   1     -25.965  -0.661  27.916  0.00  0.00    -0.004 A 
BRANCH   5   8
ATOM      8  C   UNL A   1     -23.537   2.166  27.563  0.00  0.00    +0.297 C 
ATOM      9  N   UNL A   1     -22.406   2.191  27.901  0.00  0.00    -0.102 NA
ATOM     10  O   UNL A   1     -23.827   3.138  26.647  0.00  0.00    -0.264 OA
ENDBRANCH   5   8
ENDBRANCH   1   2
BRANCH   1  11
ATOM     11  C   UNL A   1     -28.651  -0.609  30.254  0.00  0.00    +0.031 C 
BRANCH  11  12
ATOM     12  C   UNL A   1     -29.651  -1.322  30.593  0.00  0.00    -0.026 C 
ATOM     13  C   UNL A   1     -30.112  -2.287  29.921  0.00  0.00    -0.005 C 
BRANCH  13  14
ATOM     14  C   UNL A   1     -31.245  -3.058  30.473  0.00  0.00    -0.000 C 
ATOM     15  C   UNL A   1     -31.709  -4.168  29.723  0.00  0.00    -0.000 C 
BRANCH  15  16
ATOM     16  C   UNL A   1     -30.971  -4.729  28.800  0.00  0.00    -0.005 C 
ATOM     17  C   UNL A   1     -31.557  -5.737  28.026  0.00  0.00    -0.026 C 
ATOM     18  C   UNL A   1     -30.768  -6.337  26.985  0.00  0.00    +0.031 C 
ENDBRANCH  15  16
ENDBRANCH  13  14
ENDBRANCH  11  12
ENDBRANCH   1  11
TORSDOF 6
