MODEL 2727
MODEL 1
REMARK VINA RESULT:    -4.269      0.000      0.000
REMARK INTER + INTRA:          -4.269
REMARK INTER:                  -4.269
REMARK INTRA:                   0.000
REMARK UNBOUND:                 0.000
REMARK  Name = No_2727-gen_results/8p0m/2024-11-26-14-13-15/
REMARK  0 active torsions:
REMARK  status: ('A' for Active; 'I' for Inactive)
REMARK                            x       y       z     vdW  Elec       q    Type
REMARK                         _______ _______ _______ _____ _____    ______ ____
ROOT
ATOM      1  C   UNL A   1     -26.076  -4.809  29.665  0.00  0.00    +0.000 A 
ATOM      2  C   UNL A   1     -26.200  -3.607  29.715  0.00  0.00    +0.000 A 
ATOM      3  C   UNL A   1     -25.222  -2.720  29.310  0.00  0.00    +0.000 A 
ATOM      4  C   UNL A   1     -24.020  -3.254  28.768  0.00  0.00    +0.000 A 
ATOM      5  C   UNL A   1     -23.997  -4.594  28.575  0.00  0.00    +0.000 A 
ATOM      6  C   UNL A   1     -24.998  -5.363  28.957  0.00  0.00    +0.000 A 
ENDROOT
TORSDOF 0
ENDMDL
ENDMDL
