REMARK  Name = No_2728-gen_results/8p0m/2024-11-26-14-13-15/
REMARK  1 active torsions:
REMARK  status: ('A' for Active; 'I' for Inactive)
REMARK    1  A    between atoms: C_3  and  C_4
REMARK                            x       y       z     vdW  Elec       q    Type
REMARK                         _______ _______ _______ _____ _____    ______ ____
ROOT
ATOM      1  F   UNL A   1     -28.073  -1.254  28.532  0.00  0.00    -0.204 F 
ATOM      2  C   UNL A   1     -27.359  -0.379  28.722  0.00  0.00    +0.141 A 
ATOM      3  C   UNL A   1     -26.810   0.189  27.651  0.00  0.00    +0.038 A 
ATOM      4  C   UNL A   1     -25.358   0.632  27.697  0.00  0.00    +0.060 A 
ATOM      5 CL   UNL A   1     -24.619   1.405  26.564  0.00  0.00    -0.082 Cl
ATOM      6  C   UNL A   1     -26.983   0.066  30.112  0.00  0.00    +0.030 A 
ATOM      7  C   UNL A   1     -25.699   0.324  30.406  0.00  0.00    +0.003 A 
ATOM      8  C   UNL A   1     -24.889   0.951  29.187  0.00  0.00    +0.011 A 
ENDROOT
BRANCH   3   9
ATOM      9  C   UNL A   1     -27.490   0.351  26.443  0.00  0.00    +0.003 A 
ATOM     10  C   UNL A   1     -28.080   1.203  26.078  0.00  0.00    +0.000 A 
ATOM     11  C   UNL A   1     -29.054   1.068  25.065  0.00  0.00    +0.000 A 
ATOM     12  C   UNL A   1     -28.971  -0.036  24.238  0.00  0.00    +0.000 A 
ATOM     13  C   UNL A   1     -28.029  -0.947  24.527  0.00  0.00    +0.000 A 
ATOM     14  C   UNL A   1     -27.161  -0.808  25.559  0.00  0.00    +0.000 A 
ENDBRANCH   3   9
TORSDOF 1
