MODEL 2728
MODEL 1
REMARK VINA RESULT:    -6.547      0.000      0.000
REMARK INTER + INTRA:          -7.461
REMARK INTER:                  -6.930
REMARK INTRA:                  -0.531
REMARK UNBOUND:                -0.531
REMARK  Name = No_2728-gen_results/8p0m/2024-11-26-14-13-15/
REMARK  1 active torsions:
REMARK  status: ('A' for Active; 'I' for Inactive)
REMARK    1  A    between atoms: C_3  and  C_4
REMARK                            x       y       z     vdW  Elec       q    Type
REMARK                         _______ _______ _______ _____ _____    ______ ____
ROOT
ATOM      1  F   UNL A   1     -25.563  -0.932  27.256  0.00  0.00    -0.204 F 
ATOM      2  C   UNL A   1     -24.625  -0.565  27.800  0.00  0.00    +0.141 A 
ATOM      3  C   UNL A   1     -24.291  -1.208  28.916  0.00  0.00    +0.038 A 
ATOM      4  C   UNL A   1     -23.759  -0.425  30.104  0.00  0.00    +0.060 A 
ATOM      5 CL   UNL A   1     -23.228  -1.052  31.428  0.00  0.00    -0.082 Cl
ATOM      6  C   UNL A   1     -23.844   0.638  27.337  0.00  0.00    +0.030 A 
ATOM      7  C   UNL A   1     -23.444   1.559  28.229  0.00  0.00    +0.003 A 
ATOM      8  C   UNL A   1     -23.071   0.939  29.647  0.00  0.00    +0.011 A 
ENDROOT
BRANCH   3   9
ATOM      9  C   UNL A   1     -24.459  -2.584  29.081  0.00  0.00    +0.003 A 
ATOM     10  C   UNL A   1     -23.767  -3.408  28.858  0.00  0.00    +0.000 A 
ATOM     11  C   UNL A   1     -24.211  -4.732  28.657  0.00  0.00    +0.000 A 
ATOM     12  C   UNL A   1     -25.454  -5.076  29.155  0.00  0.00    +0.000 A 
ATOM     13  C   UNL A   1     -26.185  -4.094  29.704  0.00  0.00    +0.000 A 
ATOM     14  C   UNL A   1     -25.743  -2.816  29.809  0.00  0.00    +0.000 A 
ENDBRANCH   3   9
TORSDOF 1
ENDMDL
ENDMDL
