MODEL 2729
MODEL 1
REMARK VINA RESULT:    -6.656      0.000      0.000
REMARK INTER + INTRA:         -11.567
REMARK INTER:                  -8.990
REMARK INTRA:                  -2.577
REMARK UNBOUND:                -2.577
REMARK  Name = No_2729-gen_results/8p0m/2024-11-26-14-13-15/
REMARK  6 active torsions:
REMARK  status: ('A' for Active; 'I' for Inactive)
REMARK    1  A    between atoms: C_1  and  O_16
REMARK    2  A    between atoms: C_2  and  C_8
REMARK    3  A    between atoms: O_16  and  C_17
REMARK    4  A    between atoms: C_17  and  C_18
REMARK    5  A    between atoms: C_18  and  C_19
REMARK    6  A    between atoms: C_19  and  C_20
REMARK                            x       y       z     vdW  Elec       q    Type
REMARK                         _______ _______ _______ _____ _____    ______ ____
ROOT
ATOM      1  C   UNL A   1     -23.437  -0.609  28.844  0.00  0.00    +0.139 A 
ATOM      2  C   UNL A   1     -24.274  -1.233  28.233  0.00  0.00    +0.035 A 
ATOM      3  C   UNL A   1     -25.073  -0.720  27.225  0.00  0.00    +0.015 A 
ATOM      4  C   UNL A   1     -24.866   0.644  26.865  0.00  0.00    +0.068 A 
ATOM      5  C   UNL A   1     -23.826   1.264  27.460  0.00  0.00    +0.071 A 
ATOM      6  C   UNL A   1     -23.060   0.646  28.361  0.00  0.00    +0.049 A 
ATOM      7 CL   UNL A   1     -23.549   2.867  26.968  0.00  0.00    -0.081 Cl
ATOM      8 CL   UNL A   1     -25.827   1.289  25.601  0.00  0.00    -0.081 Cl
ENDROOT
BRANCH   2   9
ATOM      9  C   UNL A   1     -24.688  -2.701  28.665  0.00  0.00    +0.004 A 
ATOM     10  C   UNL A   1     -24.097  -3.569  28.520  0.00  0.00    +0.000 A 
ATOM     11  C   UNL A   1     -24.484  -4.930  28.880  0.00  0.00    +0.001 A 
ATOM     12  C   UNL A   1     -25.706  -5.124  29.558  0.00  0.00    +0.011 A 
ATOM     13  C   UNL A   1     -26.491  -3.971  29.773  0.00  0.00    +0.058 A 
ATOM     14  C   UNL A   1     -26.007  -2.686  29.397  0.00  0.00    +0.011 A 
ATOM     15 CL   UNL A   1     -27.971  -4.159  30.615  0.00  0.00    -0.082 Cl
ENDBRANCH   2   9
BRANCH   1  16
ATOM     16  O   UNL A   1     -22.656  -1.125  29.809  0.00  0.00    -0.475 OA
BRANCH  16  17
ATOM     17  C   UNL A   1     -22.600  -0.502  31.037  0.00  0.00    +0.206 C 
BRANCH  17  18
ATOM     18  C   UNL A   1     -23.653  -1.149  31.919  0.00  0.00    +0.052 C 
BRANCH  18  19
ATOM     19  C   UNL A   1     -24.504  -0.268  32.551  0.00  0.00    +0.030 C 
BRANCH  19  20
ATOM     20  C   UNL A   1     -25.737  -0.136  32.045  0.00  0.00    -0.022 A 
ATOM     21  C   UNL A   1     -26.669  -0.717  32.294  0.00  0.00    -0.004 A 
ATOM     22  C   UNL A   1     -28.027  -0.582  31.662  0.00  0.00    -0.000 A 
ATOM     23  C   UNL A   1     -28.061   0.370  30.617  0.00  0.00    -0.000 A 
ATOM     24  C   UNL A   1     -26.975   1.088  30.227  0.00  0.00    -0.000 A 
ATOM     25  C   UNL A   1     -25.768   0.906  30.858  0.00  0.00    -0.004 A 
ENDBRANCH  19  20
ENDBRANCH  18  19
ENDBRANCH  17  18
ENDBRANCH  16  17
ENDBRANCH   1  16
TORSDOF 6
ENDMDL
ENDMDL
