REMARK  Name = No_2729-gen_results/8p0m/2024-11-26-14-13-15/
REMARK  6 active torsions:
REMARK  status: ('A' for Active; 'I' for Inactive)
REMARK    1  A    between atoms: C_1  and  O_16
REMARK    2  A    between atoms: C_2  and  C_8
REMARK    3  A    between atoms: O_16  and  C_17
REMARK    4  A    between atoms: C_17  and  C_18
REMARK    5  A    between atoms: C_18  and  C_19
REMARK    6  A    between atoms: C_19  and  C_20
REMARK                            x       y       z     vdW  Elec       q    Type
REMARK                         _______ _______ _______ _____ _____    ______ ____
ROOT
ATOM      1  C   UNL A   1     -28.016  -0.814  28.878  0.00  0.00    +0.139 A 
ATOM      2  C   UNL A   1     -27.064  -0.119  28.608  0.00  0.00    +0.035 A 
ATOM      3  C   UNL A   1     -26.972   0.714  27.506  0.00  0.00    +0.015 A 
ATOM      4  C   UNL A   1     -28.105   0.774  26.642  0.00  0.00    +0.068 A 
ATOM      5  C   UNL A   1     -29.201   0.104  27.053  0.00  0.00    +0.071 A 
ATOM      6  C   UNL A   1     -29.210  -0.603  28.185  0.00  0.00    +0.049 A 
ATOM      7 CL   UNL A   1     -30.565   0.243  26.049  0.00  0.00    -0.081 Cl
ATOM      8 CL   UNL A   1     -28.019   1.820  25.287  0.00  0.00    -0.081 Cl
ENDROOT
BRANCH   2   9
ATOM      9  C   UNL A   1     -25.703  -0.234  29.413  0.00  0.00    +0.004 A 
ATOM     10  C   UNL A   1     -25.545  -0.852  30.259  0.00  0.00    +0.000 A 
ATOM     11  C   UNL A   1     -24.307  -0.938  31.029  0.00  0.00    +0.001 A 
ATOM     12  C   UNL A   1     -23.184  -0.212  30.578  0.00  0.00    +0.011 A 
ATOM     13  C   UNL A   1     -23.380   0.599  29.440  0.00  0.00    +0.058 A 
ATOM     14  C   UNL A   1     -24.627   0.593  28.753  0.00  0.00    +0.011 A 
ATOM     15 CL   UNL A   1     -22.035   1.478  28.846  0.00  0.00    -0.082 Cl
ENDBRANCH   2   9
BRANCH   1  16
ATOM     16  O   UNL A   1     -28.099  -1.605  29.962  0.00  0.00    -0.475 OA
BRANCH  16  17
ATOM     17  C   UNL A   1     -29.276  -2.274  30.220  0.00  0.00    +0.206 C 
BRANCH  17  18
ATOM     18  C   UNL A   1     -29.224  -2.736  31.665  0.00  0.00    +0.052 C 
BRANCH  18  19
ATOM     19  C   UNL A   1     -29.299  -1.728  32.602  0.00  0.00    +0.030 C 
BRANCH  19  20
ATOM     20  C   UNL A   1     -30.512  -1.227  32.869  0.00  0.00    -0.022 A 
ATOM     21  C   UNL A   1     -31.523  -1.686  32.681  0.00  0.00    -0.004 A 
ATOM     22  C   UNL A   1     -32.869  -1.069  32.939  0.00  0.00    -0.000 A 
ATOM     23  C   UNL A   1     -32.789   0.253  33.437  0.00  0.00    -0.000 A 
ATOM     24  C   UNL A   1     -31.612   0.895  33.658  0.00  0.00    -0.000 A 
ATOM     25  C   UNL A   1     -30.422   0.259  33.397  0.00  0.00    -0.004 A 
ENDBRANCH  19  20
ENDBRANCH  18  19
ENDBRANCH  17  18
ENDBRANCH  16  17
ENDBRANCH   1  16
TORSDOF 6
