MODEL 272
MODEL 1
REMARK VINA RESULT:    -5.557      0.000      0.000
REMARK INTER + INTRA:          -6.757
REMARK INTER:                  -6.532
REMARK INTRA:                  -0.225
REMARK UNBOUND:                -0.225
REMARK  Name = No_272-gen_results/8p0m/2024-11-26-14-13-15/
REMARK  3 active torsions:
REMARK  status: ('A' for Active; 'I' for Inactive)
REMARK    1  A    between atoms: C_1  and  C_2
REMARK    2  A    between atoms: C_1  and  N_8
REMARK    3  A    between atoms: N_8  and  C_9
REMARK                            x       y       z     vdW  Elec       q    Type
REMARK                         _______ _______ _______ _____ _____    ______ ____
ROOT
ATOM      1  C   UNL A   1     -23.197  -0.182  28.480  0.00  0.00    -0.001 A 
ATOM      2  C   UNL A   1     -22.062   0.560  28.416  0.00  0.00    -0.003 A 
ATOM      3  C   UNL A   1     -21.839   1.676  27.470  0.00  0.00    -0.000 A 
ATOM      4  C   UNL A   1     -22.897   1.966  26.547  0.00  0.00    -0.000 A 
ATOM      5  C   UNL A   1     -24.031   1.125  26.597  0.00  0.00    -0.000 A 
ATOM      6  C   UNL A   1     -24.169   0.107  27.504  0.00  0.00    -0.003 A 
ENDROOT
BRANCH   1   7
ATOM      7  C   UNL A   1     -23.366  -1.092  29.257  0.00  0.00    +0.139 C 
BRANCH   7   8
ATOM      8  N   UNL A   1     -23.174  -2.294  28.889  0.00  0.00    -0.232 NA
BRANCH   8   9
ATOM      9  C   UNL A   1     -23.952  -3.252  29.110  0.00  0.00    +0.076 C 
ATOM     10  C   UNL A   1     -24.137  -4.185  28.700  0.00  0.00    -0.008 C 
ATOM     11  C   UNL A   1     -25.024  -5.302  29.087  0.00  0.00    +0.032 C 
ENDBRANCH   8   9
ENDBRANCH   7   8
ENDBRANCH   1   7
TORSDOF 3
ENDMDL
ENDMDL
