REMARK  Name = No_273-gen_results/8p0m/2024-11-26-14-13-15/
REMARK  1 active torsions:
REMARK  status: ('A' for Active; 'I' for Inactive)
REMARK    1  A    between atoms: C_3  and  C_7
REMARK                            x       y       z     vdW  Elec       q    Type
REMARK                         _______ _______ _______ _____ _____    ______ ____
ROOT
ATOM      1  C   UNL A   1     -28.016  -0.814  28.878  0.00  0.00    +0.034 A 
ATOM      2  C   UNL A   1     -28.469  -0.785  29.829  0.00  0.00    +0.142 A 
ATOM      3  C   UNL A   1     -27.087   0.290  28.638  0.00  0.00    +0.076 A 
ATOM      4  C   UNL A   1     -26.832   1.249  29.587  0.00  0.00    +0.034 A 
ATOM      5  C   UNL A   1     -28.391   0.080  31.006  0.00  0.00    +0.059 A 
ATOM      6  C   UNL A   1     -27.494   1.152  30.784  0.00  0.00    +0.142 A 
ATOM      7  F   UNL A   1     -29.347  -1.908  30.178  0.00  0.00    -0.204 F 
ATOM      8  F   UNL A   1     -27.336   2.066  31.742  0.00  0.00    -0.204 F 
ENDROOT
BRANCH   3   9
ATOM      9  C   UNL A   1     -26.317   0.399  27.365  0.00  0.00    +0.419 C 
ATOM     10  F   UNL A   1     -25.456  -0.360  27.315  0.00  0.00    -0.166 F 
ATOM     11  F   UNL A   1     -25.740   1.664  27.227  0.00  0.00    -0.166 F 
ATOM     12  F   UNL A   1     -27.186   0.313  26.275  0.00  0.00    -0.166 F 
ENDBRANCH   3   9
TORSDOF 1
