MODEL 2730
MODEL 1
REMARK VINA RESULT:    -6.776      0.000      0.000
REMARK INTER + INTRA:          -9.053
REMARK INTER:                  -7.965
REMARK INTRA:                  -1.088
REMARK UNBOUND:                -1.088
REMARK  Name = No_2730-gen_results/8p0m/2024-11-26-14-13-15/
REMARK  4 active torsions:
REMARK  status: ('A' for Active; 'I' for Inactive)
REMARK    1  A    between atoms: C_4  and  C_7
REMARK    2  A    between atoms: C_5  and  C_17
REMARK    3  A    between atoms: C_7  and  C_8
REMARK    4  A    between atoms: C_9  and  C_10
REMARK                            x       y       z     vdW  Elec       q    Type
REMARK                         _______ _______ _______ _____ _____    ______ ____
ROOT
ATOM      1  C   UNL A   1     -26.322   0.080  28.874  0.00  0.00    -0.022 C 
ATOM      2  C   UNL A   1     -26.278  -0.870  29.783  0.00  0.00    -0.007 C 
ENDROOT
BRANCH   2   3
ATOM      3  C   UNL A   1     -25.876  -2.160  29.456  0.00  0.00    -0.009 C 
ATOM      4  C   UNL A   1     -26.784  -3.256  29.871  0.00  0.00    -0.004 C 
ATOM      5  C   UNL A   1     -26.402  -4.617  29.694  0.00  0.00    -0.005 C 
ATOM      6  C   UNL A   1     -25.106  -4.817  29.229  0.00  0.00    -0.025 C 
ATOM      7  C   UNL A   1     -24.224  -3.815  29.110  0.00  0.00    +0.045 C 
ATOM      8  C   UNL A   1     -24.588  -2.551  29.321  0.00  0.00    +0.090 C 
ATOM      9  C   UNL A   1     -23.605  -2.039  30.420  0.00  0.00    +0.021 C 
ATOM     10 CL   UNL A   1     -24.042  -2.792  28.500  0.00  0.00    -0.111 Cl
ENDBRANCH   2   3
BRANCH   1  11
ATOM     11  C   UNL A   1     -25.931  -0.080  27.527  0.00  0.00    +0.052 C 
BRANCH  11  15
ATOM     12  C   UNL A   1     -22.413   1.483  27.477  0.00  0.00    -0.000 A 
ATOM     13  C   UNL A   1     -22.507   2.030  26.581  0.00  0.00    -0.000 A 
ATOM     14  C   UNL A   1     -23.602   0.741  27.925  0.00  0.00    -0.004 A 
ATOM     15  C   UNL A   1     -24.762   0.665  27.100  0.00  0.00    -0.019 A 
ATOM     16  C   UNL A   1     -24.716   1.381  25.930  0.00  0.00    +0.007 A 
ATOM     17  C   UNL A   1     -23.606   2.067  25.580  0.00  0.00    -0.002 A 
BRANCH  16  18
ATOM     18  C   UNL A   1     -24.948   0.221  24.834  0.00  0.00    +0.208 C 
ATOM     19  O   UNL A   1     -25.991   0.880  25.342  0.00  0.00    -0.215 OA
ENDBRANCH  16  18
ENDBRANCH  11  15
ENDBRANCH   1  11
TORSDOF 4
ENDMDL
ENDMDL
