REMARK  Name = No_2730-gen_results/8p0m/2024-11-26-14-13-15/
REMARK  4 active torsions:
REMARK  status: ('A' for Active; 'I' for Inactive)
REMARK    1  A    between atoms: C_4  and  C_7
REMARK    2  A    between atoms: C_5  and  C_17
REMARK    3  A    between atoms: C_7  and  C_8
REMARK    4  A    between atoms: C_9  and  C_10
REMARK                            x       y       z     vdW  Elec       q    Type
REMARK                         _______ _______ _______ _____ _____    ______ ____
ROOT
ATOM      1  C   UNL A   1     -23.661   0.103  29.845  0.00  0.00    -0.022 C 
ATOM      2  C   UNL A   1     -23.953   1.233  30.452  0.00  0.00    -0.007 C 
ENDROOT
BRANCH   2   3
ATOM      3  C   UNL A   1     -25.037   1.325  31.318  0.00  0.00    -0.009 C 
ATOM      4  C   UNL A   1     -25.292   2.660  31.911  0.00  0.00    -0.004 C 
ATOM      5  C   UNL A   1     -26.299   2.829  32.904  0.00  0.00    -0.005 C 
ATOM      6  C   UNL A   1     -26.913   1.657  33.336  0.00  0.00    -0.025 C 
ATOM      7  C   UNL A   1     -26.481   0.443  32.969  0.00  0.00    +0.045 C 
ATOM      8  C   UNL A   1     -25.508   0.304  32.070  0.00  0.00    +0.090 C 
ATOM      9  C   UNL A   1     -24.427  -0.559  32.793  0.00  0.00    +0.021 C 
ATOM     10 CL   UNL A   1     -26.353  -0.252  31.993  0.00  0.00    -0.111 Cl
ENDBRANCH   2   3
BRANCH   1  11
ATOM     11  C   UNL A   1     -24.355  -1.112  30.035  0.00  0.00    +0.052 C 
BRANCH  11  15
ATOM     12  C   UNL A   1     -28.016  -0.814  28.878  0.00  0.00    -0.000 A 
ATOM     13  C   UNL A   1     -28.469  -0.785  29.829  0.00  0.00    -0.000 A 
ATOM     14  C   UNL A   1     -26.546  -0.876  28.850  0.00  0.00    -0.004 A 
ATOM     15  C   UNL A   1     -25.804  -1.032  30.057  0.00  0.00    -0.019 A 
ATOM     16  C   UNL A   1     -26.537  -1.039  31.217  0.00  0.00    +0.007 A 
ATOM     17  C   UNL A   1     -27.884  -0.953  31.186  0.00  0.00    -0.002 A 
BRANCH  16  18
ATOM     18  C   UNL A   1     -26.145  -2.476  31.836  0.00  0.00    +0.208 C 
ATOM     19  O   UNL A   1     -26.475  -2.370  30.548  0.00  0.00    -0.215 OA
ENDBRANCH  16  18
ENDBRANCH  11  15
ENDBRANCH   1  11
TORSDOF 4
