MODEL 2731
MODEL 1
REMARK VINA RESULT:    -5.165      0.000      0.000
REMARK INTER + INTRA:          -5.494
REMARK INTER:                  -5.467
REMARK INTRA:                  -0.027
REMARK UNBOUND:                -0.027
REMARK  Name = No_2731-gen_results/8p0m/2024-11-26-14-13-15/
REMARK  1 active torsions:
REMARK  status: ('A' for Active; 'I' for Inactive)
REMARK    1  A    between atoms: C_1  and  C_5
REMARK                            x       y       z     vdW  Elec       q    Type
REMARK                         _______ _______ _______ _____ _____    ______ ____
ROOT
ATOM      1  C   UNL A   1      -9.369  -9.974  18.267  0.00  0.00    -0.003 A 
ATOM      2  C   UNL A   1      -8.327 -10.443  18.663  0.00  0.00    -0.003 A 
ATOM      3  C   UNL A   1      -7.764 -10.132  19.886  0.00  0.00    -0.000 A 
ATOM      4  C   UNL A   1      -8.533  -9.418  20.722  0.00  0.00    -0.000 A 
ATOM      5  C   UNL A   1      -9.791  -9.037  20.330  0.00  0.00    -0.000 A 
ATOM      6  C   UNL A   1     -10.204  -9.405  19.172  0.00  0.00    -0.003 A 
ENDROOT
BRANCH   1   7
ATOM      7  C   UNL A   1      -9.882 -10.507  16.999  0.00  0.00    +0.136 C 
ATOM      8  N   UNL A   1     -11.188 -10.503  16.805  0.00  0.00    -0.126 NA
ENDBRANCH   1   7
TORSDOF 1
ENDMDL
ENDMDL
