REMARK  Name = No_2732-gen_results/8p0m/2024-11-26-14-13-15/
REMARK  4 active torsions:
REMARK  status: ('A' for Active; 'I' for Inactive)
REMARK    1  A    between atoms: C_2  and  C_3
REMARK    2  A    between atoms: N_4  and  C_11
REMARK    3  A    between atoms: C_12  and  C_13
REMARK    4  A    between atoms: C_14  and  C_15
REMARK                            x       y       z     vdW  Elec       q    Type
REMARK                         _______ _______ _______ _____ _____    ______ ____
ROOT
ATOM      1  O   UNL A   1     -28.123  -1.335  28.487  0.00  0.00    -0.270 OA
ATOM      2  C   UNL A   1     -27.481  -0.404  28.709  0.00  0.00    +0.253 C 
ATOM      3  N   UNL A   1     -27.899   0.646  29.632  0.00  0.00    -0.252 N 
ATOM      4  C   UNL A   1     -29.070   0.392  30.417  0.00  0.00    +0.120 C 
ENDROOT
BRANCH   2   5
ATOM      5  C   UNL A   1     -26.380  -0.087  27.939  0.00  0.00    +0.054 A 
ATOM      6  C   UNL A   1     -26.319   0.918  27.102  0.00  0.00    +0.004 A 
ATOM      7  C   UNL A   1     -25.204   1.197  26.278  0.00  0.00    +0.000 A 
ATOM      8  C   UNL A   1     -23.945   0.696  26.705  0.00  0.00    +0.000 A 
ATOM      9  C   UNL A   1     -23.937  -0.173  27.789  0.00  0.00    +0.000 A 
ATOM     10  C   UNL A   1     -25.068  -0.583  28.438  0.00  0.00    +0.004 A 
ENDBRANCH   2   5
BRANCH   3  11
ATOM     11  C   UNL A   1     -27.120   1.757  29.909  0.00  0.00    +0.068 C 
ATOM     12  C   UNL A   1     -27.241   2.738  30.118  0.00  0.00    +0.016 C 
BRANCH  12  13
ATOM     13  C   UNL A   1     -27.014   3.740  30.149  0.00  0.00    +0.001 C 
ATOM     14  C   UNL A   1     -27.779   4.991  30.466  0.00  0.00    -0.000 C 
BRANCH  14  15
ATOM     15  C   UNL A   1     -27.271   6.301  30.458  0.00  0.00    -0.005 C 
ATOM     16  C   UNL A   1     -25.928   6.467  30.074  0.00  0.00    -0.026 C 
ATOM     17  C   UNL A   1     -25.179   5.430  29.594  0.00  0.00    +0.031 C 
ENDBRANCH  14  15
ENDBRANCH  12  13
ENDBRANCH   3  11
TORSDOF 4
