MODEL 2732
MODEL 1
REMARK VINA RESULT:    -6.206      0.000      0.000
REMARK INTER + INTRA:          -8.188
REMARK INTER:                  -7.657
REMARK INTRA:                  -0.531
REMARK UNBOUND:                -0.531
REMARK  Name = No_2732-gen_results/8p0m/2024-11-26-14-13-15/
REMARK  4 active torsions:
REMARK  status: ('A' for Active; 'I' for Inactive)
REMARK    1  A    between atoms: C_2  and  C_3
REMARK    2  A    between atoms: N_4  and  C_11
REMARK    3  A    between atoms: C_12  and  C_13
REMARK    4  A    between atoms: C_14  and  C_15
REMARK                            x       y       z     vdW  Elec       q    Type
REMARK                         _______ _______ _______ _____ _____    ______ ____
ROOT
ATOM      1  O   UNL A   1     -23.007  -0.783  29.755  0.00  0.00    -0.270 OA
ATOM      2  C   UNL A   1     -23.730  -1.092  28.912  0.00  0.00    +0.253 C 
ATOM      3  N   UNL A   1     -24.152  -0.179  27.855  0.00  0.00    -0.252 N 
ATOM      4  C   UNL A   1     -23.482   1.085  27.783  0.00  0.00    +0.120 C 
ENDROOT
BRANCH   2   5
ATOM      5  C   UNL A   1     -24.444  -2.272  28.971  0.00  0.00    +0.054 A 
ATOM      6  C   UNL A   1     -23.923  -3.467  28.843  0.00  0.00    +0.004 A 
ATOM      7  C   UNL A   1     -24.675  -4.664  28.849  0.00  0.00    +0.000 A 
ATOM      8  C   UNL A   1     -25.940  -4.628  29.495  0.00  0.00    +0.000 A 
ATOM      9  C   UNL A   1     -26.413  -3.389  29.906  0.00  0.00    +0.000 A 
ATOM     10  C   UNL A   1     -25.742  -2.216  29.698  0.00  0.00    +0.004 A 
ENDBRANCH   2   5
BRANCH   3  11
ATOM     11  C   UNL A   1     -25.009  -0.555  26.835  0.00  0.00    +0.068 C 
ATOM     12  C   UNL A   1     -25.282  -0.239  25.915  0.00  0.00    +0.016 C 
BRANCH  12  13
ATOM     13  C   UNL A   1     -25.892  -0.093  25.101  0.00  0.00    +0.001 C 
ATOM     14  C   UNL A   1     -27.020   0.841  24.775  0.00  0.00    -0.000 C 
BRANCH  14  15
ATOM     15  C   UNL A   1     -27.739   0.887  23.569  0.00  0.00    -0.005 C 
ATOM     16  C   UNL A   1     -28.951   0.175  23.516  0.00  0.00    -0.026 C 
ATOM     17  C   UNL A   1     -29.488  -0.424  24.620  0.00  0.00    +0.031 C 
ENDBRANCH  14  15
ENDBRANCH  12  13
ENDBRANCH   3  11
TORSDOF 4
ENDMDL
ENDMDL
