REMARK  Name = No_2733-gen_results/8p0m/2024-11-26-14-13-15/
REMARK  4 active torsions:
REMARK  status: ('A' for Active; 'I' for Inactive)
REMARK    1  A    between atoms: C_9  and  C_11
REMARK    2  A    between atoms: C_10  and  C_15
REMARK    3  A    between atoms: C_15  and  C_16
REMARK    4  A    between atoms: C_16  and  C_18
REMARK                            x       y       z     vdW  Elec       q    Type
REMARK                         _______ _______ _______ _____ _____    ______ ____
ROOT
ATOM      1  C   UNL A   1     -28.016  -0.814  28.878  0.00  0.00    +0.001 A 
ATOM      2  C   UNL A   1     -27.064  -0.119  28.608  0.00  0.00    -0.000 A 
ATOM      3  C   UNL A   1     -26.929   1.171  29.008  0.00  0.00    -0.003 A 
ATOM      4  C   UNL A   1     -27.956   1.741  29.784  0.00  0.00    +0.006 A 
ATOM      5  C   UNL A   1     -29.057  -0.327  29.747  0.00  0.00    +0.007 A 
ATOM      6  C   UNL A   1     -28.983   0.972  30.152  0.00  0.00    +0.035 A 
ATOM      7  C   UNL A   1     -25.881  -0.626  27.794  0.00  0.00    +0.000 A 
ATOM      8  C   UNL A   1     -24.547  -0.231  28.239  0.00  0.00    +0.006 A 
ATOM      9  C   UNL A   1     -24.328   1.134  28.333  0.00  0.00    +0.076 A 
ATOM     10  C   UNL A   1     -25.536   1.788  29.094  0.00  0.00    -0.015 A 
ATOM     11 BR   UNL A   1     -30.462   1.713  31.104  0.00  0.00    -0.049 Br
ENDROOT
BRANCH   9  12
ATOM     12  C   UNL A   1     -23.099   1.768  28.268  0.00  0.00    +0.387 C 
ATOM     13  O   UNL A   1     -22.589   1.823  27.051  0.00  0.00    -0.241 OA
ATOM     14  O   UNL A   1     -22.413   2.171  29.264  0.00  0.00    -0.241 OA
ENDBRANCH   9  12
BRANCH  10  15
ATOM     15  C   UNL A   1     -25.307   3.177  29.565  0.00  0.00    +0.034 C 
BRANCH  15  16
ATOM     16  C   UNL A   1     -25.777   4.148  28.707  0.00  0.00    +0.069 C 
ATOM     17  C   UNL A   1     -25.645   4.261  27.464  0.00  0.00    +0.009 C 
BRANCH  16  18
ATOM     18  C   UNL A   1     -26.309   5.341  29.434  0.00  0.00    +0.207 C 
ATOM     19  O   UNL A   1     -26.419   5.381  30.665  0.00  0.00    -0.288 OA
ENDBRANCH  16  18
ENDBRANCH  15  16
ENDBRANCH  10  15
TORSDOF 4
