MODEL 2733
MODEL 1
REMARK VINA RESULT:    -5.928      0.000      0.000
REMARK INTER + INTRA:          -7.980
REMARK INTER:                  -7.314
REMARK INTRA:                  -0.666
REMARK UNBOUND:                -0.666
REMARK  Name = No_2733-gen_results/8p0m/2024-11-26-14-13-15/
REMARK  4 active torsions:
REMARK  status: ('A' for Active; 'I' for Inactive)
REMARK    1  A    between atoms: C_9  and  C_11
REMARK    2  A    between atoms: C_10  and  C_15
REMARK    3  A    between atoms: C_15  and  C_16
REMARK    4  A    between atoms: C_16  and  C_18
REMARK                            x       y       z     vdW  Elec       q    Type
REMARK                         _______ _______ _______ _____ _____    ______ ____
ROOT
ATOM      1  C   UNL A   1     -23.118  -1.128  30.058  0.00  0.00    +0.001 A 
ATOM      2  C   UNL A   1     -23.116  -0.537  29.003  0.00  0.00    -0.000 A 
ATOM      3  C   UNL A   1     -24.022  -0.748  28.014  0.00  0.00    -0.003 A 
ATOM      4  C   UNL A   1     -25.026  -1.713  28.223  0.00  0.00    +0.006 A 
ATOM      5  C   UNL A   1     -24.171  -2.058  30.377  0.00  0.00    +0.007 A 
ATOM      6  C   UNL A   1     -25.088  -2.327  29.406  0.00  0.00    +0.035 A 
ATOM      7  C   UNL A   1     -22.096   0.542  28.667  0.00  0.00    +0.000 A 
ATOM      8  C   UNL A   1     -22.588   1.736  27.985  0.00  0.00    +0.006 A 
ATOM      9  C   UNL A   1     -23.245   1.512  26.786  0.00  0.00    +0.076 A 
ATOM     10  C   UNL A   1     -24.283   0.351  26.988  0.00  0.00    -0.015 A 
ATOM     11 BR   UNL A   1     -26.351  -3.726  29.711  0.00  0.00    -0.049 Br
ENDROOT
BRANCH   9  12
ATOM     12  C   UNL A   1     -23.387   2.422  25.752  0.00  0.00    +0.387 C 
ATOM     13  O   UNL A   1     -22.516   2.258  24.772  0.00  0.00    -0.241 OA
ATOM     14  O   UNL A   1     -24.176   3.423  25.741  0.00  0.00    -0.241 OA
ENDBRANCH   9  12
BRANCH  10  15
ATOM     15  C   UNL A   1     -25.289   0.209  25.907  0.00  0.00    +0.034 C 
BRANCH  15  16
ATOM     16  C   UNL A   1     -26.501   0.805  26.183  0.00  0.00    +0.069 C 
ATOM     17  C   UNL A   1     -26.881   1.430  27.203  0.00  0.00    +0.009 C 
BRANCH  16  18
ATOM     18  C   UNL A   1     -27.561   0.421  25.201  0.00  0.00    +0.207 C 
ATOM     19  O   UNL A   1     -27.605   0.875  24.051  0.00  0.00    -0.288 OA
ENDBRANCH  16  18
ENDBRANCH  15  16
ENDBRANCH  10  15
TORSDOF 4
ENDMDL
ENDMDL
