MODEL 2734
MODEL 1
REMARK VINA RESULT:    -5.945      0.000      0.000
REMARK INTER + INTRA:          -7.315
REMARK INTER:                  -7.336
REMARK INTRA:                   0.021
REMARK UNBOUND:                 0.021
REMARK  Name = No_2734-gen_results/8p0m/2024-11-26-14-13-15/
REMARK  4 active torsions:
REMARK  status: ('A' for Active; 'I' for Inactive)
REMARK    1  A    between atoms: C_1  and  C_11
REMARK    2  A    between atoms: C_3  and  C_16
REMARK    3  A    between atoms: C_9  and  C_21
REMARK    4  A    between atoms: C_16  and  O_18
REMARK                            x       y       z     vdW  Elec       q    Type
REMARK                         _______ _______ _______ _____ _____    ______ ____
ROOT
ATOM      1  C   UNL A   1      -4.713   0.297  10.749  0.00  0.00    +0.068 C 
ATOM      2  C   UNL A   1      -5.806   0.699  10.423  0.00  0.00    -0.023 C 
ATOM      3  C   UNL A   1      -6.349   0.589   9.154  0.00  0.00    +0.174 C 
ATOM      4  C   UNL A   1      -7.613   1.129   8.717  0.00  0.00    +0.164 C 
ATOM      5  C   UNL A   1      -8.405   1.841   9.650  0.00  0.00    +0.060 C 
ATOM      6  C   UNL A   1      -9.644   2.440   9.326  0.00  0.00    +0.007 C 
ATOM      7  C   UNL A   1     -10.366   3.139  10.290  0.00  0.00    +0.002 C 
ATOM      8  C   UNL A   1      -9.557   3.822  11.158  0.00  0.00    +0.026 C 
ATOM      9  C   UNL A   1      -8.279   3.395  11.596  0.00  0.00    +0.161 C 
ATOM     10  C   UNL A   1      -7.629   2.728  10.601  0.00  0.00    +0.033 C 
ATOM     11  C   UNL A   1      -6.478   1.830  11.232  0.00  0.00    +0.025 C 
ATOM     12  O   UNL A   1      -8.127   0.728   7.639  0.00  0.00    -0.295 OA
ATOM     13  C   UNL A   1      -6.718   3.716   9.789  0.00  0.00    +0.003 C 
ATOM     14 CL   UNL A   1      -8.475   2.039  12.579  0.00  0.00    -0.105 Cl
ENDROOT
BRANCH   1  15
ATOM     15  C   UNL A   1      -4.287   0.451  12.152  0.00  0.00    +0.418 C 
ATOM     16  F   UNL A   1      -3.955   1.655  12.571  0.00  0.00    -0.166 F 
ATOM     17  F   UNL A   1      -5.275   0.073  13.061  0.00  0.00    -0.166 F 
ATOM     18  F   UNL A   1      -3.167  -0.383  12.395  0.00  0.00    -0.166 F 
ENDBRANCH   1  15
BRANCH   9  19
ATOM     19  C   UNL A   1      -7.612   4.052  12.676  0.00  0.00    +0.378 C 
ATOM     20  O   UNL A   1      -7.153   3.569  13.678  0.00  0.00    -0.244 OA
ATOM     21  O   UNL A   1      -7.740   5.394  12.676  0.00  0.00    -0.244 OA
ENDBRANCH   9  19
BRANCH   3  22
ATOM     22  C   UNL A   1      -5.786  -0.417   8.238  0.00  0.00    +0.328 C 
ATOM     23  O   UNL A   1      -5.907  -1.520   8.341  0.00  0.00    -0.249 OA
BRANCH  22  24
ATOM     24  O   UNL A   1      -4.719   0.141   7.511  0.00  0.00    -0.444 OA
ATOM     25  C   UNL A   1      -3.668  -0.358   7.148  0.00  0.00    +0.256 C 
ENDBRANCH  22  24
ENDBRANCH   3  22
TORSDOF 4
ENDMDL
ENDMDL
