REMARK  Name = No_2734-gen_results/8p0m/2024-11-26-14-13-15/
REMARK  4 active torsions:
REMARK  status: ('A' for Active; 'I' for Inactive)
REMARK    1  A    between atoms: C_1  and  C_11
REMARK    2  A    between atoms: C_3  and  C_16
REMARK    3  A    between atoms: C_9  and  C_21
REMARK    4  A    between atoms: C_16  and  O_18
REMARK                            x       y       z     vdW  Elec       q    Type
REMARK                         _______ _______ _______ _____ _____    ______ ____
ROOT
ATOM      1  C   UNL A   1     -28.016  -0.814  28.878  0.00  0.00    +0.068 C 
ATOM      2  C   UNL A   1     -27.064  -0.119  28.608  0.00  0.00    -0.023 C 
ATOM      3  C   UNL A   1     -26.972   0.714  27.506  0.00  0.00    +0.174 C 
ATOM      4  C   UNL A   1     -25.821   1.491  27.116  0.00  0.00    +0.164 C 
ATOM      5  C   UNL A   1     -24.656   1.424  27.918  0.00  0.00    +0.060 C 
ATOM      6  C   UNL A   1     -23.460   2.116  27.616  0.00  0.00    +0.007 C 
ATOM      7  C   UNL A   1     -22.345   1.994  28.441  0.00  0.00    +0.002 C 
ATOM      8  C   UNL A   1     -22.216   0.737  28.967  0.00  0.00    +0.026 C 
ATOM      9  C   UNL A   1     -23.289  -0.116  29.325  0.00  0.00    +0.161 C 
ATOM     10  C   UNL A   1     -24.339   0.050  28.472  0.00  0.00    +0.033 C 
ATOM     11  C   UNL A   1     -25.669  -0.486  29.160  0.00  0.00    +0.025 C 
ATOM     12  O   UNL A   1     -25.946   2.417  26.272  0.00  0.00    -0.295 OA
ATOM     13  C   UNL A   1     -24.259  -0.994  27.302  0.00  0.00    +0.003 C 
ATOM     14 CL   UNL A   1     -24.078   0.546  30.660  0.00  0.00    -0.105 Cl
ENDROOT
BRANCH   1  15
ATOM     15  C   UNL A   1     -27.983  -1.620  30.112  0.00  0.00    +0.418 C 
ATOM     16  F   UNL A   1     -26.827  -2.124  30.492  0.00  0.00    -0.166 F 
ATOM     17  F   UNL A   1     -28.388  -0.902  31.237  0.00  0.00    -0.166 F 
ATOM     18  F   UNL A   1     -28.875  -2.713  29.980  0.00  0.00    -0.166 F 
ENDBRANCH   1  15
BRANCH   9  19
ATOM     19  C   UNL A   1     -23.064  -1.308  30.080  0.00  0.00    +0.378 C 
ATOM     20  O   UNL A   1     -23.824  -2.216  30.292  0.00  0.00    -0.244 OA
ATOM     21  O   UNL A   1     -21.952  -1.283  30.843  0.00  0.00    -0.244 OA
ENDBRANCH   9  19
BRANCH   3  22
ATOM     22  C   UNL A   1     -28.217   1.121  26.833  0.00  0.00    +0.328 C 
ATOM     23  O   UNL A   1     -29.065   1.656  27.319  0.00  0.00    -0.249 OA
BRANCH  22  24
ATOM     24  O   UNL A   1     -28.399   0.363  25.662  0.00  0.00    -0.444 OA
ATOM     25  C   UNL A   1     -27.828   0.427  24.587  0.00  0.00    +0.256 C 
ENDBRANCH  22  24
ENDBRANCH   3  22
TORSDOF 4
