MODEL 2735
MODEL 1
REMARK VINA RESULT:    -4.290      0.000      0.000
REMARK INTER + INTRA:          -4.290
REMARK INTER:                  -4.290
REMARK INTRA:                   0.000
REMARK UNBOUND:                 0.000
REMARK  Name = No_2735-gen_results/8p0m/2024-11-26-14-13-15/
REMARK  0 active torsions:
REMARK  status: ('A' for Active; 'I' for Inactive)
REMARK                            x       y       z     vdW  Elec       q    Type
REMARK                         _______ _______ _______ _____ _____    ______ ____
ROOT
ATOM      1  C   UNL A   1     -24.965  -5.362  28.989  0.00  0.00    +0.000 A 
ATOM      2  C   UNL A   1     -24.196  -4.676  28.769  0.00  0.00    +0.000 A 
ATOM      3  C   UNL A   1     -26.141  -4.744  29.603  0.00  0.00    +0.000 A 
ATOM      4  C   UNL A   1     -26.216  -3.394  29.840  0.00  0.00    +0.000 A 
ATOM      5  C   UNL A   1     -24.002  -3.232  28.900  0.00  0.00    +0.000 A 
ATOM      6  C   UNL A   1     -25.135  -2.625  29.493  0.00  0.00    +0.000 A 
ENDROOT
TORSDOF 0
ENDMDL
ENDMDL
