MODEL 2736
MODEL 1
REMARK VINA RESULT:    -5.264      0.000      0.000
REMARK INTER + INTRA:          -5.612
REMARK INTER:                  -5.572
REMARK INTRA:                  -0.040
REMARK UNBOUND:                -0.040
REMARK  Name = No_2736-gen_results/8p0m/2024-11-26-14-13-15/
REMARK  1 active torsions:
REMARK  status: ('A' for Active; 'I' for Inactive)
REMARK    1  A    between atoms: C_2  and  C_7
REMARK                            x       y       z     vdW  Elec       q    Type
REMARK                         _______ _______ _______ _____ _____    ______ ____
ROOT
ATOM      1  C   UNL A   1     -10.313  -9.398  19.102  0.00  0.00    +0.007 A 
ATOM      2  C   UNL A   1      -9.718 -10.037  18.511  0.00  0.00    +0.080 A 
ATOM      3  C   UNL A   1      -9.762  -9.008  20.410  0.00  0.00    +0.000 A 
ATOM      4  C   UNL A   1      -8.433  -9.372  20.775  0.00  0.00    +0.000 A 
ATOM      5  C   UNL A   1      -8.310 -10.505  18.629  0.00  0.00    +0.007 A 
ATOM      6  C   UNL A   1      -7.768 -10.171  19.834  0.00  0.00    +0.000 A 
ENDROOT
BRANCH   2   7
ATOM      7  C   UNL A   1     -10.271 -10.467  17.079  0.00  0.00    +0.388 C 
ATOM      8  O   UNL A   1     -11.532 -10.537  16.913  0.00  0.00    -0.241 OA
ATOM      9  O   UNL A   1      -9.427 -11.004  16.295  0.00  0.00    -0.241 OA
ENDBRANCH   2   7
TORSDOF 1
ENDMDL
ENDMDL
