REMARK  Name = No_2737-gen_results/8p0m/2024-11-26-14-13-15/
REMARK  6 active torsions:
REMARK  status: ('A' for Active; 'I' for Inactive)
REMARK    1  A    between atoms: C_2  and  C_4
REMARK    2  A    between atoms: C_6  and  C_10
REMARK    3  A    between atoms: C_9  and  O_23
REMARK    4  A    between atoms: C_11  and  C_13
REMARK    5  A    between atoms: C_13  and  C_14
REMARK    6  A    between atoms: C_17  and  C_20
REMARK                            x       y       z     vdW  Elec       q    Type
REMARK                         _______ _______ _______ _____ _____    ______ ____
ROOT
ATOM      1  C   UNL A   1     -23.882   2.220  26.438  0.00  0.00    -0.026 C 
ATOM      2  C   UNL A   1     -24.552   3.449  26.443  0.00  0.00    -0.026 C 
ATOM      3  C   UNL A   1     -22.678   2.121  25.684  0.00  0.00    +0.031 C 
ENDROOT
BRANCH   1   6
ATOM      4  C   UNL A   1     -26.081  -0.392  28.077  0.00  0.00    +0.077 A 
ATOM      5  C   UNL A   1     -25.731   0.717  27.309  0.00  0.00    +0.004 A 
ATOM      6  C   UNL A   1     -24.380   1.085  27.219  0.00  0.00    -0.004 A 
ATOM      7  C   UNL A   1     -23.375   0.403  27.969  0.00  0.00    +0.003 A 
ATOM      8  C   UNL A   1     -23.814  -0.695  28.781  0.00  0.00    +0.037 A 
ATOM      9  C   UNL A   1     -25.041  -1.052  28.880  0.00  0.00    +0.140 A 
BRANCH   4  11
ATOM     10  F   UNL A   1     -28.073  -1.254  28.532  0.00  0.00    -0.193 F 
ATOM     11  C   UNL A   1     -27.359  -0.379  28.722  0.00  0.00    +0.344 C 
ATOM     12  F   UNL A   1     -27.758   0.497  29.401  0.00  0.00    -0.193 F 
ENDBRANCH   4  11
BRANCH   9  13
ATOM     13  O   UNL A   1     -25.412  -2.103  29.594  0.00  0.00    -0.472 OA
ATOM     14  C   UNL A   1     -25.704  -2.058  30.808  0.00  0.00    +0.253 C 
ENDBRANCH   9  13
ENDBRANCH   1   6
BRANCH   2  15
ATOM     15  C   UNL A   1     -25.629   3.758  27.303  0.00  0.00    +0.052 C 
BRANCH  15  16
ATOM     16  C   UNL A   1     -25.527   4.596  28.335  0.00  0.00    -0.018 A 
ATOM     17  C   UNL A   1     -25.211   5.756  28.180  0.00  0.00    -0.004 A 
ATOM     18  C   UNL A   1     -25.106   6.796  29.200  0.00  0.00    +0.006 A 
ATOM     19  C   UNL A   1     -25.438   6.420  30.484  0.00  0.00    +0.080 A 
ATOM     20  C   UNL A   1     -25.858   5.106  30.730  0.00  0.00    +0.006 A 
ATOM     21  C   UNL A   1     -25.935   4.200  29.668  0.00  0.00    -0.004 A 
BRANCH  19  22
ATOM     22  C   UNL A   1     -25.378   7.421  31.583  0.00  0.00    +0.388 C 
ATOM     23  O   UNL A   1     -25.448   7.090  32.712  0.00  0.00    -0.241 OA
ATOM     24  O   UNL A   1     -25.066   8.662  31.205  0.00  0.00    -0.241 OA
ENDBRANCH  19  22
ENDBRANCH  15  16
ENDBRANCH   2  15
TORSDOF 6
