MODEL 2737
MODEL 1
REMARK VINA RESULT:    -7.431      0.000      0.000
REMARK INTER + INTRA:         -11.470
REMARK INTER:                 -10.038
REMARK INTRA:                  -1.432
REMARK UNBOUND:                -1.432
REMARK  Name = No_2737-gen_results/8p0m/2024-11-26-14-13-15/
REMARK  6 active torsions:
REMARK  status: ('A' for Active; 'I' for Inactive)
REMARK    1  A    between atoms: C_2  and  C_4
REMARK    2  A    between atoms: C_6  and  C_10
REMARK    3  A    between atoms: C_9  and  O_23
REMARK    4  A    between atoms: C_11  and  C_13
REMARK    5  A    between atoms: C_13  and  C_14
REMARK    6  A    between atoms: C_17  and  C_20
REMARK                            x       y       z     vdW  Elec       q    Type
REMARK                         _______ _______ _______ _____ _____    ______ ____
ROOT
ATOM      1  C   UNL A   1     -24.044  -0.121  28.241  0.00  0.00    -0.026 C 
ATOM      2  C   UNL A   1     -23.155   0.619  29.030  0.00  0.00    -0.026 C 
ATOM      3  C   UNL A   1     -24.288   0.329  26.912  0.00  0.00    +0.031 C 
ENDROOT
BRANCH   1   6
ATOM      4  C   UNL A   1     -24.729  -3.683  29.330  0.00  0.00    +0.077 A 
ATOM      5  C   UNL A   1     -24.032  -2.593  28.813  0.00  0.00    +0.004 A 
ATOM      6  C   UNL A   1     -24.669  -1.344  28.751  0.00  0.00    -0.004 A 
ATOM      7  C   UNL A   1     -26.039  -1.191  29.122  0.00  0.00    +0.003 A 
ATOM      8  C   UNL A   1     -26.711  -2.367  29.595  0.00  0.00    +0.037 A 
ATOM      9  C   UNL A   1     -26.152  -3.519  29.662  0.00  0.00    +0.140 A 
BRANCH   4  11
ATOM     10  F   UNL A   1     -23.730  -5.047  27.896  0.00  0.00    -0.193 F 
ATOM     11  C   UNL A   1     -24.425  -4.979  28.804  0.00  0.00    +0.344 C 
ATOM     12  F   UNL A   1     -24.879  -5.989  29.205  0.00  0.00    -0.193 F 
ENDBRANCH   4  11
BRANCH   9  13
ATOM     13  O   UNL A   1     -26.779  -4.577  30.153  0.00  0.00    -0.472 OA
ATOM     14  C   UNL A   1     -28.006  -4.619  30.386  0.00  0.00    +0.253 C 
ENDBRANCH   9  13
ENDBRANCH   1   6
BRANCH   2  15
ATOM     15  C   UNL A   1     -22.657   0.184  30.278  0.00  0.00    +0.052 C 
BRANCH  15  16
ATOM     16  C   UNL A   1     -23.423   0.012  31.355  0.00  0.00    -0.018 A 
ATOM     17  C   UNL A   1     -23.206  -0.875  32.152  0.00  0.00    -0.004 A 
ATOM     18  C   UNL A   1     -23.924  -1.155  33.393  0.00  0.00    +0.006 A 
ATOM     19  C   UNL A   1     -24.947  -0.286  33.709  0.00  0.00    +0.080 A 
ATOM     20  C   UNL A   1     -25.224   0.791  32.857  0.00  0.00    +0.006 A 
ATOM     21  C   UNL A   1     -24.457   0.967  31.702  0.00  0.00    -0.004 A 
BRANCH  19  22
ATOM     22  C   UNL A   1     -25.719  -0.485  34.966  0.00  0.00    +0.388 C 
ATOM     23  O   UNL A   1     -26.739   0.076  35.148  0.00  0.00    -0.241 OA
ATOM     24  O   UNL A   1     -25.268  -1.456  35.762  0.00  0.00    -0.241 OA
ENDBRANCH  19  22
ENDBRANCH  15  16
ENDBRANCH   2  15
TORSDOF 6
ENDMDL
ENDMDL
