MODEL 2738
MODEL 1
REMARK VINA RESULT:    -5.478      0.000      0.000
REMARK INTER + INTRA:          -6.014
REMARK INTER:                  -5.799
REMARK INTRA:                  -0.215
REMARK UNBOUND:                -0.215
REMARK  Name = No_2738-gen_results/8p0m/2024-11-26-14-13-15/
REMARK  1 active torsions:
REMARK  status: ('A' for Active; 'I' for Inactive)
REMARK    1  A    between atoms: C_3  and  C_8
REMARK                            x       y       z     vdW  Elec       q    Type
REMARK                         _______ _______ _______ _____ _____    ______ ____
ROOT
ATOM      1  C   UNL A   1     -10.707  -9.467  18.819  0.00  0.00    +0.042 A 
ATOM      2  C   UNL A   1      -9.810  -9.293  19.611  0.00  0.00    +0.003 A 
ATOM      3  C   UNL A   1      -8.550  -9.876  19.490  0.00  0.00    -0.000 A 
ATOM      4  C   UNL A   1      -8.298 -10.791  18.393  0.00  0.00    +0.003 A 
ATOM      5  C   UNL A   1      -9.393 -10.952  17.515  0.00  0.00    +0.042 A 
ATOM      6  C   UNL A   1     -10.545 -10.364  17.715  0.00  0.00    +0.196 A 
ATOM      7  O   UNL A   1     -11.549 -10.635  16.829  0.00  0.00    -0.287 OA
ENDROOT
BRANCH   3   8
ATOM      8  C   UNL A   1      -7.392  -9.708  20.428  0.00  0.00    -0.005 C 
ATOM      9  C   UNL A   1      -6.588  -8.659  20.320  0.00  0.00    -0.026 C 
ATOM     10  C   UNL A   1      -6.706  -7.594  19.474  0.00  0.00    +0.031 C 
ENDBRANCH   3   8
TORSDOF 1
ENDMDL
ENDMDL
