REMARK  Name = No_2739-gen_results/8p0m/2024-11-26-14-13-15/
REMARK  2 active torsions:
REMARK  status: ('A' for Active; 'I' for Inactive)
REMARK    1  A    between atoms: C_2  and  C_5
REMARK    2  A    between atoms: C_3  and  C_10
REMARK                            x       y       z     vdW  Elec       q    Type
REMARK                         _______ _______ _______ _____ _____    ______ ____
ROOT
ATOM      1  C   UNL A   1     -28.016  -0.814  28.878  0.00  0.00    +0.007 A 
ATOM      2  C   UNL A   1     -28.469  -0.785  29.829  0.00  0.00    +0.080 A 
ATOM      3  C   UNL A   1     -28.196   0.348  28.055  0.00  0.00    +0.000 A 
ATOM      4  C   UNL A   1     -29.019   1.350  28.378  0.00  0.00    +0.000 A 
ATOM      5  C   UNL A   1     -29.595   1.286  29.605  0.00  0.00    +0.000 A 
ATOM      6  C   UNL A   1     -29.346   0.209  30.375  0.00  0.00    +0.007 A 
ENDROOT
BRANCH   3   7
ATOM      7  C   UNL A   1     -27.450   0.371  26.687  0.00  0.00    +0.000 A 
ATOM      8  C   UNL A   1     -26.054   0.346  26.703  0.00  0.00    +0.000 A 
ATOM      9  C   UNL A   1     -25.312   0.708  25.585  0.00  0.00    +0.000 A 
ATOM     10  C   UNL A   1     -28.113   0.390  25.524  0.00  0.00    +0.000 A 
ATOM     11  C   UNL A   1     -27.390   0.541  24.293  0.00  0.00    +0.000 A 
ATOM     12  C   UNL A   1     -26.000   0.657  24.314  0.00  0.00    +0.000 A 
ENDBRANCH   3   7
BRANCH   2  13
ATOM     13  C   UNL A   1     -28.317  -1.981  30.856  0.00  0.00    +0.388 C 
ATOM     14  O   UNL A   1     -29.262  -2.724  31.011  0.00  0.00    -0.241 OA
ATOM     15  O   UNL A   1     -27.318  -2.020  31.616  0.00  0.00    -0.241 OA
ENDBRANCH   2  13
TORSDOF 2
