MODEL 2739
MODEL 1
REMARK VINA RESULT:    -7.148      0.000      0.000
REMARK INTER + INTRA:          -8.464
REMARK INTER:                  -7.983
REMARK INTRA:                  -0.481
REMARK UNBOUND:                -0.481
REMARK  Name = No_2739-gen_results/8p0m/2024-11-26-14-13-15/
REMARK  2 active torsions:
REMARK  status: ('A' for Active; 'I' for Inactive)
REMARK    1  A    between atoms: C_2  and  C_5
REMARK    2  A    between atoms: C_3  and  C_10
REMARK                            x       y       z     vdW  Elec       q    Type
REMARK                         _______ _______ _______ _____ _____    ______ ____
ROOT
ATOM      1  C   UNL A   1     -28.423 -11.677  31.220  0.00  0.00    +0.007 A 
ATOM      2  C   UNL A   1     -28.183 -11.446  32.220  0.00  0.00    +0.080 A 
ATOM      3  C   UNL A   1     -29.367 -10.807  30.578  0.00  0.00    +0.000 A 
ATOM      4  C   UNL A   1     -30.042  -9.856  31.230  0.00  0.00    +0.000 A 
ATOM      5  C   UNL A   1     -29.699  -9.654  32.528  0.00  0.00    +0.000 A 
ATOM      6  C   UNL A   1     -28.759 -10.449  33.074  0.00  0.00    +0.007 A 
ENDROOT
BRANCH   3   7
ATOM      7  C   UNL A   1     -29.659 -11.066  29.070  0.00  0.00    +0.000 A 
ATOM      8  C   UNL A   1     -28.988 -12.120  28.446  0.00  0.00    +0.000 A 
ATOM      9  C   UNL A   1     -28.915 -12.210  27.061  0.00  0.00    +0.000 A 
ATOM     10  C   UNL A   1     -30.540 -10.326  28.386  0.00  0.00    +0.000 A 
ATOM     11  C   UNL A   1     -30.684 -10.514  26.970  0.00  0.00    +0.000 A 
ATOM     12  C   UNL A   1     -29.912 -11.474  26.316  0.00  0.00    +0.000 A 
ENDBRANCH   3   7
BRANCH   2  13
ATOM     13  C   UNL A   1     -27.125 -12.298  33.036  0.00  0.00    +0.388 C 
ATOM     14  O   UNL A   1     -26.396 -13.044  32.420  0.00  0.00    -0.241 OA
ATOM     15  O   UNL A   1     -27.193 -12.331  34.289  0.00  0.00    -0.241 OA
ENDBRANCH   2  13
TORSDOF 2
ENDMDL
ENDMDL
