MODEL 273
MODEL 1
REMARK VINA RESULT:    -5.655      0.000      0.000
REMARK INTER + INTRA:          -6.071
REMARK INTER:                  -5.986
REMARK INTRA:                  -0.085
REMARK UNBOUND:                -0.085
REMARK  Name = No_273-gen_results/8p0m/2024-11-26-14-13-15/
REMARK  1 active torsions:
REMARK  status: ('A' for Active; 'I' for Inactive)
REMARK    1  A    between atoms: C_3  and  C_7
REMARK                            x       y       z     vdW  Elec       q    Type
REMARK                         _______ _______ _______ _____ _____    ______ ____
ROOT
ATOM      1  C   UNL A   1     -25.802  -2.378  29.983  0.00  0.00    +0.034 A 
ATOM      2  C   UNL A   1     -26.407  -3.236  30.072  0.00  0.00    +0.142 A 
ATOM      3  C   UNL A   1     -24.514  -2.634  29.339  0.00  0.00    +0.076 A 
ATOM      4  C   UNL A   1     -24.160  -3.880  28.884  0.00  0.00    +0.034 A 
ATOM      5  C   UNL A   1     -26.300  -4.644  29.689  0.00  0.00    +0.059 A 
ATOM      6  C   UNL A   1     -25.057  -4.902  29.064  0.00  0.00    +0.142 A 
ATOM      7  F   UNL A   1     -27.752  -3.043  30.628  0.00  0.00    -0.204 F 
ATOM      8  F   UNL A   1     -24.773  -6.150  28.690  0.00  0.00    -0.204 F 
ENDROOT
BRANCH   3   9
ATOM      9  C   UNL A   1     -23.536  -1.536  29.087  0.00  0.00    +0.419 C 
ATOM     10  F   UNL A   1     -22.475  -1.937  28.901  0.00  0.00    -0.166 F 
ATOM     11  F   UNL A   1     -23.448  -0.673  30.182  0.00  0.00    -0.166 F 
ATOM     12  F   UNL A   1     -23.999  -0.715  28.056  0.00  0.00    -0.166 F 
ENDBRANCH   3   9
TORSDOF 1
ENDMDL
ENDMDL
