REMARK  Name = No_274-gen_results/8p0m/2024-11-26-14-13-15/
REMARK  0 active torsions:
REMARK  status: ('A' for Active; 'I' for Inactive)
REMARK                            x       y       z     vdW  Elec       q    Type
REMARK                         _______ _______ _______ _____ _____    ______ ____
ROOT
ATOM      1  O   UNL A   1     -28.123  -1.335  28.487  0.00  0.00    -0.219 OA
ATOM      2  C   UNL A   1     -28.521  -0.436  29.078  0.00  0.00    +0.483 C 
ATOM      3  F   UNL A   1     -27.973  -0.016  30.087  0.00  0.00    -0.132 F 
ATOM      4  F   UNL A   1     -29.633   0.099  28.669  0.00  0.00    -0.132 F 
ENDROOT
TORSDOF 0
