REMARK  Name = No_2740-gen_results/8p0m/2024-11-26-14-13-15/
REMARK  3 active torsions:
REMARK  status: ('A' for Active; 'I' for Inactive)
REMARK    1  A    between atoms: C_6  and  C_8
REMARK    2  A    between atoms: C_7  and  C_15
REMARK    3  A    between atoms: C_16  and  C_17
REMARK                            x       y       z     vdW  Elec       q    Type
REMARK                         _______ _______ _______ _____ _____    ______ ____
ROOT
ATOM      1  F   UNL A   1     -28.073  -1.254  28.532  0.00  0.00    -0.204 F 
ATOM      2  C   UNL A   1     -27.061  -0.629  28.872  0.00  0.00    +0.140 A 
ATOM      3  C   UNL A   1     -26.153  -1.156  29.454  0.00  0.00    +0.030 A 
ATOM      4  C   UNL A   1     -24.878  -0.579  29.864  0.00  0.00    +0.002 A 
ATOM      5  C   UNL A   1     -24.743   0.827  29.481  0.00  0.00    +0.002 A 
ATOM      6  C   UNL A   1     -25.788   1.393  28.763  0.00  0.00    +0.019 A 
ATOM      7  C   UNL A   1     -26.915   0.731  28.443  0.00  0.00    +0.029 A 
ENDROOT
BRANCH   6   8
ATOM      8  C   UNL A   1     -25.533   2.834  28.372  0.00  0.00    +0.077 A 
ATOM      9  N   UNL A   1     -25.759   3.817  29.181  0.00  0.00    -0.244 NA
ATOM     10  C   UNL A   1     -25.056   3.128  27.033  0.00  0.00    -0.004 A 
ATOM     11  C   UNL A   1     -25.980   4.986  28.835  0.00  0.00    +0.099 A 
ATOM     12  C   UNL A   1     -24.961   4.498  26.660  0.00  0.00    -0.001 A 
ATOM     13  C   UNL A   1     -25.378   5.486  27.581  0.00  0.00    +0.020 A 
ATOM     14  C   UNL A   1     -24.574   2.136  26.178  0.00  0.00    +0.033 C 
ENDBRANCH   6   8
BRANCH   7  15
ATOM     15  C   UNL A   1     -27.988   1.340  27.677  0.00  0.00    +0.002 C 
ATOM     16  C   UNL A   1     -28.003   1.285  26.321  0.00  0.00    +0.000 C 
BRANCH  16  17
ATOM     17  C   UNL A   1     -28.843   1.820  25.659  0.00  0.00    +0.000 A 
ATOM     18  C   UNL A   1     -28.811   1.666  24.155  0.00  0.00    +0.000 A 
ATOM     19  C   UNL A   1     -29.752   2.372  23.391  0.00  0.00    +0.000 A 
ATOM     20  C   UNL A   1     -30.788   3.144  23.952  0.00  0.00    +0.000 A 
ATOM     21  C   UNL A   1     -30.876   3.168  25.358  0.00  0.00    +0.000 A 
ATOM     22  C   UNL A   1     -29.952   2.631  26.171  0.00  0.00    +0.000 A 
ENDBRANCH  16  17
ENDBRANCH   7  15
TORSDOF 3
