MODEL 2740
MODEL 1
REMARK VINA RESULT:    -7.087      0.000      0.000
REMARK INTER + INTRA:          -9.654
REMARK INTER:                  -8.330
REMARK INTRA:                  -1.323
REMARK UNBOUND:                -1.323
REMARK  Name = No_2740-gen_results/8p0m/2024-11-26-14-13-15/
REMARK  3 active torsions:
REMARK  status: ('A' for Active; 'I' for Inactive)
REMARK    1  A    between atoms: C_6  and  C_8
REMARK    2  A    between atoms: C_7  and  C_15
REMARK    3  A    between atoms: C_16  and  C_17
REMARK                            x       y       z     vdW  Elec       q    Type
REMARK                         _______ _______ _______ _____ _____    ______ ____
ROOT
ATOM      1  F   UNL A   1     -22.757   2.451  26.417  0.00  0.00    -0.204 F 
ATOM      2  C   UNL A   1     -22.376   1.533  27.153  0.00  0.00    +0.140 A 
ATOM      3  C   UNL A   1     -21.238   1.446  27.527  0.00  0.00    +0.030 A 
ATOM      4  C   UNL A   1     -20.651   0.471  28.437  0.00  0.00    +0.002 A 
ATOM      5  C   UNL A   1     -21.628  -0.500  28.935  0.00  0.00    +0.002 A 
ATOM      6  C   UNL A   1     -22.945  -0.341  28.526  0.00  0.00    +0.019 A 
ATOM      7  C   UNL A   1     -23.350   0.622  27.679  0.00  0.00    +0.029 A 
ENDROOT
BRANCH   6   8
ATOM      8  C   UNL A   1     -23.886  -1.362  29.132  0.00  0.00    +0.077 A 
ATOM      9  N   UNL A   1     -23.998  -2.560  28.658  0.00  0.00    -0.244 NA
ATOM     10  C   UNL A   1     -24.718  -0.976  30.257  0.00  0.00    -0.004 A 
ATOM     11  C   UNL A   1     -24.989  -3.290  28.800  0.00  0.00    +0.099 A 
ATOM     12  C   UNL A   1     -25.685  -1.918  30.707  0.00  0.00    -0.001 A 
ATOM     13  C   UNL A   1     -25.818  -3.143  30.015  0.00  0.00    +0.020 A 
ATOM     14  C   UNL A   1     -24.506   0.205  30.970  0.00  0.00    +0.033 C 
ENDBRANCH   6   8
BRANCH   7  15
ATOM     15  C   UNL A   1     -24.738   0.778  27.278  0.00  0.00    +0.002 C 
ATOM     16  C   UNL A   1     -25.233   0.130  26.193  0.00  0.00    +0.000 C 
BRANCH  16  17
ATOM     17  C   UNL A   1     -26.355   0.276  25.807  0.00  0.00    +0.000 A 
ATOM     18  C   UNL A   1     -27.460   0.520  26.811  0.00  0.00    +0.000 A 
ATOM     19  C   UNL A   1     -28.780   0.602  26.345  0.00  0.00    +0.000 A 
ATOM     20  C   UNL A   1     -29.127   0.564  24.980  0.00  0.00    +0.000 A 
ATOM     21  C   UNL A   1     -28.069   0.467  24.055  0.00  0.00    +0.000 A 
ATOM     22  C   UNL A   1     -26.790   0.257  24.407  0.00  0.00    +0.000 A 
ENDBRANCH  16  17
ENDBRANCH   7  15
TORSDOF 3
ENDMDL
ENDMDL
