MODEL 2741
MODEL 1
REMARK VINA RESULT:    -7.077      0.000      0.000
REMARK INTER + INTRA:         -10.976
REMARK INTER:                  -9.973
REMARK INTRA:                  -1.003
REMARK UNBOUND:                -1.003
REMARK  Name = No_2741-gen_results/8p0m/2024-11-26-14-13-15/
REMARK  7 active torsions:
REMARK  status: ('A' for Active; 'I' for Inactive)
REMARK    1  A    between atoms: C_3  and  C_7
REMARK    2  A    between atoms: C_8  and  C_20
REMARK    3  A    between atoms: C_11  and  N_13
REMARK    4  A    between atoms: N_22  and  C_23
REMARK    5  A    between atoms: C_26  and  C_29
REMARK    6  A    between atoms: C_29  and  N_30
REMARK    7  A    between atoms: N_30  and  C_31
REMARK                            x       y       z     vdW  Elec       q    Type
REMARK                         _______ _______ _______ _____ _____    ______ ____
ROOT
ATOM      1  C   UNL A   1     -24.442   0.718  27.630  0.00  0.00    +0.018 A 
ATOM      2  C   UNL A   1     -24.660   1.110  26.434  0.00  0.00    +0.057 A 
ATOM      3  C   UNL A   1     -23.547   1.774  25.737  0.00  0.00    +0.005 A 
ATOM      4  C   UNL A   1     -22.406   2.153  26.506  0.00  0.00    +0.001 A 
ATOM      5  C   UNL A   1     -23.241   0.997  28.311  0.00  0.00    +0.049 A 
ATOM      6  C   UNL A   1     -22.304   1.711  27.762  0.00  0.00    +0.015 A 
ENDROOT
BRANCH   5   7
ATOM      7  N   UNL A   1     -23.106   0.577  29.647  0.00  0.00    -0.294 N 
ATOM      8  C   UNL A   1     -22.416  -0.559  30.027  0.00  0.00    +0.166 C 
ATOM      9  C   UNL A   1     -23.834   1.228  30.689  0.00  0.00    +0.092 C 
ATOM     10  C   UNL A   1     -24.024   0.646  31.928  0.00  0.00    +0.022 C 
ATOM     11  C   UNL A   1     -22.467  -1.126  31.271  0.00  0.00    +0.040 C 
ATOM     12  C   UNL A   1     -23.137  -0.461  32.266  0.00  0.00    +0.005 C 
ATOM     13  N   UNL A   1     -21.703  -1.224  29.068  0.00  0.00    -0.111 NA
ENDBRANCH   5   7
BRANCH   1  16
ATOM     14  C   UNL A   1     -25.407  -1.499  28.525  0.00  0.00    +0.000 A 
ATOM     15  C   UNL A   1     -26.221  -1.913  29.051  0.00  0.00    +0.000 A 
ATOM     16  C   UNL A   1     -25.516  -0.055  28.318  0.00  0.00    +0.001 A 
ATOM     17  C   UNL A   1     -26.580   0.672  28.793  0.00  0.00    +0.000 A 
ATOM     18  C   UNL A   1     -27.448  -1.402  29.661  0.00  0.00    +0.000 A 
ATOM     19  C   UNL A   1     -27.563  -0.005  29.467  0.00  0.00    +0.000 A 
ENDBRANCH   1  16
BRANCH   2  20
ATOM     20  C   UNL A   1     -25.803   0.634  25.641  0.00  0.00    +0.269 C 
ATOM     21  O   UNL A   1     -25.939  -0.338  25.067  0.00  0.00    -0.268 OA
ATOM     22  N   UNL A   1     -26.902   1.544  25.668  0.00  0.00    -0.175 NA
BRANCH  22  23
ATOM     23  C   UNL A   1     -28.163   1.306  24.996  0.00  0.00    +0.074 A 
ATOM     24  C   UNL A   1     -28.276   2.009  23.935  0.00  0.00    +0.016 A 
ATOM     25  C   UNL A   1     -29.555   1.870  23.140  0.00  0.00    -0.001 A 
ATOM     26  C   UNL A   1     -30.443   0.894  23.504  0.00  0.00    -0.001 A 
ATOM     27  C   UNL A   1     -30.152   0.127  24.666  0.00  0.00    -0.001 A 
ATOM     28  C   UNL A   1     -28.989   0.327  25.389  0.00  0.00    +0.016 A 
BRANCH  26  29
ATOM     29  C   UNL A   1     -31.677   0.649  22.756  0.00  0.00    +0.139 C 
BRANCH  29  30
ATOM     30  N   UNL A   1     -32.152   1.489  21.974  0.00  0.00    -0.232 NA
BRANCH  30  31
ATOM     31  C   UNL A   1     -32.500   1.812  21.086  0.00  0.00    +0.081 C 
ATOM     32  C   UNL A   1     -32.471   3.048  20.268  0.00  0.00    +0.019 C 
ENDBRANCH  30  31
ENDBRANCH  29  30
ENDBRANCH  26  29
ENDBRANCH  22  23
ENDBRANCH   2  20
TORSDOF 7
ENDMDL
ENDMDL
