REMARK  Name = No_2742-gen_results/8p0m/2024-11-26-14-13-15/
REMARK  10 active torsions:
REMARK  status: ('A' for Active; 'I' for Inactive)
REMARK    1  A    between atoms: C_2  and  O_3
REMARK    2  A    between atoms: C_2  and  C_4
REMARK    3  A    between atoms: O_3  and  C_22
REMARK    4  A    between atoms: C_6  and  C_17
REMARK    5  A    between atoms: C_8  and  C_10
REMARK    6  A    between atoms: C_23  and  C_24
REMARK    7  A    between atoms: C_28  and  C_30
REMARK    8  A    between atoms: C_30  and  N_31
REMARK    9  A    between atoms: N_31  and  C_32
REMARK   10  A    between atoms: N_31  and  C_34
REMARK                            x       y       z     vdW  Elec       q    Type
REMARK                         _______ _______ _______ _____ _____    ______ ____
ROOT
ATOM      1  C   UNL A   1     -29.620   0.321  28.344  0.00  0.00    +0.076 A 
ATOM      2  C   UNL A   1     -30.613   0.350  28.469  0.00  0.00    +0.011 A 
ATOM      3  C   UNL A   1     -31.610   1.064  27.584  0.00  0.00    +0.054 A 
ATOM      4  C   UNL A   1     -31.027   1.843  26.544  0.00  0.00    +0.004 A 
ATOM      5  C   UNL A   1     -28.875   1.120  27.218  0.00  0.00    +0.006 A 
ATOM      6  C   UNL A   1     -29.661   1.850  26.374  0.00  0.00    +0.000 A 
ENDROOT
BRANCH   5   7
ATOM      7  C   UNL A   1     -27.418   1.162  26.972  0.00  0.00    +0.000 A 
ATOM      8  C   UNL A   1     -26.660   2.281  27.350  0.00  0.00    +0.001 A 
ATOM      9  C   UNL A   1     -25.284   2.372  27.077  0.00  0.00    +0.011 A 
ATOM     10  C   UNL A   1     -24.568   1.292  26.476  0.00  0.00    +0.058 A 
ATOM     11  C   UNL A   1     -25.328   0.149  26.244  0.00  0.00    +0.011 A 
ATOM     12  C   UNL A   1     -26.669   0.099  26.440  0.00  0.00    +0.001 A 
ATOM     13 CL   UNL A   1     -22.927   1.421  26.281  0.00  0.00    -0.082 Cl
ENDBRANCH   5   7
BRANCH   3  14
ATOM     14  C   UNL A   1     -33.060   1.100  27.830  0.00  0.00    +0.249 C 
ATOM     15  N   UNL A   1     -33.842   0.782  27.218  0.00  0.00    -0.273 N 
ATOM     16  C   UNL A   1     -33.699   0.335  26.014  0.00  0.00    +0.115 C 
ATOM     17  C   UNL A   1     -35.143   0.344  27.804  0.00  0.00    +0.115 C 
ATOM     18  O   UNL A   1     -33.167   1.613  29.141  0.00  0.00    -0.270 OA
ENDBRANCH   3  14
BRANCH   1  20
ATOM     19  O   UNL A   1     -28.123  -1.335  28.487  0.00  0.00    -0.244 OA
ATOM     20  C   UNL A   1     -28.521  -0.436  29.078  0.00  0.00    +0.346 C 
BRANCH  20  21
ATOM     21  O   UNL A   1     -27.915   0.078  30.039  0.00  0.00    -0.418 OA
BRANCH  21  22
ATOM     22  C   UNL A   1     -27.763  -0.618  31.203  0.00  0.00    +0.183 C 
ATOM     23  C   UNL A   1     -27.556   0.131  32.225  0.00  0.00    +0.041 C 
BRANCH  23  24
ATOM     24  C   UNL A   1     -26.391   0.913  32.280  0.00  0.00    +0.003 A 
ATOM     25  C   UNL A   1     -26.224   1.984  33.235  0.00  0.00    +0.000 A 
ATOM     26  C   UNL A   1     -25.204   2.977  33.047  0.00  0.00    -0.000 A 
ATOM     27  C   UNL A   1     -24.389   2.916  31.829  0.00  0.00    -0.003 A 
ATOM     28  C   UNL A   1     -24.583   1.862  30.962  0.00  0.00    -0.002 A 
ATOM     29  C   UNL A   1     -25.602   0.947  31.124  0.00  0.00    -0.003 A 
BRANCH  28  30
ATOM     30  C   UNL A   1     -23.649   1.835  29.813  0.00  0.00    +0.122 C 
BRANCH  30  31
ATOM     31  N   UNL A   1     -22.975   0.614  29.641  0.00  0.00    -0.281 N 
BRANCH  31  32
ATOM     32  C   UNL A   1     -21.771   0.540  29.165  0.00  0.00    +0.066 C 
ATOM     33  C   UNL A   1     -21.253  -0.802  28.973  0.00  0.00    +0.017 C 
ENDBRANCH  31  32
BRANCH  31  34
ATOM     34  C   UNL A   1     -23.225  -0.551  30.399  0.00  0.00    +0.066 C 
ATOM     35  C   UNL A   1     -23.131  -1.510  29.972  0.00  0.00    +0.017 C 
ENDBRANCH  31  34
ENDBRANCH  30  31
ENDBRANCH  28  30
ENDBRANCH  23  24
ENDBRANCH  21  22
ENDBRANCH  20  21
ENDBRANCH   1  20
TORSDOF 10
