MODEL 2742
MODEL 1
REMARK VINA RESULT:    -6.471      0.000      0.000
REMARK INTER + INTRA:         -13.045
REMARK INTER:                 -10.254
REMARK INTRA:                  -2.791
REMARK UNBOUND:                -2.791
REMARK  Name = No_2742-gen_results/8p0m/2024-11-26-14-13-15/
REMARK  10 active torsions:
REMARK  status: ('A' for Active; 'I' for Inactive)
REMARK    1  A    between atoms: C_2  and  O_3
REMARK    2  A    between atoms: C_2  and  C_4
REMARK    3  A    between atoms: O_3  and  C_22
REMARK    4  A    between atoms: C_6  and  C_17
REMARK    5  A    between atoms: C_8  and  C_10
REMARK    6  A    between atoms: C_23  and  C_24
REMARK    7  A    between atoms: C_28  and  C_30
REMARK    8  A    between atoms: C_30  and  N_31
REMARK    9  A    between atoms: N_31  and  C_32
REMARK   10  A    between atoms: N_31  and  C_34
REMARK                            x       y       z     vdW  Elec       q    Type
REMARK                         _______ _______ _______ _____ _____    ______ ____
ROOT
ATOM      1  C   UNL A   1     -29.383 -15.789  10.115  0.00  0.00    +0.076 A 
ATOM      2  C   UNL A   1     -28.553 -16.300   9.888  0.00  0.00    +0.011 A 
ATOM      3  C   UNL A   1     -28.157 -16.809   8.520  0.00  0.00    +0.054 A 
ATOM      4  C   UNL A   1     -29.139 -16.611   7.507  0.00  0.00    +0.004 A 
ATOM      5  C   UNL A   1     -30.519 -15.492   9.074  0.00  0.00    +0.006 A 
ATOM      6  C   UNL A   1     -30.307 -15.944   7.804  0.00  0.00    +0.000 A 
ENDROOT
BRANCH   5   7
ATOM      7  C   UNL A   1     -31.787 -14.774   9.321  0.00  0.00    +0.000 A 
ATOM      8  C   UNL A   1     -31.984 -13.478   8.821  0.00  0.00    +0.001 A 
ATOM      9  C   UNL A   1     -33.157 -12.749   9.089  0.00  0.00    +0.011 A 
ATOM     10  C   UNL A   1     -34.245 -13.325   9.813  0.00  0.00    +0.058 A 
ATOM     11  C   UNL A   1     -34.064 -14.658  10.171  0.00  0.00    +0.011 A 
ATOM     12  C   UNL A   1     -32.901 -15.326   9.975  0.00  0.00    +0.001 A 
ATOM     13 CL   UNL A   1     -35.641 -12.451  10.000  0.00  0.00    -0.082 Cl
ENDBRANCH   5   7
BRANCH   3  14
ATOM     14  C   UNL A   1     -26.937 -17.583   8.244  0.00  0.00    +0.249 C 
ATOM     15  N   UNL A   1     -26.838 -18.580   7.953  0.00  0.00    -0.273 N 
ATOM     16  C   UNL A   1     -27.818 -19.415   7.843  0.00  0.00    +0.115 C 
ATOM     17  C   UNL A   1     -25.652 -19.034   7.169  0.00  0.00    +0.115 C 
ATOM     18  O   UNL A   1     -25.898 -16.640   8.398  0.00  0.00    -0.270 OA
ENDBRANCH   3  14
BRANCH   1  20
ATOM     19  O   UNL A   1     -30.245 -15.878  12.178  0.00  0.00    -0.244 OA
ATOM     20  C   UNL A   1     -29.852 -15.127  11.404  0.00  0.00    +0.346 C 
BRANCH  20  21
ATOM     21  O   UNL A   1     -29.521 -13.958  11.686  0.00  0.00    -0.418 OA
BRANCH  21  22
ATOM     22  C   UNL A   1     -30.159 -13.291  12.691  0.00  0.00    +0.183 C 
ATOM     23  C   UNL A   1     -31.003 -12.418  12.272  0.00  0.00    +0.041 C 
BRANCH  23  24
ATOM     24  C   UNL A   1     -30.543 -11.317  11.531  0.00  0.00    +0.003 A 
ATOM     25  C   UNL A   1     -31.426 -10.268  11.078  0.00  0.00    +0.000 A 
ATOM     26  C   UNL A   1     -31.012  -9.361  10.045  0.00  0.00    -0.000 A 
ATOM     27  C   UNL A   1     -29.703  -9.572   9.416  0.00  0.00    -0.003 A 
ATOM     28  C   UNL A   1     -28.898 -10.580   9.902  0.00  0.00    -0.002 A 
ATOM     29  C   UNL A   1     -29.328 -11.479  10.854  0.00  0.00    -0.003 A 
BRANCH  28  30
ATOM     30  C   UNL A   1     -27.561 -10.653   9.268  0.00  0.00    +0.122 C 
BRANCH  30  31
ATOM     31  N   UNL A   1     -27.537 -11.331   8.038  0.00  0.00    -0.281 N 
BRANCH  31  32
ATOM     32  C   UNL A   1     -26.745 -10.994   7.068  0.00  0.00    +0.066 C 
ATOM     33  C   UNL A   1     -26.854  -9.620   6.616  0.00  0.00    +0.017 C 
ENDBRANCH  31  32
BRANCH  31  34
ATOM     34  C   UNL A   1     -27.902 -12.684   7.864  0.00  0.00    +0.066 C 
ATOM     35  C   UNL A   1     -28.364 -13.014   6.976  0.00  0.00    +0.017 C 
ENDBRANCH  31  34
ENDBRANCH  30  31
ENDBRANCH  28  30
ENDBRANCH  23  24
ENDBRANCH  21  22
ENDBRANCH  20  21
ENDBRANCH   1  20
TORSDOF 10
ENDMDL
ENDMDL
