REMARK  Name = No_2743-gen_results/8p0m/2024-11-26-14-13-15/
REMARK  5 active torsions:
REMARK  status: ('A' for Active; 'I' for Inactive)
REMARK    1  A    between atoms: C_3  and  C_7
REMARK    2  A    between atoms: C_7  and  C_8
REMARK    3  A    between atoms: C_7  and  C_9
REMARK    4  A    between atoms: C_9  and  C_10
REMARK    5  A    between atoms: C_11  and  C_12
REMARK                            x       y       z     vdW  Elec       q    Type
REMARK                         _______ _______ _______ _____ _____    ______ ____
ROOT
ATOM      1  C   UNL A   1     -26.317   0.399  27.365  0.00  0.00    +0.049 C 
ENDROOT
BRANCH   1   4
ATOM      2  C   UNL A   1     -28.016  -0.814  28.878  0.00  0.00    -0.004 A 
ATOM      3  C   UNL A   1     -28.469  -0.785  29.829  0.00  0.00    -0.000 A 
ATOM      4  C   UNL A   1     -27.087   0.290  28.638  0.00  0.00    -0.018 A 
ATOM      5  C   UNL A   1     -26.832   1.249  29.587  0.00  0.00    -0.004 A 
ATOM      6  C   UNL A   1     -28.391   0.080  31.006  0.00  0.00    -0.000 A 
ATOM      7  C   UNL A   1     -27.494   1.152  30.784  0.00  0.00    -0.000 A 
ENDBRANCH   1   4
BRANCH   1   8
ATOM      8  C   UNL A   1     -24.941   0.255  27.503  0.00  0.00    -0.018 A 
ATOM      9  C   UNL A   1     -24.324  -0.479  28.542  0.00  0.00    -0.004 A 
ATOM     10  C   UNL A   1     -23.007  -0.192  28.925  0.00  0.00    -0.000 A 
ATOM     11  C   UNL A   1     -22.261   0.718  28.134  0.00  0.00    -0.000 A 
ATOM     12  C   UNL A   1     -22.867   1.480  27.149  0.00  0.00    -0.000 A 
ATOM     13  C   UNL A   1     -24.195   1.360  26.922  0.00  0.00    -0.004 A 
ENDBRANCH   1   8
BRANCH   1  14
ATOM     14  C   UNL A   1     -26.913   0.586  26.140  0.00  0.00    +0.030 C 
ATOM     15  C   UNL A   1     -26.166   0.622  24.969  0.00  0.00    +0.005 C 
BRANCH  14  16
ATOM     16  C   UNL A   1     -28.269   0.717  25.985  0.00  0.00    -0.026 C 
ATOM     17  C   UNL A   1     -28.766   0.732  24.686  0.00  0.00    -0.005 C 
BRANCH  17  18
ATOM     18  C   UNL A   1     -30.160   0.870  24.463  0.00  0.00    -0.000 A 
ATOM     19  C   UNL A   1     -30.669   0.982  23.437  0.00  0.00    -0.000 A 
ATOM     20  C   UNL A   1     -31.896   1.593  23.130  0.00  0.00    -0.000 A 
ATOM     21  C   UNL A   1     -32.722   1.974  24.230  0.00  0.00    -0.000 A 
ATOM     22  C   UNL A   1     -32.202   1.820  25.463  0.00  0.00    -0.000 A 
ATOM     23  C   UNL A   1     -30.941   1.376  25.677  0.00  0.00    -0.000 A 
ENDBRANCH  17  18
ENDBRANCH  14  16
ENDBRANCH   1  14
TORSDOF 5
