MODEL 2743
MODEL 1
REMARK VINA RESULT:    -7.927      0.000      0.000
REMARK INTER + INTRA:         -12.254
REMARK INTER:                 -10.245
REMARK INTRA:                  -2.009
REMARK UNBOUND:                -2.009
REMARK  Name = No_2743-gen_results/8p0m/2024-11-26-14-13-15/
REMARK  5 active torsions:
REMARK  status: ('A' for Active; 'I' for Inactive)
REMARK    1  A    between atoms: C_3  and  C_7
REMARK    2  A    between atoms: C_7  and  C_8
REMARK    3  A    between atoms: C_7  and  C_9
REMARK    4  A    between atoms: C_9  and  C_10
REMARK    5  A    between atoms: C_11  and  C_12
REMARK                            x       y       z     vdW  Elec       q    Type
REMARK                         _______ _______ _______ _____ _____    ______ ____
ROOT
ATOM      1  C   UNL A   1     -10.479   0.727  37.308  0.00  0.00    +0.049 C 
ENDROOT
BRANCH   1   4
ATOM      2  C   UNL A   1     -12.631   2.144  37.407  0.00  0.00    -0.004 A 
ATOM      3  C   UNL A   1     -13.375   2.589  36.809  0.00  0.00    -0.000 A 
ATOM      4  C   UNL A   1     -11.635   1.394  36.642  0.00  0.00    -0.018 A 
ATOM      5  C   UNL A   1     -11.679   1.311  35.272  0.00  0.00    -0.004 A 
ATOM      6  C   UNL A   1     -13.665   2.672  35.378  0.00  0.00    -0.000 A 
ATOM      7  C   UNL A   1     -12.707   1.949  34.628  0.00  0.00    -0.000 A 
ENDBRANCH   1   4
BRANCH   1   8
ATOM      8  C   UNL A   1     -10.794  -0.449  37.980  0.00  0.00    -0.018 A 
ATOM      9  C   UNL A   1     -11.060  -1.679  37.336  0.00  0.00    -0.004 A 
ATOM     10  C   UNL A   1     -11.832  -2.659  37.974  0.00  0.00    -0.000 A 
ATOM     11  C   UNL A   1     -12.183  -2.457  39.333  0.00  0.00    -0.000 A 
ATOM     12  C   UNL A   1     -11.974  -1.239  39.957  0.00  0.00    -0.000 A 
ATOM     13  C   UNL A   1     -11.421  -0.213  39.271  0.00  0.00    -0.004 A 
ENDBRANCH   1   8
BRANCH   1  14
ATOM     14  C   UNL A   1      -9.192   1.206  37.236  0.00  0.00    +0.030 C 
ATOM     15  C   UNL A   1      -8.864   2.475  37.697  0.00  0.00    +0.005 C 
BRANCH  14  16
ATOM     16  C   UNL A   1      -8.150   0.465  36.741  0.00  0.00    -0.026 C 
ATOM     17  C   UNL A   1      -8.029   0.374  35.358  0.00  0.00    -0.005 C 
BRANCH  17  18
ATOM     18  C   UNL A   1      -6.974  -0.382  34.788  0.00  0.00    -0.000 A 
ATOM     19  C   UNL A   1      -6.997  -1.512  34.571  0.00  0.00    -0.000 A 
ATOM     20  C   UNL A   1      -5.921  -2.411  34.488  0.00  0.00    -0.000 A 
ATOM     21  C   UNL A   1      -4.608  -1.850  34.493  0.00  0.00    -0.000 A 
ATOM     22  C   UNL A   1      -4.515  -0.521  34.692  0.00  0.00    -0.000 A 
ATOM     23  C   UNL A   1      -5.594   0.262  34.931  0.00  0.00    -0.000 A 
ENDBRANCH  17  18
ENDBRANCH  14  16
ENDBRANCH   1  14
TORSDOF 5
ENDMDL
ENDMDL
