REMARK  Name = No_2744-gen_results/8p0m/2024-11-26-14-13-15/
REMARK  3 active torsions:
REMARK  status: ('A' for Active; 'I' for Inactive)
REMARK    1  A    between atoms: C_2  and  C_13
REMARK    2  A    between atoms: C_4  and  C_7
REMARK    3  A    between atoms: C_19  and  C_21
REMARK                            x       y       z     vdW  Elec       q    Type
REMARK                         _______ _______ _______ _____ _____    ______ ____
ROOT
ATOM      1  C   UNL A   1     -28.016  -0.814  28.878  0.00  0.00    +0.004 A 
ATOM      2  C   UNL A   1     -28.469  -0.785  29.829  0.00  0.00    +0.054 A 
ATOM      3  C   UNL A   1     -26.504  -0.778  28.877  0.00  0.00    +0.000 A 
ATOM      4  C   UNL A   1     -25.810  -0.853  30.103  0.00  0.00    +0.000 A 
ATOM      5  C   UNL A   1     -27.991  -0.892  31.226  0.00  0.00    +0.004 A 
ATOM      6  C   UNL A   1     -26.604  -0.868  31.265  0.00  0.00    +0.000 A 
ENDROOT
BRANCH   2   7
ATOM      7  C   UNL A   1     -30.092  -0.779  29.845  0.00  0.00    +0.249 C 
ATOM      8  O   UNL A   1     -30.493  -0.297  28.895  0.00  0.00    -0.270 OA
ATOM      9  N   UNL A   1     -30.788  -1.660  30.655  0.00  0.00    -0.276 N 
ATOM     10  C   UNL A   1     -32.203  -1.737  30.513  0.00  0.00    +0.094 C 
ATOM     11  C   UNL A   1     -32.686  -2.820  30.794  0.00  0.00    +0.022 C 
ATOM     12  C   UNL A   1     -32.009  -3.826  31.556  0.00  0.00    +0.012 C 
ATOM     13  C   UNL A   1     -30.585  -3.740  31.686  0.00  0.00    +0.115 C 
ATOM     14  C   UNL A   1     -29.893  -2.776  30.818  0.00  0.00    +0.102 C 
BRANCH  13  15
ATOM     15  C   UNL A   1     -29.904  -5.150  31.763  0.00  0.00    +0.399 C 
ATOM     16  F   UNL A   1     -28.713  -5.013  31.718  0.00  0.00    -0.170 F 
ATOM     17  F   UNL A   1     -30.233  -5.712  32.921  0.00  0.00    -0.170 F 
ATOM     18  F   UNL A   1     -30.306  -5.888  30.715  0.00  0.00    -0.170 F 
ENDBRANCH  13  15
ENDBRANCH   2   7
BRANCH   4  19
ATOM     19  C   UNL A   1     -24.389  -0.805  30.164  0.00  0.00    +0.000 A 
ATOM     20  C   UNL A   1     -23.766  -0.950  31.068  0.00  0.00    +0.000 A 
ATOM     21  C   UNL A   1     -22.267  -0.838  31.225  0.00  0.00    +0.000 A 
ATOM     22  C   UNL A   1     -21.670  -0.526  30.065  0.00  0.00    +0.000 A 
ATOM     23  C   UNL A   1     -23.644  -0.443  28.962  0.00  0.00    +0.000 A 
ATOM     24  C   UNL A   1     -22.348  -0.303  28.918  0.00  0.00    +0.000 A 
ENDBRANCH   4  19
TORSDOF 3
