MODEL 2744
MODEL 1
REMARK VINA RESULT:    -7.590      0.000      0.000
REMARK INTER + INTRA:          -9.190
REMARK INTER:                  -8.921
REMARK INTRA:                  -0.269
REMARK UNBOUND:                -0.269
REMARK  Name = No_2744-gen_results/8p0m/2024-11-26-14-13-15/
REMARK  3 active torsions:
REMARK  status: ('A' for Active; 'I' for Inactive)
REMARK    1  A    between atoms: C_2  and  C_13
REMARK    2  A    between atoms: C_4  and  C_7
REMARK    3  A    between atoms: C_19  and  C_21
REMARK                            x       y       z     vdW  Elec       q    Type
REMARK                         _______ _______ _______ _____ _____    ______ ____
ROOT
ATOM      1  C   UNL A   1     -24.989   0.422  25.339  0.00  0.00    +0.004 A 
ATOM      2  C   UNL A   1     -24.916   1.179  26.068  0.00  0.00    +0.054 A 
ATOM      3  C   UNL A   1     -26.283   0.397  24.556  0.00  0.00    +0.000 A 
ATOM      4  C   UNL A   1     -27.220   1.436  24.736  0.00  0.00    +0.000 A 
ATOM      5  C   UNL A   1     -25.710   2.376  26.425  0.00  0.00    +0.004 A 
ATOM      6  C   UNL A   1     -26.905   2.391  25.721  0.00  0.00    +0.000 A 
ENDROOT
BRANCH   2   7
ATOM      7  C   UNL A   1     -23.551   1.192  26.946  0.00  0.00    +0.249 C 
ATOM      8  O   UNL A   1     -23.192   2.261  27.100  0.00  0.00    -0.270 OA
ATOM      9  N   UNL A   1     -23.223   0.111  27.747  0.00  0.00    -0.276 N 
ATOM     10  C   UNL A   1     -22.109   0.233  28.626  0.00  0.00    +0.094 C 
ATOM     11  C   UNL A   1     -22.180  -0.444  29.637  0.00  0.00    +0.022 C 
ATOM     12  C   UNL A   1     -23.074  -1.552  29.797  0.00  0.00    +0.012 C 
ATOM     13  C   UNL A   1     -24.193  -1.660  28.910  0.00  0.00    +0.115 C 
ATOM     14  C   UNL A   1     -24.490  -0.493  28.066  0.00  0.00    +0.102 C 
BRANCH  13  15
ATOM     15  C   UNL A   1     -25.447  -2.297  29.601  0.00  0.00    +0.399 C 
ATOM     16  F   UNL A   1     -26.440  -1.787  29.160  0.00  0.00    -0.170 F 
ATOM     17  F   UNL A   1     -25.466  -3.596  29.321  0.00  0.00    -0.170 F 
ATOM     18  F   UNL A   1     -25.381  -2.070  30.923  0.00  0.00    -0.170 F 
ENDBRANCH  13  15
ENDBRANCH   2   7
BRANCH   4  19
ATOM     19  C   UNL A   1     -28.462   1.454  24.040  0.00  0.00    +0.000 A 
ATOM     20  C   UNL A   1     -28.957   2.345  23.606  0.00  0.00    +0.000 A 
ATOM     21  C   UNL A   1     -30.302   2.455  22.926  0.00  0.00    +0.000 A 
ATOM     22  C   UNL A   1     -30.925   1.268  22.866  0.00  0.00    +0.000 A 
ATOM     23  C   UNL A   1     -29.235   0.220  23.946  0.00  0.00    +0.000 A 
ATOM     24  C   UNL A   1     -30.413   0.134  23.392  0.00  0.00    +0.000 A 
ENDBRANCH   4  19
TORSDOF 3
ENDMDL
ENDMDL
