REMARK  Name = No_2746-gen_results/8p0m/2024-11-26-14-13-15/
REMARK  5 active torsions:
REMARK  status: ('A' for Active; 'I' for Inactive)
REMARK    1  A    between atoms: C_1  and  O_16
REMARK    2  A    between atoms: C_2  and  C_10
REMARK    3  A    between atoms: C_5  and  C_7
REMARK    4  A    between atoms: O_16  and  C_17
REMARK    5  A    between atoms: C_22  and  C_23
REMARK                            x       y       z     vdW  Elec       q    Type
REMARK                         _______ _______ _______ _____ _____    ______ ____
ROOT
ATOM      1  C   UNL A   1     -28.016  -0.814  28.878  0.00  0.00    +0.145 A 
ATOM      2  C   UNL A   1     -27.064  -0.119  28.608  0.00  0.00    +0.035 A 
ATOM      3  C   UNL A   1     -26.972   0.714  27.506  0.00  0.00    +0.003 A 
ATOM      4  C   UNL A   1     -28.105   0.774  26.642  0.00  0.00    +0.007 A 
ATOM      5  C   UNL A   1     -29.201   0.104  27.053  0.00  0.00    +0.083 A 
ATOM      6  C   UNL A   1     -29.210  -0.603  28.185  0.00  0.00    +0.044 A 
ENDROOT
BRANCH   2   7
ATOM      7  C   UNL A   1     -25.607  -0.111  29.259  0.00  0.00    +0.006 A 
ATOM      8  C   UNL A   1     -25.257  -1.078  30.050  0.00  0.00    +0.000 A 
ATOM      9  C   UNL A   1     -23.972  -1.113  30.702  0.00  0.00    +0.003 A 
ATOM     10  C   UNL A   1     -23.049  -0.086  30.442  0.00  0.00    +0.042 A 
ATOM     11  C   UNL A   1     -23.426   0.930  29.548  0.00  0.00    +0.196 A 
ATOM     12  C   UNL A   1     -24.714   0.937  28.946  0.00  0.00    +0.042 A 
ATOM     13  O   UNL A   1     -22.526   1.889  29.270  0.00  0.00    -0.287 OA
ENDBRANCH   2   7
BRANCH   5  14
ATOM     14  C   UNL A   1     -30.370   0.226  26.160  0.00  0.00    +0.388 C 
ATOM     15  O   UNL A   1     -31.221  -0.463  26.310  0.00  0.00    -0.241 OA
ATOM     16  O   UNL A   1     -30.153   0.803  24.957  0.00  0.00    -0.241 OA
ENDBRANCH   5  14
BRANCH   1  17
ATOM     17  O   UNL A   1     -28.068  -1.589  29.992  0.00  0.00    -0.454 OA
BRANCH  17  18
ATOM     18  C   UNL A   1     -29.142  -1.546  30.875  0.00  0.00    +0.145 A 
ATOM     19  C   UNL A   1     -30.318  -1.760  30.532  0.00  0.00    +0.038 A 
ATOM     20  C   UNL A   1     -30.862  -2.472  31.232  0.00  0.00    +0.009 A 
ATOM     21  C   UNL A   1     -28.872  -1.446  32.241  0.00  0.00    +0.038 A 
ATOM     22  C   UNL A   1     -29.613  -1.921  33.190  0.00  0.00    +0.009 A 
ATOM     23  C   UNL A   1     -30.844  -2.467  32.670  0.00  0.00    +0.068 A 
BRANCH  23  24
ATOM     24  C   UNL A   1     -31.880  -3.015  33.534  0.00  0.00    +0.333 C 
ATOM     25  O   UNL A   1     -32.356  -4.024  33.370  0.00  0.00    -0.254 OA
ATOM     26  F   UNL A   1     -32.141  -2.318  34.606  0.00  0.00    -0.159 F 
ENDBRANCH  23  24
ENDBRANCH  17  18
ENDBRANCH   1  17
TORSDOF 5
