MODEL 2746
MODEL 1
REMARK VINA RESULT:    -8.061      0.000      0.000
REMARK INTER + INTRA:         -12.521
REMARK INTER:                 -10.417
REMARK INTRA:                  -2.104
REMARK UNBOUND:                -2.104
REMARK  Name = No_2746-gen_results/8p0m/2024-11-26-14-13-15/
REMARK  5 active torsions:
REMARK  status: ('A' for Active; 'I' for Inactive)
REMARK    1  A    between atoms: C_1  and  O_16
REMARK    2  A    between atoms: C_2  and  C_10
REMARK    3  A    between atoms: C_5  and  C_7
REMARK    4  A    between atoms: O_16  and  C_17
REMARK    5  A    between atoms: C_22  and  C_23
REMARK                            x       y       z     vdW  Elec       q    Type
REMARK                         _______ _______ _______ _____ _____    ______ ____
ROOT
ATOM      1  C   UNL A   1     -23.452   0.045  28.413  0.00  0.00    +0.145 A 
ATOM      2  C   UNL A   1     -24.369  -0.630  28.005  0.00  0.00    +0.035 A 
ATOM      3  C   UNL A   1     -25.133  -0.344  26.886  0.00  0.00    +0.003 A 
ATOM      4  C   UNL A   1     -24.786   0.824  26.145  0.00  0.00    +0.007 A 
ATOM      5  C   UNL A   1     -23.669   1.468  26.540  0.00  0.00    +0.083 A 
ATOM      6  C   UNL A   1     -22.952   1.055  27.587  0.00  0.00    +0.044 A 
ENDROOT
BRANCH   2   7
ATOM      7  C   UNL A   1     -25.102  -1.862  28.706  0.00  0.00    +0.006 A 
ATOM      8  C   UNL A   1     -26.181  -1.652  29.395  0.00  0.00    +0.000 A 
ATOM      9  C   UNL A   1     -26.871  -2.712  30.087  0.00  0.00    +0.003 A 
ATOM     10  C   UNL A   1     -26.383  -4.026  29.979  0.00  0.00    +0.042 A 
ATOM     11  C   UNL A   1     -25.239  -4.242  29.192  0.00  0.00    +0.196 A 
ATOM     12  C   UNL A   1     -24.577  -3.163  28.547  0.00  0.00    +0.042 A 
ATOM     13  O   UNL A   1     -24.798  -5.505  29.058  0.00  0.00    -0.287 OA
ENDBRANCH   2   7
BRANCH   5  14
ATOM     14  C   UNL A   1     -23.313   2.644  25.723  0.00  0.00    +0.388 C 
ATOM     15  O   UNL A   1     -24.023   3.490  25.680  0.00  0.00    -0.241 OA
ATOM     16  O   UNL A   1     -22.422   2.440  24.727  0.00  0.00    -0.241 OA
ENDBRANCH   5  14
BRANCH   1  17
ATOM     17  O   UNL A   1     -22.712  -0.299  29.498  0.00  0.00    -0.454 OA
BRANCH  17  18
ATOM     18  C   UNL A   1     -23.127  -0.019  30.796  0.00  0.00    +0.145 A 
ATOM     19  C   UNL A   1     -23.750   1.011  31.108  0.00  0.00    +0.038 A 
ATOM     20  C   UNL A   1     -24.652   0.802  31.768  0.00  0.00    +0.009 A 
ATOM     21  C   UNL A   1     -23.007  -1.022  31.760  0.00  0.00    +0.038 A 
ATOM     22  C   UNL A   1     -23.778  -1.171  32.789  0.00  0.00    +0.009 A 
ATOM     23  C   UNL A   1     -24.719  -0.082  32.900  0.00  0.00    +0.068 A 
BRANCH  23  24
ATOM     24  C   UNL A   1     -25.664   0.022  34.003  0.00  0.00    +0.333 C 
ATOM     25  O   UNL A   1     -26.517   0.759  34.023  0.00  0.00    -0.254 OA
ATOM     26  F   UNL A   1     -25.548  -0.892  34.928  0.00  0.00    -0.159 F 
ENDBRANCH  23  24
ENDBRANCH  17  18
ENDBRANCH   1  17
TORSDOF 5
ENDMDL
ENDMDL
