MODEL 2747
MODEL 1
REMARK VINA RESULT:    -6.448      0.000      0.000
REMARK INTER + INTRA:          -6.448
REMARK INTER:                  -6.448
REMARK INTRA:                   0.000
REMARK UNBOUND:                 0.000
REMARK  Name = No_2747-gen_results/8p0m/2024-11-26-14-13-15/
REMARK  0 active torsions:
REMARK  status: ('A' for Active; 'I' for Inactive)
REMARK                            x       y       z     vdW  Elec       q    Type
REMARK                         _______ _______ _______ _____ _____    ______ ____
ROOT
ATOM      1  C   UNL A   1     -25.518  -2.650  29.560  0.00  0.00    +0.081 A 
ATOM      2  C   UNL A   1     -24.416  -2.943  29.158  0.00  0.00    +0.018 A 
ATOM      3  C   UNL A   1     -24.076  -4.266  28.893  0.00  0.00    +0.002 A 
ATOM      4  C   UNL A   1     -25.013  -5.333  29.133  0.00  0.00    +0.000 A 
ATOM      5  C   UNL A   1     -26.256  -4.907  29.619  0.00  0.00    +0.002 A 
ATOM      6  C   UNL A   1     -26.521  -3.645  29.870  0.00  0.00    +0.019 A 
ATOM      7  C   UNL A   1     -23.318  -1.978  28.882  0.00  0.00    +0.003 A 
ATOM      8  C   UNL A   1     -23.286  -0.957  28.899  0.00  0.00    +0.018 A 
ATOM      9  C   UNL A   1     -22.682  -0.053  28.608  0.00  0.00    +0.002 A 
ATOM     10  C   UNL A   1     -22.927   1.430  28.763  0.00  0.00    +0.000 A 
ATOM     11  C   UNL A   1     -24.134   1.733  29.289  0.00  0.00    +0.002 A 
ATOM     12  C   UNL A   1     -24.963   0.808  29.594  0.00  0.00    +0.019 A 
ATOM     13  C   UNL A   1     -24.693  -0.539  29.420  0.00  0.00    +0.081 A 
ATOM     14  N   UNL A   1     -25.738  -1.329  29.767  0.00  0.00    -0.245 NA
ENDROOT
TORSDOF 0
ENDMDL
ENDMDL
