REMARK  Name = No_2747-gen_results/8p0m/2024-11-26-14-13-15/
REMARK  0 active torsions:
REMARK  status: ('A' for Active; 'I' for Inactive)
REMARK                            x       y       z     vdW  Elec       q    Type
REMARK                         _______ _______ _______ _____ _____    ______ ____
ROOT
ATOM      1  C   UNL A   1     -28.016  -0.814  28.878  0.00  0.00    +0.081 A 
ATOM      2  C   UNL A   1     -27.064  -0.119  28.608  0.00  0.00    +0.018 A 
ATOM      3  C   UNL A   1     -25.792  -0.430  29.076  0.00  0.00    +0.002 A 
ATOM      4  C   UNL A   1     -25.576  -1.565  29.936  0.00  0.00    +0.000 A 
ATOM      5  C   UNL A   1     -26.735  -2.300  30.217  0.00  0.00    +0.002 A 
ATOM      6  C   UNL A   1     -27.918  -1.954  29.763  0.00  0.00    +0.019 A 
ATOM      7  C   UNL A   1     -27.106   1.102  27.759  0.00  0.00    +0.003 A 
ATOM      8  C   UNL A   1     -27.858   1.531  27.216  0.00  0.00    +0.018 A 
ATOM      9  C   UNL A   1     -28.099   2.299  26.430  0.00  0.00    +0.002 A 
ATOM     10  C   UNL A   1     -29.395   2.716  25.775  0.00  0.00    +0.000 A 
ATOM     11  C   UNL A   1     -30.461   1.977  26.153  0.00  0.00    +0.002 A 
ATOM     12  C   UNL A   1     -30.325   1.012  26.981  0.00  0.00    +0.019 A 
ATOM     13  C   UNL A   1     -29.109   0.663  27.544  0.00  0.00    +0.081 A 
ATOM     14  N   UNL A   1     -29.201  -0.421  28.352  0.00  0.00    -0.245 NA
ENDROOT
TORSDOF 0
