MODEL 2748
MODEL 1
REMARK VINA RESULT:    -7.329      0.000      0.000
REMARK INTER + INTRA:         -13.716
REMARK INTER:                 -11.185
REMARK INTRA:                  -2.531
REMARK UNBOUND:                -2.531
REMARK  Name = No_2748-gen_results/8p0m/2024-11-26-14-13-15/
REMARK  9 active torsions:
REMARK  status: ('A' for Active; 'I' for Inactive)
REMARK    1  A    between atoms: C_2  and  C_3
REMARK    2  A    between atoms: N_4  and  C_10
REMARK    3  A    between atoms: C_6  and  C_12
REMARK    4  A    between atoms: C_9  and  C_15
REMARK    5  A    between atoms: C_10  and  C_23
REMARK    6  A    between atoms: C_10  and  C_34
REMARK    7  A    between atoms: C_15  and  C_16
REMARK    8  A    between atoms: C_15  and  C_22
REMARK    9  A    between atoms: C_25  and  C_26
REMARK                            x       y       z     vdW  Elec       q    Type
REMARK                         _______ _______ _______ _____ _____    ______ ____
ROOT
ATOM      1  C   UNL A   1     -26.315   0.913  26.761  0.00  0.00    +0.052 A 
ATOM      2  C   UNL A   1     -27.423   0.275  26.188  0.00  0.00    +0.011 A 
ATOM      3  C   UNL A   1     -28.063   0.713  24.951  0.00  0.00    +0.084 A 
ATOM      4  C   UNL A   1     -27.832   2.048  24.524  0.00  0.00    +0.144 A 
ATOM      5  C   UNL A   1     -26.769   2.759  25.192  0.00  0.00    +0.026 A 
ATOM      6  C   UNL A   1     -26.039   2.233  26.143  0.00  0.00    -0.001 A 
ATOM      7  F   UNL A   1     -28.539   2.467  23.516  0.00  0.00    -0.204 F 
ENDROOT
BRANCH   1   9
ATOM      8  O   UNL A   1     -24.619  -0.498  26.589  0.00  0.00    -0.268 OA
ATOM      9  C   UNL A   1     -25.306   0.123  27.275  0.00  0.00    +0.265 C 
ATOM     10  N   UNL A   1     -25.350  -0.053  28.722  0.00  0.00    -0.199 NA
BRANCH  10  11
ATOM     11  C   UNL A   1     -24.328  -0.919  29.272  0.00  0.00    +0.118 C 
BRANCH  11  12
ATOM     12  C   UNL A   1     -24.805  -2.195  29.437  0.00  0.00    -0.002 A 
ATOM     13  C   UNL A   1     -26.018  -2.349  29.725  0.00  0.00    +0.003 A 
ATOM     14  C   UNL A   1     -26.611  -3.668  29.966  0.00  0.00    +0.068 A 
ATOM     15  C   UNL A   1     -25.866  -4.787  29.336  0.00  0.00    +0.005 A 
ATOM     16  C   UNL A   1     -24.502  -4.635  29.028  0.00  0.00    -0.000 A 
ATOM     17  C   UNL A   1     -23.996  -3.303  28.935  0.00  0.00    -0.003 A 
BRANCH  14  18
ATOM     18  C   UNL A   1     -27.925  -3.903  30.304  0.00  0.00    +0.333 C 
ATOM     19  O   UNL A   1     -28.682  -4.630  29.869  0.00  0.00    -0.254 OA
ATOM     20  F   UNL A   1     -28.077  -3.280  31.419  0.00  0.00    -0.159 F 
ENDBRANCH  14  18
ENDBRANCH  11  12
BRANCH  11  21
ATOM     21  C   UNL A   1     -23.919  -0.204  30.547  0.00  0.00    +0.026 C 
ATOM     22  C   UNL A   1     -23.592   1.065  30.556  0.00  0.00    +0.002 C 
ENDBRANCH  11  21
ENDBRANCH  10  11
ENDBRANCH   1   9
BRANCH   3  23
ATOM     23  C   UNL A   1     -29.199  -0.041  24.383  0.00  0.00    +0.286 C 
ATOM     24  N   UNL A   1     -28.980  -0.970  23.468  0.00  0.00    -0.084 NA
ATOM     25  O   UNL A   1     -30.403   0.258  24.700  0.00  0.00    -0.267 OA
ENDBRANCH   3  23
BRANCH   6  26
ATOM     26  C   UNL A   1     -24.960   3.003  26.702  0.00  0.00    +0.148 C 
BRANCH  26  27
ATOM     27  C   UNL A   1     -25.308   4.049  27.494  0.00  0.00    -0.008 A 
ATOM     28  C   UNL A   1     -25.851   3.924  28.730  0.00  0.00    -0.003 A 
ATOM     29  C   UNL A   1     -26.159   5.029  29.597  0.00  0.00    -0.000 A 
ATOM     30  C   UNL A   1     -25.762   6.257  29.108  0.00  0.00    -0.000 A 
ATOM     31  C   UNL A   1     -25.151   6.481  27.879  0.00  0.00    -0.000 A 
ATOM     32  C   UNL A   1     -24.894   5.370  27.119  0.00  0.00    -0.003 A 
ENDBRANCH  26  27
BRANCH  26  33
ATOM     33  C   UNL A   1     -23.657   2.738  26.313  0.00  0.00    +0.372 C 
ATOM     34  O   UNL A   1     -23.052   2.638  25.337  0.00  0.00    -0.245 OA
ATOM     35  O   UNL A   1     -22.781   2.450  27.446  0.00  0.00    -0.245 OA
ENDBRANCH  26  33
ENDBRANCH   6  26
TORSDOF 9
ENDMDL
ENDMDL
