REMARK  Name = No_2748-gen_results/8p0m/2024-11-26-14-13-15/
REMARK  9 active torsions:
REMARK  status: ('A' for Active; 'I' for Inactive)
REMARK    1  A    between atoms: C_2  and  C_3
REMARK    2  A    between atoms: N_4  and  C_10
REMARK    3  A    between atoms: C_6  and  C_12
REMARK    4  A    between atoms: C_9  and  C_15
REMARK    5  A    between atoms: C_10  and  C_23
REMARK    6  A    between atoms: C_10  and  C_34
REMARK    7  A    between atoms: C_15  and  C_16
REMARK    8  A    between atoms: C_15  and  C_22
REMARK    9  A    between atoms: C_25  and  C_26
REMARK                            x       y       z     vdW  Elec       q    Type
REMARK                         _______ _______ _______ _____ _____    ______ ____
ROOT
ATOM      1  C   UNL A   1     -26.380  -0.087  27.939  0.00  0.00    +0.052 A 
ATOM      2  C   UNL A   1     -25.124  -0.532  28.371  0.00  0.00    +0.011 A 
ATOM      3  C   UNL A   1     -23.913   0.283  28.324  0.00  0.00    +0.084 A 
ATOM      4  C   UNL A   1     -23.902   1.402  27.449  0.00  0.00    +0.144 A 
ATOM      5  C   UNL A   1     -25.177   1.797  26.900  0.00  0.00    +0.026 A 
ATOM      6  C   UNL A   1     -26.299   1.181  27.172  0.00  0.00    -0.001 A 
ATOM      7  F   UNL A   1     -22.764   2.012  27.300  0.00  0.00    -0.204 F 
ENDROOT
BRANCH   1   9
ATOM      8  O   UNL A   1     -28.123  -1.335  28.487  0.00  0.00    -0.268 OA
ATOM      9  C   UNL A   1     -27.481  -0.404  28.709  0.00  0.00    +0.265 C 
ATOM     10  N   UNL A   1     -27.899   0.646  29.632  0.00  0.00    -0.199 NA
BRANCH  10  11
ATOM     11  C   UNL A   1     -29.082   0.349  30.412  0.00  0.00    +0.118 C 
BRANCH  11  12
ATOM     12  C   UNL A   1     -29.878   1.460  30.535  0.00  0.00    -0.002 A 
ATOM     13  C   UNL A   1     -30.920   1.377  31.233  0.00  0.00    +0.003 A 
ATOM     14  C   UNL A   1     -31.857   2.493  31.388  0.00  0.00    +0.068 A 
ATOM     15  C   UNL A   1     -31.252   3.826  31.143  0.00  0.00    +0.005 A 
ATOM     16  C   UNL A   1     -30.098   3.936  30.346  0.00  0.00    -0.000 A 
ATOM     17  C   UNL A   1     -29.317   2.755  30.159  0.00  0.00    -0.003 A 
BRANCH  14  18
ATOM     18  C   UNL A   1     -33.023   2.461  32.120  0.00  0.00    +0.333 C 
ATOM     19  O   UNL A   1     -33.319   3.018  33.065  0.00  0.00    -0.254 OA
ATOM     20  F   UNL A   1     -33.849   1.826  31.365  0.00  0.00    -0.159 F 
ENDBRANCH  14  18
ENDBRANCH  11  12
BRANCH  11  21
ATOM     21  C   UNL A   1     -28.513  -0.194  31.710  0.00  0.00    +0.026 C 
ATOM     22  C   UNL A   1     -27.365   0.217  32.190  0.00  0.00    +0.002 C 
ENDBRANCH  11  21
ENDBRANCH  10  11
ENDBRANCH   1   9
BRANCH   3  23
ATOM     23  C   UNL A   1     -22.633  -0.240  28.844  0.00  0.00    +0.286 C 
ATOM     24  N   UNL A   1     -22.630  -1.280  29.660  0.00  0.00    -0.084 NA
ATOM     25  O   UNL A   1     -21.531   0.359  28.585  0.00  0.00    -0.267 OA
ENDBRANCH   3  23
BRANCH   6  26
ATOM     26  C   UNL A   1     -27.527   1.692  26.625  0.00  0.00    +0.148 C 
BRANCH  26  27
ATOM     27  C   UNL A   1     -27.901   2.933  27.029  0.00  0.00    -0.008 A 
ATOM     28  C   UNL A   1     -27.289   3.633  28.015  0.00  0.00    -0.003 A 
ATOM     29  C   UNL A   1     -27.642   4.973  28.399  0.00  0.00    -0.000 A 
ATOM     30  C   UNL A   1     -28.613   5.550  27.605  0.00  0.00    -0.000 A 
ATOM     31  C   UNL A   1     -29.260   4.934  26.540  0.00  0.00    -0.000 A 
ATOM     32  C   UNL A   1     -28.859   3.657  26.244  0.00  0.00    -0.003 A 
ENDBRANCH  26  27
BRANCH  26  33
ATOM     33  C   UNL A   1     -28.321   0.871  25.840  0.00  0.00    +0.372 C 
ATOM     34  O   UNL A   1     -29.288   0.253  25.943  0.00  0.00    -0.245 OA
ATOM     35  O   UNL A   1     -27.772   0.675  24.500  0.00  0.00    -0.245 OA
ENDBRANCH  26  33
ENDBRANCH   6  26
TORSDOF 9
