MODEL 2749
MODEL 1
REMARK VINA RESULT:    -5.347      0.000      0.000
REMARK INTER + INTRA:          -6.253
REMARK INTER:                  -5.972
REMARK INTRA:                  -0.281
REMARK UNBOUND:                -0.281
REMARK  Name = No_2749-gen_results/8p0m/2024-11-26-14-13-15/
REMARK  2 active torsions:
REMARK  status: ('A' for Active; 'I' for Inactive)
REMARK    1  A    between atoms: C_4  and  C_5
REMARK    2  A    between atoms: C_5  and  C_8
REMARK                            x       y       z     vdW  Elec       q    Type
REMARK                         _______ _______ _______ _____ _____    ______ ____
ROOT
ATOM      1  C   UNL A   1     -26.395  -3.996  29.673  0.00  0.00    -0.000 A 
ATOM      2  C   UNL A   1     -25.876  -4.909  29.754  0.00  0.00    -0.000 A 
ATOM      3  C   UNL A   1     -25.528  -2.820  29.746  0.00  0.00    -0.004 A 
ATOM      4  C   UNL A   1     -24.735  -2.565  28.841  0.00  0.00    -0.018 A 
ATOM      5  C   UNL A   1     -24.688  -5.165  28.765  0.00  0.00    -0.000 A 
ATOM      6  C   UNL A   1     -23.969  -3.900  28.568  0.00  0.00    -0.004 A 
ENDROOT
BRANCH   4   7
ATOM      7  C   UNL A   1     -24.000  -1.345  28.702  0.00  0.00    +0.052 C 
BRANCH   7   8
ATOM      8  C   UNL A   1     -22.762  -1.330  29.198  0.00  0.00    -0.026 C 
ATOM      9  C   UNL A   1     -21.853  -0.211  29.019  0.00  0.00    -0.030 C 
ATOM     10  C   UNL A   1     -22.206   0.784  28.091  0.00  0.00    +0.030 C 
ENDBRANCH   7   8
ENDBRANCH   4   7
TORSDOF 2
ENDMDL
ENDMDL
