MODEL 274
MODEL 1
REMARK VINA RESULT:    -3.079      0.000      0.000
REMARK INTER + INTRA:          -3.079
REMARK INTER:                  -3.079
REMARK INTRA:                   0.000
REMARK UNBOUND:                 0.000
REMARK  Name = No_274-gen_results/8p0m/2024-11-26-14-13-15/
REMARK  0 active torsions:
REMARK  status: ('A' for Active; 'I' for Inactive)
REMARK                            x       y       z     vdW  Elec       q    Type
REMARK                         _______ _______ _______ _____ _____    ______ ____
ROOT
ATOM      1  O   UNL A   1     -11.137 -10.463  16.899  0.00  0.00    -0.219 OA
ATOM      2  C   UNL A   1     -10.203 -10.277  17.538  0.00  0.00    +0.483 C 
ATOM      3  F   UNL A   1     -10.229  -9.619  18.568  0.00  0.00    -0.132 F 
ATOM      4  F   UNL A   1      -9.076 -10.747  17.093  0.00  0.00    -0.132 F 
ENDROOT
TORSDOF 0
ENDMDL
ENDMDL
