MODEL 2750
MODEL 1
REMARK VINA RESULT:    -6.140      0.000      0.000
REMARK INTER + INTRA:          -6.602
REMARK INTER:                  -6.499
REMARK INTRA:                  -0.103
REMARK UNBOUND:                -0.103
REMARK  Name = No_2750-gen_results/8p0m/2024-11-26-14-13-15/
REMARK  1 active torsions:
REMARK  status: ('A' for Active; 'I' for Inactive)
REMARK    1  A    between atoms: C_6  and  C_11
REMARK                            x       y       z     vdW  Elec       q    Type
REMARK                         _______ _______ _______ _____ _____    ______ ____
ROOT
ATOM      1  N   UNL A   1     -22.630  -0.058  28.570  0.00  0.00    -0.244 NA
ATOM      2  C   UNL A   1     -23.117   0.568  27.810  0.00  0.00    +0.081 A 
ATOM      3  C   UNL A   1     -24.254   0.235  27.162  0.00  0.00    +0.018 A 
ATOM      4  C   UNL A   1     -25.002   1.037  26.153  0.00  0.00    +0.002 A 
ATOM      5  C   UNL A   1     -24.820  -0.963  27.755  0.00  0.00    +0.003 A 
ATOM      6  C   UNL A   1     -24.273  -1.719  28.643  0.00  0.00    +0.019 A 
ATOM      7  C   UNL A   1     -23.073  -1.264  29.103  0.00  0.00    +0.099 A 
ATOM      8  C   UNL A   1     -24.822   2.135  25.923  0.00  0.00    +0.000 A 
ATOM      9  C   UNL A   1     -23.905   2.951  26.712  0.00  0.00    +0.002 A 
ATOM     10  C   UNL A   1     -22.969   2.103  27.494  0.00  0.00    +0.019 A 
ENDROOT
BRANCH   6  11
ATOM     11  C   UNL A   1     -24.774  -3.050  29.075  0.00  0.00    -0.003 C 
ATOM     12  C   UNL A   1     -24.292  -4.174  28.688  0.00  0.00    -0.026 C 
ATOM     13  C   UNL A   1     -24.871  -5.465  29.154  0.00  0.00    +0.031 C 
ENDBRANCH   6  11
TORSDOF 1
ENDMDL
ENDMDL
