REMARK  Name = No_2750-gen_results/8p0m/2024-11-26-14-13-15/
REMARK  1 active torsions:
REMARK  status: ('A' for Active; 'I' for Inactive)
REMARK    1  A    between atoms: C_6  and  C_11
REMARK                            x       y       z     vdW  Elec       q    Type
REMARK                         _______ _______ _______ _____ _____    ______ ____
ROOT
ATOM      1  N   UNL A   1     -28.054  -1.050  28.725  0.00  0.00    -0.244 NA
ATOM      2  C   UNL A   1     -28.654  -0.567  29.508  0.00  0.00    +0.081 A 
ATOM      3  C   UNL A   1     -28.138   0.160  30.523  0.00  0.00    +0.018 A 
ATOM      4  C   UNL A   1     -28.875   0.881  31.599  0.00  0.00    +0.002 A 
ATOM      5  C   UNL A   1     -26.717   0.358  30.308  0.00  0.00    +0.003 A 
ATOM      6  C   UNL A   1     -25.987  -0.196  29.403  0.00  0.00    +0.019 A 
ATOM      7  C   UNL A   1     -26.679  -0.980  28.528  0.00  0.00    +0.099 A 
ATOM      8  C   UNL A   1     -29.993   1.079  31.610  0.00  0.00    +0.000 A 
ATOM      9  C   UNL A   1     -30.846   0.766  30.468  0.00  0.00    +0.002 A 
ATOM     10  C   UNL A   1     -30.183  -0.196  29.551  0.00  0.00    +0.019 A 
ENDROOT
BRANCH   6  11
ATOM     11  C   UNL A   1     -24.503  -0.147  29.336  0.00  0.00    -0.003 C 
ATOM     12  C   UNL A   1     -23.716  -0.961  29.938  0.00  0.00    -0.026 C 
ATOM     13  C   UNL A   1     -22.236  -0.825  29.835  0.00  0.00    +0.031 C 
ENDBRANCH   6  11
TORSDOF 1
