REMARK  Name = No_2751-gen_results/8p0m/2024-11-26-14-13-15/
REMARK  2 active torsions:
REMARK  status: ('A' for Active; 'I' for Inactive)
REMARK    1  A    between atoms: C_3  and  C_7
REMARK    2  A    between atoms: N_8  and  C_9
REMARK                            x       y       z     vdW  Elec       q    Type
REMARK                         _______ _______ _______ _____ _____    ______ ____
ROOT
ATOM      1  C   UNL A   1     -27.445   0.487  26.773  0.00  0.00    +0.269 C 
ATOM      2  N   UNL A   1     -26.108   0.344  26.750  0.00  0.00    -0.175 NA
ATOM      3  O   UNL A   1     -27.945   1.110  25.859  0.00  0.00    -0.268 OA
ENDROOT
BRANCH   1   6
ATOM      4  C   UNL A   1     -28.016  -0.814  28.878  0.00  0.00    +0.005 A 
ATOM      5  C   UNL A   1     -28.469  -0.785  29.829  0.00  0.00    +0.000 A 
ATOM      6  C   UNL A   1     -28.182   0.428  28.113  0.00  0.00    +0.055 A 
ATOM      7  C   UNL A   1     -28.984   1.415  28.515  0.00  0.00    +0.005 A 
ATOM      8  C   UNL A   1     -29.380   0.138  30.461  0.00  0.00    +0.000 A 
ATOM      9  C   UNL A   1     -29.541   1.274  29.724  0.00  0.00    +0.000 A 
ENDBRANCH   1   6
BRANCH   2  10
ATOM     10  C   UNL A   1     -25.237   1.190  27.358  0.00  0.00    +0.074 A 
ATOM     11  C   UNL A   1     -23.875   0.785  27.575  0.00  0.00    +0.017 A 
ATOM     12  C   UNL A   1     -22.837   1.691  27.469  0.00  0.00    +0.001 A 
ATOM     13  C   UNL A   1     -25.548   2.530  27.562  0.00  0.00    +0.017 A 
ATOM     14  C   UNL A   1     -24.536   3.507  27.777  0.00  0.00    +0.001 A 
ATOM     15  C   UNL A   1     -23.180   3.108  27.704  0.00  0.00    +0.000 A 
ENDBRANCH   2  10
TORSDOF 2
