MODEL 2751
MODEL 1
REMARK VINA RESULT:    -6.527      0.000      0.000
REMARK INTER + INTRA:          -8.012
REMARK INTER:                  -7.290
REMARK INTRA:                  -0.722
REMARK UNBOUND:                -0.722
REMARK  Name = No_2751-gen_results/8p0m/2024-11-26-14-13-15/
REMARK  2 active torsions:
REMARK  status: ('A' for Active; 'I' for Inactive)
REMARK    1  A    between atoms: C_3  and  C_7
REMARK    2  A    between atoms: N_8  and  C_9
REMARK                            x       y       z     vdW  Elec       q    Type
REMARK                         _______ _______ _______ _____ _____    ______ ____
ROOT
ATOM      1  C   UNL A   1     -23.608  -1.424  28.931  0.00  0.00    +0.269 C 
ATOM      2  N   UNL A   1     -22.818  -0.975  29.923  0.00  0.00    -0.175 NA
ATOM      3  O   UNL A   1     -23.994  -0.603  28.124  0.00  0.00    -0.268 OA
ENDROOT
BRANCH   1   6
ATOM      4  C   UNL A   1     -25.746  -2.486  29.797  0.00  0.00    +0.005 A 
ATOM      5  C   UNL A   1     -26.326  -3.364  29.857  0.00  0.00    +0.000 A 
ATOM      6  C   UNL A   1     -24.443  -2.687  29.152  0.00  0.00    +0.055 A 
ATOM      7  C   UNL A   1     -23.975  -3.898  28.846  0.00  0.00    +0.005 A 
ATOM      8  C   UNL A   1     -26.035  -4.756  29.618  0.00  0.00    +0.000 A 
ATOM      9  C   UNL A   1     -24.811  -4.926  29.042  0.00  0.00    +0.000 A 
ENDBRANCH   1   6
BRANCH   2  10
ATOM     10  C   UNL A   1     -23.271  -0.561  31.134  0.00  0.00    +0.074 A 
ATOM     11  C   UNL A   1     -24.169   0.557  31.222  0.00  0.00    +0.017 A 
ATOM     12  C   UNL A   1     -25.184   0.584  32.160  0.00  0.00    +0.001 A 
ATOM     13  C   UNL A   1     -23.090  -1.331  32.279  0.00  0.00    +0.017 A 
ATOM     14  C   UNL A   1     -23.905  -1.155  33.432  0.00  0.00    +0.001 A 
ATOM     15  C   UNL A   1     -24.971  -0.225  33.376  0.00  0.00    +0.000 A 
ENDBRANCH   2  10
TORSDOF 2
ENDMDL
ENDMDL
