MODEL 2752
MODEL 1
REMARK VINA RESULT:    -7.127      0.000      0.000
REMARK INTER + INTRA:          -8.721
REMARK INTER:                  -8.377
REMARK INTRA:                  -0.344
REMARK UNBOUND:                -0.344
REMARK  Name = No_2752-gen_results/8p0m/2024-11-26-14-13-15/
REMARK  3 active torsions:
REMARK  status: ('A' for Active; 'I' for Inactive)
REMARK    1  A    between atoms: C_2  and  C_7
REMARK    2  A    between atoms: C_8  and  C_9
REMARK    3  A    between atoms: C_9  and  C_10
REMARK                            x       y       z     vdW  Elec       q    Type
REMARK                         _______ _______ _______ _____ _____    ______ ____
ROOT
ATOM      1  C   UNL A   1     -22.256   0.023  29.595  0.00  0.00    -0.001 C 
ATOM      2  C   UNL A   1     -22.545  -1.343  29.602  0.00  0.00    -0.021 C 
ENDROOT
BRANCH   1   4
ATOM      3  C   UNL A   1     -24.094   1.286  28.718  0.00  0.00    +0.196 A 
ATOM      4  C   UNL A   1     -22.948   0.923  28.585  0.00  0.00    +0.039 A 
ATOM      5  C   UNL A   1     -22.156   1.277  27.541  0.00  0.00    +0.003 A 
ATOM      6  C   UNL A   1     -22.695   2.117  26.548  0.00  0.00    +0.000 A 
ATOM      7  C   UNL A   1     -24.678   2.223  27.792  0.00  0.00    +0.042 A 
ATOM      8  C   UNL A   1     -23.934   2.586  26.710  0.00  0.00    +0.003 A 
ATOM      9  O   UNL A   1     -23.946   2.305  29.891  0.00  0.00    -0.287 OA
ENDBRANCH   1   4
BRANCH   2  10
ATOM     10  C   UNL A   1     -23.632  -1.763  28.876  0.00  0.00    +0.056 C 
BRANCH  10  11
ATOM     11  C   UNL A   1     -24.414  -2.633  29.033  0.00  0.00    +0.021 A 
ATOM     12  C   UNL A   1     -23.959  -4.012  28.748  0.00  0.00    -0.001 A 
ATOM     13  C   UNL A   1     -24.827  -5.088  28.950  0.00  0.00    -0.000 A 
ATOM     14  C   UNL A   1     -26.066  -4.843  29.539  0.00  0.00    +0.003 A 
ATOM     15  C   UNL A   1     -26.459  -3.606  29.903  0.00  0.00    +0.042 A 
ATOM     16  C   UNL A   1     -25.689  -2.527  29.716  0.00  0.00    +0.192 A 
ATOM     17  O   UNL A   1     -25.763  -1.745  30.570  0.00  0.00    -0.287 OA
ENDBRANCH  10  11
ENDBRANCH   2  10
TORSDOF 3
ENDMDL
ENDMDL
