REMARK  Name = No_2753-gen_results/8p0m/2024-11-26-14-13-15/
REMARK  1 active torsions:
REMARK  status: ('A' for Active; 'I' for Inactive)
REMARK    1  A    between atoms: C_1  and  C_2
REMARK                            x       y       z     vdW  Elec       q    Type
REMARK                         _______ _______ _______ _____ _____    ______ ____
ROOT
ATOM      1  C   UNL A   1     -27.064  -0.119  28.608  0.00  0.00    +0.018 A 
ATOM      2  C   UNL A   1     -27.001   0.691  27.491  0.00  0.00    +0.002 A 
ATOM      3  C   UNL A   1     -25.855   1.482  27.083  0.00  0.00    +0.011 A 
ATOM      4  C   UNL A   1     -24.690   1.453  27.881  0.00  0.00    +0.058 A 
ATOM      5  C   UNL A   1     -24.738   0.601  29.042  0.00  0.00    +0.011 A 
ATOM      6  C   UNL A   1     -25.823  -0.169  29.389  0.00  0.00    +0.002 A 
ATOM      7 CL   UNL A   1     -23.322   2.351  27.507  0.00  0.00    -0.082 Cl
ENDROOT
BRANCH   1   8
ATOM      8  C   UNL A   1     -28.016  -0.814  28.878  0.00  0.00    +0.081 A 
ATOM      9  N   UNL A   1     -27.952  -1.629  30.064  0.00  0.00    -0.244 NA
ATOM     10  C   UNL A   1     -29.036  -2.369  30.486  0.00  0.00    +0.099 A 
ATOM     11  C   UNL A   1     -30.192  -1.960  29.968  0.00  0.00    +0.021 A 
ATOM     12  C   UNL A   1     -30.340  -1.007  29.054  0.00  0.00    +0.003 A 
ATOM     13  C   UNL A   1     -29.257  -0.363  28.602  0.00  0.00    +0.019 A 
ENDBRANCH   1   8
TORSDOF 1
