REMARK  Name = No_2754-gen_results/8p0m/2024-11-26-14-13-15/
REMARK  3 active torsions:
REMARK  status: ('A' for Active; 'I' for Inactive)
REMARK    1  A    between atoms: C_3  and  C_4
REMARK    2  A    between atoms: C_4  and  C_8
REMARK    3  A    between atoms: C_9  and  C_10
REMARK                            x       y       z     vdW  Elec       q    Type
REMARK                         _______ _______ _______ _____ _____    ______ ____
ROOT
ATOM      1  C   UNL A   1     -25.898   0.239  26.745  0.00  0.00    -0.044 C 
ATOM      2  C   UNL A   1     -25.632   1.498  27.038  0.00  0.00    -0.032 C 
ATOM      3  C   UNL A   1     -26.375  -0.093  25.447  0.00  0.00    +0.026 C 
ENDROOT
BRANCH   2   4
ATOM      4  C   UNL A   1     -24.892   1.830  28.258  0.00  0.00    +0.052 C 
ATOM      5  C   UNL A   1     -23.718   1.288  28.505  0.00  0.00    +0.053 C 
ATOM      6  C   UNL A   1     -23.083   1.533  29.733  0.00  0.00    +0.067 C 
ATOM      7  N   UNL A   1     -23.794   2.228  30.625  0.00  0.00    -0.273 NA
ATOM      8  C   UNL A   1     -25.331   2.533  29.508  0.00  0.00    +0.130 C 
ENDBRANCH   2   4
BRANCH   1   9
ATOM      9  C   UNL A   1     -25.683  -0.777  27.683  0.00  0.00    +0.048 C 
BRANCH   9  12
ATOM     10  C   UNL A   1     -28.016  -0.814  28.878  0.00  0.00    -0.004 A 
ATOM     11  C   UNL A   1     -28.469  -0.785  29.829  0.00  0.00    -0.000 A 
ATOM     12  C   UNL A   1     -26.546  -0.876  28.850  0.00  0.00    -0.018 A 
ATOM     13  C   UNL A   1     -27.918  -1.003  31.188  0.00  0.00    -0.000 A 
ATOM     14  C   UNL A   1     -26.531  -1.079  31.246  0.00  0.00    -0.000 A 
ATOM     15  C   UNL A   1     -25.780  -1.046  30.090  0.00  0.00    -0.004 A 
ENDBRANCH   9  12
ENDBRANCH   1   9
TORSDOF 3
