MODEL 2754
MODEL 1
REMARK VINA RESULT:    -6.645      0.000      0.000
REMARK INTER + INTRA:          -8.409
REMARK INTER:                  -7.811
REMARK INTRA:                  -0.599
REMARK UNBOUND:                -0.599
REMARK  Name = No_2754-gen_results/8p0m/2024-11-26-14-13-15/
REMARK  3 active torsions:
REMARK  status: ('A' for Active; 'I' for Inactive)
REMARK    1  A    between atoms: C_3  and  C_4
REMARK    2  A    between atoms: C_4  and  C_8
REMARK    3  A    between atoms: C_9  and  C_10
REMARK                            x       y       z     vdW  Elec       q    Type
REMARK                         _______ _______ _______ _____ _____    ______ ____
ROOT
ATOM      1  C   UNL A   1     -22.987  -0.629  29.941  0.00  0.00    -0.044 C 
ATOM      2  C   UNL A   1     -22.919   0.611  29.497  0.00  0.00    -0.032 C 
ATOM      3  C   UNL A   1     -22.936  -0.876  31.341  0.00  0.00    +0.026 C 
ENDROOT
BRANCH   2   4
ATOM      4  C   UNL A   1     -23.239   0.912  28.099  0.00  0.00    +0.052 C 
ATOM      5  C   UNL A   1     -22.465   1.700  27.382  0.00  0.00    +0.053 C 
ATOM      6  C   UNL A   1     -22.855   2.064  26.084  0.00  0.00    +0.067 C 
ATOM      7  N   UNL A   1     -24.072   1.659  25.708  0.00  0.00    -0.273 NA
ATOM      8  C   UNL A   1     -24.496   0.685  27.313  0.00  0.00    +0.130 C 
ENDBRANCH   2   4
BRANCH   1   9
ATOM      9  C   UNL A   1     -23.146  -1.701  29.056  0.00  0.00    +0.048 C 
BRANCH   9  12
ATOM     10  C   UNL A   1     -25.598  -2.317  29.748  0.00  0.00    -0.004 A 
ATOM     11  C   UNL A   1     -26.238  -3.136  29.920  0.00  0.00    -0.000 A 
ATOM     12  C   UNL A   1     -24.255  -2.626  29.234  0.00  0.00    -0.018 A 
ATOM     13  C   UNL A   1     -26.126  -4.566  29.547  0.00  0.00    -0.000 A 
ATOM     14  C   UNL A   1     -24.884  -4.939  29.045  0.00  0.00    -0.000 A 
ATOM     15  C   UNL A   1     -23.901  -3.994  28.839  0.00  0.00    -0.004 A 
ENDBRANCH   9  12
ENDBRANCH   1   9
TORSDOF 3
ENDMDL
ENDMDL
