MODEL 2755
MODEL 1
REMARK VINA RESULT:    -5.033      0.000      0.000
REMARK INTER + INTRA:          -5.765
REMARK INTER:                  -5.622
REMARK INTRA:                  -0.143
REMARK UNBOUND:                -0.143
REMARK  Name = No_2755-gen_results/8p0m/2024-11-26-14-13-15/
REMARK  2 active torsions:
REMARK  status: ('A' for Active; 'I' for Inactive)
REMARK    1  A    between atoms: C_1  and  C_7
REMARK    2  A    between atoms: C_7  and  N_8
REMARK                            x       y       z     vdW  Elec       q    Type
REMARK                         _______ _______ _______ _____ _____    ______ ____
ROOT
ATOM      1  C   UNL A   1     -24.466  -2.717  29.143  0.00  0.00    -0.006 A 
ATOM      2  C   UNL A   1     -23.840  -3.606  28.614  0.00  0.00    -0.003 A 
ATOM      3  C   UNL A   1     -24.227  -4.932  28.636  0.00  0.00    -0.000 A 
ATOM      4  C   UNL A   1     -25.451  -5.258  29.286  0.00  0.00    -0.000 A 
ATOM      5  C   UNL A   1     -26.196  -4.212  29.712  0.00  0.00    -0.000 A 
ATOM      6  C   UNL A   1     -25.764  -2.970  29.612  0.00  0.00    -0.003 A 
ENDROOT
BRANCH   1   7
ATOM      7  C   UNL A   1     -23.974  -1.293  29.059  0.00  0.00    +0.099 C 
BRANCH   7   8
ATOM      8  N   UNL A   1     -22.959  -0.972  29.769  0.00  0.00    -0.267 NA
ATOM      9  C   UNL A   1     -23.099  -0.752  31.092  0.00  0.00    +0.090 C 
ATOM     10  C   UNL A   1     -21.770  -0.492  29.154  0.00  0.00    +0.090 C 
ENDBRANCH   7   8
ENDBRANCH   1   7
TORSDOF 2
ENDMDL
ENDMDL
