REMARK  Name = No_2756-gen_results/8p0m/2024-11-26-14-13-15/
REMARK  7 active torsions:
REMARK  status: ('A' for Active; 'I' for Inactive)
REMARK    1  A    between atoms: C_3  and  C_8
REMARK    2  A    between atoms: C_6  and  O_7
REMARK    3  A    between atoms: O_7  and  C_14
REMARK    4  A    between atoms: C_15  and  C_16
REMARK    5  A    between atoms: C_22  and  C_24
REMARK    6  A    between atoms: C_22  and  C_27
REMARK    7  A    between atoms: C_24  and  C_25
REMARK                            x       y       z     vdW  Elec       q    Type
REMARK                         _______ _______ _______ _____ _____    ______ ____
ROOT
ATOM      1  C   UNL A   1     -30.127  -2.132  30.581  0.00  0.00    +0.202 C 
ATOM      2  C   UNL A   1     -30.578  -2.838  31.684  0.00  0.00    +0.250 C 
ATOM      3  O   UNL A   1     -31.149  -1.905  32.679  0.00  0.00    -0.345 OA
ATOM      4  C   UNL A   1     -29.895  -0.731  30.861  0.00  0.00    +0.053 C 
ATOM      5  C   UNL A   1     -31.090  -0.180  31.284  0.00  0.00    +0.053 C 
ATOM      6  C   UNL A   1     -31.493  -0.690  32.617  0.00  0.00    +0.147 C 
ENDROOT
BRANCH   2   7
ATOM      7  C   UNL A   1     -29.787  -3.677  32.363  0.00  0.00    +0.426 C 
ATOM      8  F   UNL A   1     -30.443  -4.641  33.111  0.00  0.00    -0.167 F 
ATOM      9  F   UNL A   1     -29.025  -4.514  31.527  0.00  0.00    -0.167 F 
ATOM     10  F   UNL A   1     -28.902  -3.155  33.262  0.00  0.00    -0.167 F 
ENDBRANCH   2   7
BRANCH   5  11
ATOM     11  C   UNL A   1     -30.884   1.401  31.558  0.00  0.00    -0.028 C 
ATOM     12  C   UNL A   1     -30.652   1.824  32.781  0.00  0.00    -0.030 C 
ATOM     13  C   UNL A   1     -30.345   3.163  33.029  0.00  0.00    +0.030 C 
ENDBRANCH   5  11
BRANCH   1  14
ATOM     14  O   UNL A   1     -29.000  -2.701  30.115  0.00  0.00    -0.476 OA
BRANCH  14  20
ATOM     15  C   UNL A   1     -28.016  -0.814  28.878  0.00  0.00    +0.037 A 
ATOM     16  C   UNL A   1     -27.064  -0.119  28.608  0.00  0.00    +0.003 A 
ATOM     17  C   UNL A   1     -25.792  -0.430  29.076  0.00  0.00    +0.000 A 
ATOM     18  C   UNL A   1     -25.576  -1.565  29.936  0.00  0.00    +0.003 A 
ATOM     19  C   UNL A   1     -26.735  -2.300  30.217  0.00  0.00    +0.037 A 
ATOM     20  C   UNL A   1     -27.918  -1.954  29.763  0.00  0.00    +0.139 A 
BRANCH  17  21
ATOM     21  C   UNL A   1     -24.529   0.349  28.800  0.00  0.00    +0.000 A 
ATOM     22  C   UNL A   1     -24.481   1.211  27.800  0.00  0.00    +0.000 A 
ATOM     23  C   UNL A   1     -23.248   1.897  27.495  0.00  0.00    +0.000 A 
ATOM     24  C   UNL A   1     -22.050   1.589  28.164  0.00  0.00    +0.000 A 
ATOM     25  C   UNL A   1     -23.307   0.015  29.462  0.00  0.00    +0.000 A 
ATOM     26  C   UNL A   1     -22.085   0.690  29.137  0.00  0.00    +0.000 A 
ENDBRANCH  17  21
ENDBRANCH  14  20
ENDBRANCH   1  14
BRANCH   5  27
ATOM     27  C   UNL A   1     -32.207  -0.315  30.305  0.00  0.00    +0.034 C 
BRANCH  27  28
ATOM     28  C   UNL A   1     -32.012   0.490  29.205  0.00  0.00    -0.006 C 
ATOM     29  C   UNL A   1     -32.970   0.939  28.586  0.00  0.00    +0.101 C 
ATOM     30  N   UNL A   1     -34.079   0.723  28.707  0.00  0.00    -0.127 NA
ENDBRANCH  27  28
ENDBRANCH   5  27
TORSDOF 7
