MODEL 2757
MODEL 1
REMARK VINA RESULT:    -5.697      0.000      0.000
REMARK INTER + INTRA:          -6.134
REMARK INTER:                  -6.030
REMARK INTRA:                  -0.104
REMARK UNBOUND:                -0.104
REMARK  Name = No_2757-gen_results/8p0m/2024-11-26-14-13-15/
REMARK  1 active torsions:
REMARK  status: ('A' for Active; 'I' for Inactive)
REMARK    1  A    between atoms: C_3  and  C_7
REMARK                            x       y       z     vdW  Elec       q    Type
REMARK                         _______ _______ _______ _____ _____    ______ ____
ROOT
ATOM      1  C   UNL A   1     -23.882  -4.025  28.596  0.00  0.00    +0.008 A 
ATOM      2  C   UNL A   1     -24.499  -4.856  28.799  0.00  0.00    +0.000 A 
ATOM      3  C   UNL A   1     -24.315  -2.768  29.138  0.00  0.00    +0.088 A 
ATOM      4  C   UNL A   1     -25.503  -2.597  29.724  0.00  0.00    +0.008 A 
ATOM      5  C   UNL A   1     -25.828  -4.901  29.392  0.00  0.00    +0.000 A 
ATOM      6  C   UNL A   1     -26.252  -3.742  29.878  0.00  0.00    +0.000 A 
ENDROOT
BRANCH   3   7
ATOM      7  C   UNL A   1     -23.374  -1.565  28.959  0.00  0.00    +0.371 C 
ATOM      8  N   UNL A   1     -22.292  -1.508  29.242  0.00  0.00    -0.051 NA
ATOM      9  N   UNL A   1     -23.912  -0.421  28.299  0.00  0.00    -0.031 NA
ATOM     10  C   UNL A   1     -22.802   0.413  28.203  0.00  0.00    +0.267 C 
ATOM     11  C   UNL A   1     -21.792  -0.218  28.860  0.00  0.00    +0.340 C 
ENDBRANCH   3   7
TORSDOF 1
ENDMDL
ENDMDL
