REMARK  Name = No_2757-gen_results/8p0m/2024-11-26-14-13-15/
REMARK  1 active torsions:
REMARK  status: ('A' for Active; 'I' for Inactive)
REMARK    1  A    between atoms: C_3  and  C_7
REMARK                            x       y       z     vdW  Elec       q    Type
REMARK                         _______ _______ _______ _____ _____    ______ ____
ROOT
ATOM      1  C   UNL A   1     -28.016  -0.814  28.878  0.00  0.00    +0.008 A 
ATOM      2  C   UNL A   1     -28.469  -0.785  29.829  0.00  0.00    +0.000 A 
ATOM      3  C   UNL A   1     -28.196   0.348  28.055  0.00  0.00    +0.088 A 
ATOM      4  C   UNL A   1     -29.019   1.350  28.378  0.00  0.00    +0.008 A 
ATOM      5  C   UNL A   1     -29.411   0.180  30.378  0.00  0.00    +0.000 A 
ATOM      6  C   UNL A   1     -29.606   1.250  29.619  0.00  0.00    +0.000 A 
ENDROOT
BRANCH   3   7
ATOM      7  C   UNL A   1     -27.448   0.380  26.712  0.00  0.00    +0.371 C 
ATOM      8  N   UNL A   1     -27.866   0.672  25.715  0.00  0.00    -0.051 NA
ATOM      9  N   UNL A   1     -26.056   0.072  26.744  0.00  0.00    -0.031 NA
ATOM     10  C   UNL A   1     -25.674   0.297  25.424  0.00  0.00    +0.267 C 
ATOM     11  C   UNL A   1     -26.812   0.598  24.743  0.00  0.00    +0.340 C 
ENDBRANCH   3   7
TORSDOF 1
