REMARK  Name = No_2758-gen_results/8p0m/2024-11-26-14-13-15/
REMARK  4 active torsions:
REMARK  status: ('A' for Active; 'I' for Inactive)
REMARK    1  A    between atoms: C_3  and  C_8
REMARK    2  A    between atoms: C_7  and  C_14
REMARK    3  A    between atoms: C_10  and  C_21
REMARK    4  A    between atoms: C_12  and  C_17
REMARK                            x       y       z     vdW  Elec       q    Type
REMARK                         _______ _______ _______ _____ _____    ______ ____
ROOT
ATOM      1  C   UNL A   1     -28.189   0.878  30.132  0.00  0.00    -0.007 A 
ATOM      2  C   UNL A   1     -28.922   0.335  31.081  0.00  0.00    +0.003 A 
ATOM      3  C   UNL A   1     -30.163   0.971  31.543  0.00  0.00    +0.079 A 
ATOM      4  C   UNL A   1     -30.500   2.178  30.918  0.00  0.00    +0.010 A 
ATOM      5  C   UNL A   1     -29.677   2.677  29.922  0.00  0.00    +0.071 A 
ATOM      6  C   UNL A   1     -28.465   2.072  29.549  0.00  0.00    +0.001 A 
ENDROOT
BRANCH   1   9
ATOM      7  O   UNL A   1     -28.123  -1.335  28.487  0.00  0.00    -0.273 OA
ATOM      8  C   UNL A   1     -27.064  -0.824  28.869  0.00  0.00    +0.252 C 
ATOM      9  C   UNL A   1     -26.959   0.093  29.758  0.00  0.00    +0.158 C 
ATOM     10  N   UNL A   1     -25.847  -1.549  28.659  0.00  0.00    -0.204 NA
ATOM     11  C   UNL A   1     -25.722   0.718  30.192  0.00  0.00    +0.175 C 
ATOM     12  C   UNL A   1     -24.565  -1.074  29.051  0.00  0.00    +0.134 C 
ATOM     13  C   UNL A   1     -24.529   0.051  29.848  0.00  0.00    +0.183 C 
ATOM     14  O   UNL A   1     -25.683   1.794  30.975  0.00  0.00    -0.295 OA
BRANCH  13  15
ATOM     15  C   UNL A   1     -23.200   0.543  30.281  0.00  0.00    +0.373 C 
ATOM     16  O   UNL A   1     -23.132   1.568  30.853  0.00  0.00    -0.245 OA
ATOM     17  O   UNL A   1     -22.168  -0.256  30.271  0.00  0.00    -0.245 OA
ENDBRANCH  13  15
ENDBRANCH   1   9
BRANCH   5  18
ATOM     18  C   UNL A   1     -30.004   3.991  29.276  0.00  0.00    +0.419 C 
ATOM     19  F   UNL A   1     -29.898   4.028  28.207  0.00  0.00    -0.166 F 
ATOM     20  F   UNL A   1     -31.328   4.284  29.615  0.00  0.00    -0.166 F 
ATOM     21  F   UNL A   1     -29.268   4.959  29.919  0.00  0.00    -0.166 F 
ENDBRANCH   5  18
BRANCH   3  22
ATOM     22  C   UNL A   1     -30.981   0.344  32.554  0.00  0.00    +0.388 C 
ATOM     23  O   UNL A   1     -30.938   0.598  33.658  0.00  0.00    -0.241 OA
ATOM     24  O   UNL A   1     -31.751  -0.592  32.020  0.00  0.00    -0.241 OA
ENDBRANCH   3  22
TORSDOF 4
