MODEL 2758
MODEL 1
REMARK VINA RESULT:    -6.930      0.000      0.000
REMARK INTER + INTRA:          -9.068
REMARK INTER:                  -8.550
REMARK INTRA:                  -0.518
REMARK UNBOUND:                -0.518
REMARK  Name = No_2758-gen_results/8p0m/2024-11-26-14-13-15/
REMARK  4 active torsions:
REMARK  status: ('A' for Active; 'I' for Inactive)
REMARK    1  A    between atoms: C_3  and  C_8
REMARK    2  A    between atoms: C_7  and  C_14
REMARK    3  A    between atoms: C_10  and  C_21
REMARK    4  A    between atoms: C_12  and  C_17
REMARK                            x       y       z     vdW  Elec       q    Type
REMARK                         _______ _______ _______ _____ _____    ______ ____
ROOT
ATOM      1  C   UNL A   1     -28.859 -12.107  31.802  0.00  0.00    -0.007 A 
ATOM      2  C   UNL A   1     -29.382 -13.274  32.114  0.00  0.00    +0.003 A 
ATOM      3  C   UNL A   1     -29.949 -14.155  31.085  0.00  0.00    +0.079 A 
ATOM      4  C   UNL A   1     -29.901 -13.669  29.772  0.00  0.00    +0.010 A 
ATOM      5  C   UNL A   1     -29.326 -12.433  29.528  0.00  0.00    +0.071 A 
ATOM      6  C   UNL A   1     -28.849 -11.591  30.547  0.00  0.00    +0.001 A 
ENDROOT
BRANCH   1   9
ATOM      7  O   UNL A   1     -26.479 -12.625  33.096  0.00  0.00    -0.273 OA
ATOM      8  C   UNL A   1     -27.116 -11.602  33.372  0.00  0.00    +0.252 C 
ATOM      9  C   UNL A   1     -28.302 -11.333  32.968  0.00  0.00    +0.158 C 
ATOM     10  N   UNL A   1     -26.732 -10.856  34.532  0.00  0.00    -0.204 NA
ATOM     11  C   UNL A   1     -29.046 -10.121  33.264  0.00  0.00    +0.175 C 
ATOM     12  C   UNL A   1     -27.381  -9.664  34.958  0.00  0.00    +0.134 C 
ATOM     13  C   UNL A   1     -28.560  -9.332  34.326  0.00  0.00    +0.183 C 
ATOM     14  O   UNL A   1     -30.193  -9.805  32.667  0.00  0.00    -0.295 OA
BRANCH  13  15
ATOM     15  C   UNL A   1     -29.258  -8.104  34.776  0.00  0.00    +0.373 C 
ATOM     16  O   UNL A   1     -29.014  -7.084  34.244  0.00  0.00    -0.245 OA
ATOM     17  O   UNL A   1     -30.305  -8.189  35.550  0.00  0.00    -0.245 OA
ENDBRANCH  13  15
ENDBRANCH   1   9
BRANCH   5  18
ATOM     18  C   UNL A   1     -29.309 -11.883  28.132  0.00  0.00    +0.419 C 
ATOM     19  F   UNL A   1     -28.377 -11.972  27.604  0.00  0.00    -0.166 F 
ATOM     20  F   UNL A   1     -30.303 -12.563  27.423  0.00  0.00    -0.166 F 
ATOM     21  F   UNL A   1     -29.764 -10.587  28.196  0.00  0.00    -0.166 F 
ENDBRANCH   5  18
BRANCH   3  22
ATOM     22  C   UNL A   1     -30.480 -15.451  31.434  0.00  0.00    +0.388 C 
ATOM     23  O   UNL A   1     -31.508 -15.621  31.880  0.00  0.00    -0.241 OA
ATOM     24  O   UNL A   1     -29.587 -16.402  31.202  0.00  0.00    -0.241 OA
ENDBRANCH   3  22
TORSDOF 4
ENDMDL
ENDMDL
