MODEL 2759
MODEL 1
REMARK VINA RESULT:    -4.393      0.000      0.000
REMARK INTER + INTRA:          -4.393
REMARK INTER:                  -4.393
REMARK INTRA:                   0.000
REMARK UNBOUND:                 0.000
REMARK  Name = No_2759-gen_results/8p0m/2024-11-26-14-13-15/
REMARK  0 active torsions:
REMARK  status: ('A' for Active; 'I' for Inactive)
REMARK                            x       y       z     vdW  Elec       q    Type
REMARK                         _______ _______ _______ _____ _____    ______ ____
ROOT
ATOM      1  C   UNL A   1     -25.434  -2.583  29.662  0.00  0.00    +0.011 A 
ATOM      2  C   UNL A   1     -24.346  -2.878  29.226  0.00  0.00    +0.058 A 
ATOM      3  C   UNL A   1     -24.045  -4.189  28.873  0.00  0.00    +0.011 A 
ATOM      4  C   UNL A   1     -25.006  -5.245  29.059  0.00  0.00    +0.001 A 
ATOM      5  C   UNL A   1     -26.230  -4.819  29.591  0.00  0.00    +0.000 A 
ATOM      6  C   UNL A   1     -26.459  -3.570  29.924  0.00  0.00    +0.001 A 
ATOM      7 CL   UNL A   1     -23.070  -1.761  28.984  0.00  0.00    -0.082 Cl
ENDROOT
TORSDOF 0
ENDMDL
ENDMDL
