REMARK  Name = No_2760-gen_results/8p0m/2024-11-26-14-13-15/
REMARK  2 active torsions:
REMARK  status: ('A' for Active; 'I' for Inactive)
REMARK    1  A    between atoms: C_9  and  C_11
REMARK    2  A    between atoms: C_11  and  C_13
REMARK                            x       y       z     vdW  Elec       q    Type
REMARK                         _______ _______ _______ _____ _____    ______ ____
ROOT
ATOM      1  C   UNL A   1     -28.016  -0.814  28.878  0.00  0.00    +0.000 A 
ATOM      2  C   UNL A   1     -27.064  -0.119  28.608  0.00  0.00    +0.000 A 
ATOM      3  C   UNL A   1     -25.792  -0.430  29.076  0.00  0.00    +0.000 A 
ATOM      4  C   UNL A   1     -25.576  -1.565  29.936  0.00  0.00    +0.000 A 
ATOM      5  C   UNL A   1     -26.735  -2.300  30.217  0.00  0.00    +0.000 A 
ATOM      6  C   UNL A   1     -27.918  -1.954  29.763  0.00  0.00    +0.000 A 
ATOM      7  C   UNL A   1     -27.106   1.102  27.759  0.00  0.00    +0.000 A 
ATOM      8  C   UNL A   1     -26.122   1.482  27.023  0.00  0.00    +0.000 A 
ATOM      9  C   UNL A   1     -24.714   1.130  27.489  0.00  0.00    +0.004 A 
ATOM     10  C   UNL A   1     -24.572   0.097  28.407  0.00  0.00    +0.000 A 
ENDROOT
BRANCH   9  11
ATOM     11  C   UNL A   1     -23.548   1.768  26.901  0.00  0.00    +0.052 C 
ATOM     12  C   UNL A   1     -22.751   2.701  27.378  0.00  0.00    -0.021 C 
ATOM     13  C   UNL A   1     -22.865   2.648  28.898  0.00  0.00    +0.031 C 
BRANCH  11  14
ATOM     14  C   UNL A   1     -23.530   1.670  25.398  0.00  0.00    +0.284 C 
ATOM     15  N   UNL A   1     -22.439   2.344  24.898  0.00  0.00    -0.084 NA
ATOM     16  O   UNL A   1     -24.385   1.108  24.753  0.00  0.00    -0.267 OA
ENDBRANCH  11  14
ENDBRANCH   9  11
TORSDOF 2
