MODEL 2760
MODEL 1
REMARK VINA RESULT:    -6.899      0.000      0.000
REMARK INTER + INTRA:          -7.974
REMARK INTER:                  -7.706
REMARK INTRA:                  -0.268
REMARK UNBOUND:                -0.268
REMARK  Name = No_2760-gen_results/8p0m/2024-11-26-14-13-15/
REMARK  2 active torsions:
REMARK  status: ('A' for Active; 'I' for Inactive)
REMARK    1  A    between atoms: C_9  and  C_11
REMARK    2  A    between atoms: C_11  and  C_13
REMARK                            x       y       z     vdW  Elec       q    Type
REMARK                         _______ _______ _______ _____ _____    ______ ____
ROOT
ATOM      1  C   UNL A   1     -22.115   1.278  27.845  0.00  0.00    +0.000 A 
ATOM      2  C   UNL A   1     -22.907   0.519  28.355  0.00  0.00    +0.000 A 
ATOM      3  C   UNL A   1     -24.120   0.228  27.740  0.00  0.00    +0.000 A 
ATOM      4  C   UNL A   1     -24.492   0.856  26.499  0.00  0.00    +0.000 A 
ATOM      5  C   UNL A   1     -23.528   1.738  25.992  0.00  0.00    +0.000 A 
ATOM      6  C   UNL A   1     -22.403   1.992  26.621  0.00  0.00    +0.000 A 
ATOM      7  C   UNL A   1     -22.703  -0.197  29.643  0.00  0.00    +0.000 A 
ATOM      8  C   UNL A   1     -23.200  -1.357  29.890  0.00  0.00    +0.000 A 
ATOM      9  C   UNL A   1     -24.513  -1.723  29.208  0.00  0.00    +0.004 A 
ATOM     10  C   UNL A   1     -24.879  -1.008  28.074  0.00  0.00    +0.000 A 
ENDROOT
BRANCH   9  11
ATOM     11  C   UNL A   1     -25.297  -2.864  29.652  0.00  0.00    +0.052 C 
ATOM     12  C   UNL A   1     -25.328  -4.104  29.212  0.00  0.00    -0.021 C 
ATOM     13  C   UNL A   1     -23.998  -4.361  28.512  0.00  0.00    +0.031 C 
BRANCH  11  14
ATOM     14  C   UNL A   1     -26.540  -2.457  30.400  0.00  0.00    +0.284 C 
ATOM     15  N   UNL A   1     -27.586  -3.280  30.051  0.00  0.00    -0.084 NA
ATOM     16  O   UNL A   1     -26.588  -1.516  31.158  0.00  0.00    -0.267 OA
ENDBRANCH  11  14
ENDBRANCH   9  11
TORSDOF 2
ENDMDL
ENDMDL
