MODEL 2761
MODEL 1
REMARK VINA RESULT:    -6.141      0.000      0.000
REMARK INTER + INTRA:          -6.868
REMARK INTER:                  -6.500
REMARK INTRA:                  -0.368
REMARK UNBOUND:                -0.368
REMARK  Name = No_2761-gen_results/8p0m/2024-11-26-14-13-15/
REMARK  1 active torsions:
REMARK  status: ('A' for Active; 'I' for Inactive)
REMARK    1  A    between atoms: C_10  and  C_12
REMARK                            x       y       z     vdW  Elec       q    Type
REMARK                         _______ _______ _______ _____ _____    ______ ____
ROOT
ATOM      1  C   UNL A   1     -26.098  -4.591  29.634  0.00  0.00    -0.000 A 
ATOM      2  C   UNL A   1     -26.043  -3.386  29.715  0.00  0.00    -0.000 A 
ATOM      3  C   UNL A   1     -24.982  -2.677  29.161  0.00  0.00    +0.002 A 
ATOM      4  C   UNL A   1     -23.892  -3.360  28.514  0.00  0.00    -0.000 A 
ATOM      5  C   UNL A   1     -24.025  -4.754  28.486  0.00  0.00    -0.000 A 
ATOM      6  C   UNL A   1     -25.040  -5.378  29.039  0.00  0.00    -0.000 A 
ATOM      7  C   UNL A   1     -27.062  -2.522  30.370  0.00  0.00    +0.001 A 
ATOM      8  C   UNL A   1     -27.322  -1.323  29.983  0.00  0.00    +0.011 A 
ATOM      9  C   UNL A   1     -26.191  -0.527  29.342  0.00  0.00    +0.059 A 
ATOM     10  C   UNL A   1     -25.108  -1.232  28.831  0.00  0.00    +0.054 A 
ATOM     11 CL   UNL A   1     -26.301   1.155  29.144  0.00  0.00    -0.082 Cl
ENDROOT
BRANCH  10  12
ATOM     12  C   UNL A   1     -24.036  -0.436  28.179  0.00  0.00    +0.342 C 
ATOM     13  F   UNL A   1     -24.279  -0.154  27.033  0.00  0.00    -0.193 F 
ATOM     14  F   UNL A   1     -23.078  -0.102  28.773  0.00  0.00    -0.193 F 
ENDBRANCH  10  12
TORSDOF 1
ENDMDL
ENDMDL
