REMARK  Name = No_2761-gen_results/8p0m/2024-11-26-14-13-15/
REMARK  1 active torsions:
REMARK  status: ('A' for Active; 'I' for Inactive)
REMARK    1  A    between atoms: C_10  and  C_12
REMARK                            x       y       z     vdW  Elec       q    Type
REMARK                         _______ _______ _______ _____ _____    ______ ____
ROOT
ATOM      1  C   UNL A   1     -28.016  -0.814  28.878  0.00  0.00    -0.000 A 
ATOM      2  C   UNL A   1     -27.064  -0.119  28.608  0.00  0.00    -0.000 A 
ATOM      3  C   UNL A   1     -25.792  -0.430  29.076  0.00  0.00    +0.002 A 
ATOM      4  C   UNL A   1     -25.576  -1.565  29.936  0.00  0.00    -0.000 A 
ATOM      5  C   UNL A   1     -26.735  -2.300  30.217  0.00  0.00    -0.000 A 
ATOM      6  C   UNL A   1     -27.918  -1.954  29.763  0.00  0.00    -0.000 A 
ATOM      7  C   UNL A   1     -27.106   1.102  27.759  0.00  0.00    +0.001 A 
ATOM      8  C   UNL A   1     -26.122   1.482  27.023  0.00  0.00    +0.011 A 
ATOM      9  C   UNL A   1     -24.714   1.130  27.489  0.00  0.00    +0.059 A 
ATOM     10  C   UNL A   1     -24.572   0.097  28.407  0.00  0.00    +0.054 A 
ATOM     11 CL   UNL A   1     -23.350   1.888  26.820  0.00  0.00    -0.082 Cl
ENDROOT
BRANCH  10  12
ATOM     12  C   UNL A   1     -23.188  -0.251  28.818  0.00  0.00    +0.342 C 
ATOM     13  F   UNL A   1     -22.955  -1.432  28.764  0.00  0.00    -0.193 F 
ATOM     14  F   UNL A   1     -22.414   0.581  29.121  0.00  0.00    -0.193 F 
ENDBRANCH  10  12
TORSDOF 1
