REMARK  Name = No_2762-gen_results/8p0m/2024-11-26-14-13-15/
REMARK  7 active torsions:
REMARK  status: ('A' for Active; 'I' for Inactive)
REMARK    1  A    between atoms: C_2  and  C_11
REMARK    2  A    between atoms: C_3  and  C_7
REMARK    3  A    between atoms: C_6  and  C_14
REMARK    4  A    between atoms: C_14  and  N_15
REMARK    5  A    between atoms: N_15  and  C_16
REMARK    6  A    between atoms: C_17  and  C_18
REMARK    7  A    between atoms: C_19  and  C_20
REMARK                            x       y       z     vdW  Elec       q    Type
REMARK                         _______ _______ _______ _____ _____    ______ ____
ROOT
ATOM      1  C   UNL A   1     -28.016  -0.814  28.878  0.00  0.00    +0.010 A 
ATOM      2  C   UNL A   1     -28.469  -0.785  29.829  0.00  0.00    +0.080 A 
ATOM      3  C   UNL A   1     -27.087   0.290  28.638  0.00  0.00    +0.071 A 
ATOM      4  C   UNL A   1     -26.832   1.249  29.587  0.00  0.00    +0.001 A 
ATOM      5  C   UNL A   1     -28.391   0.080  31.006  0.00  0.00    +0.004 A 
ATOM      6  C   UNL A   1     -27.494   1.152  30.784  0.00  0.00    -0.001 A 
ENDROOT
BRANCH   3   7
ATOM      7  C   UNL A   1     -26.311   0.392  27.364  0.00  0.00    +0.419 C 
ATOM      8  F   UNL A   1     -26.860   0.403  26.380  0.00  0.00    -0.166 F 
ATOM      9  F   UNL A   1     -25.544   1.604  27.382  0.00  0.00    -0.166 F 
ATOM     10  F   UNL A   1     -25.238  -0.549  27.431  0.00  0.00    -0.166 F 
ENDBRANCH   3   7
BRANCH   2  11
ATOM     11  C   UNL A   1     -29.458  -2.028  30.233  0.00  0.00    +0.388 C 
ATOM     12  O   UNL A   1     -30.524  -1.882  29.867  0.00  0.00    -0.241 OA
ATOM     13  O   UNL A   1     -29.002  -3.071  30.883  0.00  0.00    -0.241 OA
ENDBRANCH   2  11
BRANCH   6  14
ATOM     14  C   UNL A   1     -27.276   2.175  31.841  0.00  0.00    +0.139 C 
BRANCH  14  15
ATOM     15  N   UNL A   1     -27.595   3.211  31.831  0.00  0.00    -0.232 NA
BRANCH  15  16
ATOM     16  C   UNL A   1     -28.210   3.942  31.230  0.00  0.00    +0.081 C 
ATOM     17  C   UNL A   1     -28.984   3.453  30.263  0.00  0.00    +0.017 C 
BRANCH  17  18
ATOM     18  C   UNL A   1     -29.825   4.384  29.442  0.00  0.00    +0.001 C 
ATOM     19  C   UNL A   1     -30.656   3.834  28.497  0.00  0.00    +0.000 C 
BRANCH  19  20
ATOM     20  C   UNL A   1     -30.650   2.460  28.245  0.00  0.00    +0.000 C 
ATOM     21  C   UNL A   1     -29.895   1.628  29.093  0.00  0.00    +0.000 C 
ENDBRANCH  19  20
ENDBRANCH  17  18
ENDBRANCH  15  16
ENDBRANCH  14  15
ENDBRANCH   6  14
TORSDOF 7
