REMARK  Name = No_2763-gen_results/8p0m/2024-11-26-14-13-15/
REMARK  11 active torsions:
REMARK  status: ('A' for Active; 'I' for Inactive)
REMARK    1  A    between atoms: C_2  and  C_3
REMARK    2  A    between atoms: N_7  and  C_12
REMARK    3  A    between atoms: C_10  and  C_20
REMARK    4  A    between atoms: C_12  and  C_13
REMARK    5  A    between atoms: C_13  and  C_14
REMARK    6  A    between atoms: C_13  and  N_17
REMARK    7  A    between atoms: N_17  and  C_18
REMARK    8  A    between atoms: C_20  and  C_21
REMARK    9  A    between atoms: C_28  and  O_29
REMARK   10  A    between atoms: O_29  and  C_30
REMARK   11  A    between atoms: C_30  and  C_31
REMARK                            x       y       z     vdW  Elec       q    Type
REMARK                         _______ _______ _______ _____ _____    ______ ____
ROOT
ATOM      1  C   UNL A   1     -32.539  -1.265  27.131  0.00  0.00    +0.199 C 
ENDROOT
BRANCH   1   2
ATOM      2  C   UNL A   1     -32.314  -2.525  27.337  0.00  0.00    +0.384 C 
ATOM      3  O   UNL A   1     -32.654  -3.347  26.389  0.00  0.00    -0.244 OA
ATOM      4  O   UNL A   1     -31.489  -3.087  28.150  0.00  0.00    -0.244 OA
ENDBRANCH   1   2
BRANCH   1   5
ATOM      5  N   UNL A   1     -32.463  -0.891  25.691  0.00  0.00    -0.294 N 
ATOM      6  C   UNL A   1     -33.723  -0.408  25.025  0.00  0.00    +0.113 C 
BRANCH   5   7
ATOM      7  C   UNL A   1     -31.535   0.127  25.456  0.00  0.00    +0.083 A 
ATOM      8  C   UNL A   1     -31.204   0.274  23.970  0.00  0.00    +0.018 A 
ATOM      9  C   UNL A   1     -29.993   0.984  23.728  0.00  0.00    +0.002 A 
ATOM     10  C   UNL A   1     -29.082   1.354  24.744  0.00  0.00    +0.003 A 
ATOM     11  C   UNL A   1     -29.441   1.025  26.117  0.00  0.00    +0.038 A 
ATOM     12  C   UNL A   1     -30.521   0.437  26.334  0.00  0.00    +0.152 A 
BRANCH  12  13
ATOM     13  O   UNL A   1     -31.052   1.516  27.075  0.00  0.00    -0.473 OA
BRANCH  13  14
ATOM     14  C   UNL A   1     -30.924   2.868  26.465  0.00  0.00    +0.214 C 
BRANCH  14  15
ATOM     15  C   UNL A   1     -30.130   3.735  26.675  0.00  0.00    +0.088 C 
ATOM     16  C   UNL A   1     -29.387   3.731  27.967  0.00  0.00    -0.018 C 
ATOM     17  C   UNL A   1     -28.767   4.845  28.333  0.00  0.00    -0.004 C 
ATOM     18  C   UNL A   1     -29.557   4.658  26.132  0.00  0.00    -0.018 C 
ATOM     19  C   UNL A   1     -28.662   5.518  27.014  0.00  0.00    -0.004 C 
ENDBRANCH  14  15
ENDBRANCH  13  14
ENDBRANCH  12  13
ENDBRANCH   5   7
ENDBRANCH   1   5
BRANCH   1  20
ATOM     20  C   UNL A   1     -31.976  -0.364  27.937  0.00  0.00    +0.147 C 
BRANCH  20  23
ATOM     21  C   UNL A   1     -29.698   0.051  28.976  0.00  0.00    +0.319 C 
ATOM     22  O   UNL A   1     -30.198   1.030  29.726  0.00  0.00    -0.263 OA
ATOM     23  N   UNL A   1     -30.591  -0.654  28.221  0.00  0.00    -0.195 NA
BRANCH  21  25
ATOM     24  O   UNL A   1     -28.123  -1.335  28.487  0.00  0.00    -0.265 OA
ATOM     25  C   UNL A   1     -28.521  -0.436  29.078  0.00  0.00    +0.304 C 
ATOM     26  N   UNL A   1     -27.474   0.343  29.791  0.00  0.00    -0.272 N 
ATOM     27  C   UNL A   1     -27.812   1.453  30.589  0.00  0.00    +0.094 C 
ATOM     28  C   UNL A   1     -27.106   2.117  30.899  0.00  0.00    +0.022 C 
ATOM     29  C   UNL A   1     -25.574   1.940  30.761  0.00  0.00    +0.004 C 
ATOM     30  C   UNL A   1     -25.218   0.787  30.018  0.00  0.00    +0.020 C 
ATOM     31  C   UNL A   1     -26.166   0.028  29.551  0.00  0.00    +0.094 C 
BRANCH  30  32
ATOM     32  C   UNL A   1     -23.761   0.584  29.883  0.00  0.00    +0.002 C 
BRANCH  32  33
ATOM     33  C   UNL A   1     -23.257   0.037  28.688  0.00  0.00    +0.000 C 
ATOM     34  C   UNL A   1     -21.837  -0.134  28.678  0.00  0.00    +0.000 C 
ATOM     35  C   UNL A   1     -24.082  -0.258  27.689  0.00  0.00    +0.000 C 
ENDBRANCH  32  33
ENDBRANCH  30  32
ENDBRANCH  21  25
ENDBRANCH  20  23
ENDBRANCH   1  20
TORSDOF 11
