MODEL 2763
MODEL 1
REMARK VINA RESULT:    -8.009      0.000      0.000
REMARK INTER + INTRA:         -13.505
REMARK INTER:                 -13.160
REMARK INTRA:                  -0.345
REMARK UNBOUND:                -0.345
REMARK  Name = No_2763-gen_results/8p0m/2024-11-26-14-13-15/
REMARK  11 active torsions:
REMARK  status: ('A' for Active; 'I' for Inactive)
REMARK    1  A    between atoms: C_2  and  C_3
REMARK    2  A    between atoms: N_7  and  C_12
REMARK    3  A    between atoms: C_10  and  C_20
REMARK    4  A    between atoms: C_12  and  C_13
REMARK    5  A    between atoms: C_13  and  C_14
REMARK    6  A    between atoms: C_13  and  N_17
REMARK    7  A    between atoms: N_17  and  C_18
REMARK    8  A    between atoms: C_20  and  C_21
REMARK    9  A    between atoms: C_28  and  O_29
REMARK   10  A    between atoms: O_29  and  C_30
REMARK   11  A    between atoms: C_30  and  C_31
REMARK                            x       y       z     vdW  Elec       q    Type
REMARK                         _______ _______ _______ _____ _____    ______ ____
ROOT
ATOM      1  C   UNL A   1     -24.035   1.473  26.559  0.00  0.00    +0.199 C 
ENDROOT
BRANCH   1   2
ATOM      2  C   UNL A   1     -23.714   2.407  25.720  0.00  0.00    +0.384 C 
ATOM      3  O   UNL A   1     -24.118   3.611  25.996  0.00  0.00    -0.244 OA
ATOM      4  O   UNL A   1     -22.765   2.435  24.850  0.00  0.00    -0.244 OA
ENDBRANCH   1   2
BRANCH   1   5
ATOM      5  N   UNL A   1     -22.857   0.904  27.272  0.00  0.00    -0.294 N 
ATOM      6  C   UNL A   1     -21.710   1.828  27.578  0.00  0.00    +0.113 C 
BRANCH   5   7
ATOM      7  C   UNL A   1     -23.200   0.355  28.510  0.00  0.00    +0.083 A 
ATOM      8  C   UNL A   1     -24.121   1.275  29.313  0.00  0.00    +0.018 A 
ATOM      9  C   UNL A   1     -24.157   0.967  30.703  0.00  0.00    +0.002 A 
ATOM     10  C   UNL A   1     -23.293   0.035  31.324  0.00  0.00    +0.003 A 
ATOM     11  C   UNL A   1     -22.350  -0.676  30.471  0.00  0.00    +0.038 A 
ATOM     12  C   UNL A   1     -22.345  -0.434  29.246  0.00  0.00    +0.152 A 
BRANCH  12  13
ATOM     13  O   UNL A   1     -22.740  -1.746  28.903  0.00  0.00    -0.473 OA
BRANCH  13  14
ATOM     14  C   UNL A   1     -24.204  -2.010  28.861  0.00  0.00    +0.214 C 
BRANCH  14  15
ATOM     15  C   UNL A   1     -24.815  -3.004  29.115  0.00  0.00    +0.088 C 
ATOM     16  C   UNL A   1     -24.135  -4.322  28.967  0.00  0.00    -0.018 C 
ATOM     17  C   UNL A   1     -24.890  -5.412  28.928  0.00  0.00    -0.004 C 
ATOM     18  C   UNL A   1     -25.859  -3.386  29.606  0.00  0.00    -0.018 C 
ATOM     19  C   UNL A   1     -26.125  -4.884  29.562  0.00  0.00    -0.004 C 
ENDBRANCH  14  15
ENDBRANCH  13  14
ENDBRANCH  12  13
ENDBRANCH   5   7
ENDBRANCH   1   5
BRANCH   1  20
ATOM     20  C   UNL A   1     -24.923   0.547  26.194  0.00  0.00    +0.147 C 
BRANCH  20  23
ATOM     21  C   UNL A   1     -26.869   0.634  24.566  0.00  0.00    +0.319 C 
ATOM     22  O   UNL A   1     -26.629  -0.618  24.185  0.00  0.00    -0.263 OA
ATOM     23  N   UNL A   1     -26.107   1.114  25.593  0.00  0.00    -0.195 NA
BRANCH  21  25
ATOM     24  O   UNL A   1     -27.848   2.411  23.842  0.00  0.00    -0.265 OA
ATOM     25  C   UNL A   1     -27.885   1.332  24.230  0.00  0.00    +0.304 C 
ATOM     26  N   UNL A   1     -29.199   0.659  24.051  0.00  0.00    -0.272 N 
ATOM     27  C   UNL A   1     -29.410  -0.655  24.511  0.00  0.00    +0.094 C 
ATOM     28  C   UNL A   1     -30.214  -1.200  24.207  0.00  0.00    +0.022 C 
ATOM     29  C   UNL A   1     -31.422  -0.660  23.404  0.00  0.00    +0.004 C 
ATOM     30  C   UNL A   1     -31.253   0.686  22.993  0.00  0.00    +0.020 C 
ATOM     31  C   UNL A   1     -30.155   1.304  23.318  0.00  0.00    +0.094 C 
BRANCH  30  32
ATOM     32  C   UNL A   1     -32.398   1.233  22.238  0.00  0.00    +0.002 C 
BRANCH  32  33
ATOM     33  C   UNL A   1     -32.423   2.609  21.939  0.00  0.00    +0.000 C 
ATOM     34  C   UNL A   1     -31.978   2.927  20.617  0.00  0.00    +0.000 C 
ATOM     35  C   UNL A   1     -32.821   3.484  22.857  0.00  0.00    +0.000 C 
ENDBRANCH  32  33
ENDBRANCH  30  32
ENDBRANCH  21  25
ENDBRANCH  20  23
ENDBRANCH   1  20
TORSDOF 11
ENDMDL
ENDMDL
