MODEL 2764
MODEL 1
REMARK VINA RESULT:    -9.596      0.000      0.000
REMARK INTER + INTRA:         -15.293
REMARK INTER:                 -13.523
REMARK INTRA:                  -1.770
REMARK UNBOUND:                -1.770
REMARK  Name = No_2764-gen_results/8p0m/2024-11-26-14-13-15/
REMARK  7 active torsions:
REMARK  status: ('A' for Active; 'I' for Inactive)
REMARK    1  A    between atoms: C_3  and  C_4
REMARK    2  A    between atoms: C_7  and  C_13
REMARK    3  A    between atoms: C_13  and  O_15
REMARK    4  A    between atoms: O_15  and  C_17
REMARK    5  A    between atoms: C_17  and  C_18
REMARK    6  A    between atoms: C_17  and  C_24
REMARK    7  A    between atoms: C_29  and  C_30
REMARK                            x       y       z     vdW  Elec       q    Type
REMARK                         _______ _______ _______ _____ _____    ______ ____
ROOT
ATOM      1  C   UNL A   1     -24.082  -1.444  29.162  0.00  0.00    +0.231 C 
ENDROOT
BRANCH   1   2
ATOM      2  C   UNL A   1     -24.564  -2.721  28.979  0.00  0.00    +0.023 A 
ATOM      3  C   UNL A   1     -23.857  -3.726  28.674  0.00  0.00    -0.000 A 
ATOM      4  C   UNL A   1     -24.305  -5.110  28.610  0.00  0.00    -0.000 A 
ATOM      5  C   UNL A   1     -25.119  -5.416  29.158  0.00  0.00    -0.000 A 
ATOM      6  C   UNL A   1     -25.866  -3.101  29.648  0.00  0.00    -0.000 A 
ATOM      7  C   UNL A   1     -26.223  -4.492  29.656  0.00  0.00    -0.000 A 
ENDBRANCH   1   2
BRANCH   1   8
ATOM      8  C   UNL A   1     -24.345  -0.966  30.514  0.00  0.00    +0.103 A 
ATOM      9  N   UNL A   1     -25.394  -0.395  30.921  0.00  0.00    -0.244 NA
ATOM     10  C   UNL A   1     -25.786  -0.130  32.157  0.00  0.00    +0.099 A 
ATOM     11  C   UNL A   1     -23.355  -1.226  31.480  0.00  0.00    +0.019 A 
ATOM     12  C   UNL A   1     -23.644  -1.042  32.844  0.00  0.00    +0.003 A 
ATOM     13  C   UNL A   1     -24.871  -0.386  33.150  0.00  0.00    +0.019 A 
BRANCH  13  14
ATOM     14  C   UNL A   1     -25.365  -0.250  34.483  0.00  0.00    +0.002 A 
ATOM     15  C   UNL A   1     -26.323   0.523  34.707  0.00  0.00    +0.000 A 
ATOM     16  C   UNL A   1     -26.938   0.585  36.008  0.00  0.00    +0.000 A 
ATOM     17  C   UNL A   1     -26.386  -0.205  37.085  0.00  0.00    +0.000 A 
ATOM     18  C   UNL A   1     -25.315  -1.000  36.802  0.00  0.00    +0.000 A 
ATOM     19  C   UNL A   1     -24.808  -1.060  35.562  0.00  0.00    +0.000 A 
ENDBRANCH  13  14
ENDBRANCH   1   8
BRANCH   1  20
ATOM     20  O   UNL A   1     -23.668  -0.884  28.272  0.00  0.00    -0.438 OA
BRANCH  20  21
ATOM     21  C   UNL A   1     -23.986   0.200  27.712  0.00  0.00    +0.342 C 
ATOM     22  O   UNL A   1     -23.363   1.211  27.963  0.00  0.00    -0.245 OA
BRANCH  21  26
ATOM     23  C   UNL A   1     -24.962   0.088  25.325  0.00  0.00    +0.006 A 
ATOM     24  C   UNL A   1     -25.940   0.075  24.614  0.00  0.00    -0.004 A 
ATOM     25  C   UNL A   1     -27.229   0.345  25.071  0.00  0.00    -0.022 A 
ATOM     26  C   UNL A   1     -25.155   0.236  26.799  0.00  0.00    +0.076 A 
ATOM     27  C   UNL A   1     -26.362   0.586  27.337  0.00  0.00    +0.006 A 
ATOM     28  C   UNL A   1     -27.510   0.621  26.500  0.00  0.00    -0.004 A 
BRANCH  25  29
ATOM     29  C   UNL A   1     -28.475   0.341  24.280  0.00  0.00    +0.030 C 
ATOM     30  C   UNL A   1     -29.326  -0.799  24.059  0.00  0.00    +0.005 C 
ATOM     31  C   UNL A   1     -30.504  -0.684  23.295  0.00  0.00    +0.008 C 
ATOM     32  C   UNL A   1     -31.050   0.593  22.956  0.00  0.00    +0.065 C 
ATOM     33  C   UNL A   1     -29.082   1.588  23.817  0.00  0.00    +0.069 C 
ATOM     34  C   UNL A   1     -30.287   1.670  23.184  0.00  0.00    +0.151 C 
ATOM     35  O   UNL A   1     -30.729   2.904  22.850  0.00  0.00    -0.296 OA
ENDBRANCH  25  29
ENDBRANCH  21  26
ENDBRANCH  20  21
ENDBRANCH   1  20
TORSDOF 7
ENDMDL
ENDMDL
