MODEL 2765
MODEL 1
REMARK VINA RESULT:    -4.606      0.000      0.000
REMARK INTER + INTRA:          -4.606
REMARK INTER:                  -4.606
REMARK INTRA:                   0.000
REMARK UNBOUND:                 0.000
REMARK  Name = No_2765-gen_results/8p0m/2024-11-26-14-13-15/
REMARK  0 active torsions:
REMARK  status: ('A' for Active; 'I' for Inactive)
REMARK                            x       y       z     vdW  Elec       q    Type
REMARK                         _______ _______ _______ _____ _____    ______ ____
ROOT
ATOM      1  C   UNL A   1     -26.103  -4.487  29.646  0.00  0.00    +0.032 A 
ATOM      2  C   UNL A   1     -26.058  -3.474  29.930  0.00  0.00    +0.032 A 
ATOM      3  C   UNL A   1     -25.006  -5.020  28.933  0.00  0.00    +0.140 A 
ATOM      4  C   UNL A   1     -23.909  -4.252  28.599  0.00  0.00    +0.032 A 
ATOM      5  C   UNL A   1     -25.019  -2.449  29.707  0.00  0.00    +0.140 A 
ATOM      6  C   UNL A   1     -23.950  -2.918  29.027  0.00  0.00    +0.032 A 
ATOM      7  F   UNL A   1     -24.967  -6.316  28.562  0.00  0.00    -0.204 F 
ATOM      8  F   UNL A   1     -25.105  -1.194  30.142  0.00  0.00    -0.204 F 
ENDROOT
TORSDOF 0
ENDMDL
ENDMDL
