REMARK  Name = No_2765-gen_results/8p0m/2024-11-26-14-13-15/
REMARK  0 active torsions:
REMARK  status: ('A' for Active; 'I' for Inactive)
REMARK                            x       y       z     vdW  Elec       q    Type
REMARK                         _______ _______ _______ _____ _____    ______ ____
ROOT
ATOM      1  C   UNL A   1     -28.016  -0.814  28.878  0.00  0.00    +0.032 A 
ATOM      2  C   UNL A   1     -28.469  -0.785  29.829  0.00  0.00    +0.032 A 
ATOM      3  C   UNL A   1     -27.136   0.236  28.535  0.00  0.00    +0.140 A 
ATOM      4  C   UNL A   1     -26.875   1.282  29.398  0.00  0.00    +0.032 A 
ATOM      5  C   UNL A   1     -28.361   0.199  30.924  0.00  0.00    +0.140 A 
ATOM      6  C   UNL A   1     -27.528   1.223  30.636  0.00  0.00    +0.032 A 
ATOM      7  F   UNL A   1     -26.488   0.257  27.353  0.00  0.00    -0.204 F 
ATOM      8  F   UNL A   1     -28.999   0.092  32.087  0.00  0.00    -0.204 F 
ENDROOT
TORSDOF 0
