MODEL 2766
MODEL 1
REMARK VINA RESULT:    -4.296      0.000      0.000
REMARK INTER + INTRA:          -4.296
REMARK INTER:                  -4.296
REMARK INTRA:                   0.000
REMARK UNBOUND:                 0.000
REMARK  Name = No_2766-gen_results/8p0m/2024-11-26-14-13-15/
REMARK  0 active torsions:
REMARK  status: ('A' for Active; 'I' for Inactive)
REMARK                            x       y       z     vdW  Elec       q    Type
REMARK                         _______ _______ _______ _____ _____    ______ ____
ROOT
ATOM      1  C   UNL A   1     -24.947  -5.366  28.974  0.00  0.00    +0.000 A 
ATOM      2  C   UNL A   1     -24.186  -4.675  28.741  0.00  0.00    +0.000 A 
ATOM      3  C   UNL A   1     -26.121  -4.756  29.599  0.00  0.00    +0.000 A 
ATOM      4  C   UNL A   1     -26.205  -3.405  29.831  0.00  0.00    +0.000 A 
ATOM      5  C   UNL A   1     -24.004  -3.229  28.863  0.00  0.00    +0.000 A 
ATOM      6  C   UNL A   1     -25.135  -2.629  29.468  0.00  0.00    +0.000 A 
ENDROOT
TORSDOF 0
ENDMDL
ENDMDL
