MODEL 2767
MODEL 1
REMARK VINA RESULT:    -4.392      0.000      0.000
REMARK INTER + INTRA:          -4.597
REMARK INTER:                  -4.649
REMARK INTRA:                   0.052
REMARK UNBOUND:                 0.052
REMARK  Name = No_2767-gen_results/8p0m/2024-11-26-14-13-15/
REMARK  1 active torsions:
REMARK  status: ('A' for Active; 'I' for Inactive)
REMARK    1  A    between atoms: C_2  and  N_7
REMARK                            x       y       z     vdW  Elec       q    Type
REMARK                         _______ _______ _______ _____ _____    ______ ____
ROOT
ATOM      1  N   UNL A   1     -23.714  -3.544  28.564  0.00  0.00    -0.225 NA
ATOM      2  C   UNL A   1     -24.481  -2.651  28.930  0.00  0.00    +0.162 A 
ATOM      3  C   UNL A   1     -25.713  -2.982  29.466  0.00  0.00    +0.039 A 
ATOM      4  C   UNL A   1     -26.101  -4.379  29.632  0.00  0.00    +0.005 A 
ATOM      5  C   UNL A   1     -25.187  -5.254  29.167  0.00  0.00    +0.021 A 
ATOM      6  C   UNL A   1     -24.068  -4.872  28.600  0.00  0.00    +0.101 A 
ENDROOT
BRANCH   2   7
ATOM      7  N   UNL A   1     -24.210  -1.310  28.817  0.00  0.00    -0.230 NA
ATOM      8  C   UNL A   1     -23.517  -0.592  29.722  0.00  0.00    +0.074 C 
ATOM      9  C   UNL A   1     -23.349  -1.169  31.037  0.00  0.00    +0.053 C 
ENDBRANCH   2   7
TORSDOF 1
ENDMDL
ENDMDL
