MODEL 2768
MODEL 1
REMARK VINA RESULT:    -6.970      0.000      0.000
REMARK INTER + INTRA:         -11.282
REMARK INTER:                  -9.415
REMARK INTRA:                  -1.867
REMARK UNBOUND:                -1.867
REMARK  Name = No_2768-gen_results/8p0m/2024-11-26-14-13-15/
REMARK  6 active torsions:
REMARK  status: ('A' for Active; 'I' for Inactive)
REMARK    1  A    between atoms: C_1  and  C_2
REMARK    2  A    between atoms: C_1  and  C_8
REMARK    3  A    between atoms: C_3  and  O_16
REMARK    4  A    between atoms: C_5  and  C_12
REMARK    5  A    between atoms: O_16  and  C_17
REMARK    6  A    between atoms: C_22  and  C_23
REMARK                            x       y       z     vdW  Elec       q    Type
REMARK                         _______ _______ _______ _____ _____    ______ ____
ROOT
ATOM      1  C   UNL A   1     -22.984  -0.425  28.729  0.00  0.00    +0.022 A 
ATOM      2  C   UNL A   1     -24.128  -0.244  28.022  0.00  0.00    +0.152 A 
ATOM      3  C   UNL A   1     -24.297   0.746  26.935  0.00  0.00    +0.093 A 
ATOM      4  C   UNL A   1     -23.170   1.580  26.636  0.00  0.00    +0.057 A 
ATOM      5  C   UNL A   1     -22.022   1.410  27.442  0.00  0.00    +0.002 A 
ATOM      6  C   UNL A   1     -21.938   0.469  28.435  0.00  0.00    -0.001 A 
ATOM      7 CL   UNL A   1     -25.731   0.960  26.089  0.00  0.00    -0.079 Cl
ENDROOT
BRANCH   4   8
ATOM      8  C   UNL A   1     -23.215   2.600  25.634  0.00  0.00    +0.342 C 
ATOM      9  F   UNL A   1     -22.523   2.691  24.778  0.00  0.00    -0.193 F 
ATOM     10  F   UNL A   1     -24.020   3.680  25.866  0.00  0.00    -0.193 F 
ENDBRANCH   4   8
BRANCH   1  11
ATOM     11  C   UNL A   1     -22.859  -1.237  29.617  0.00  0.00    +0.133 C 
BRANCH  11  12
ATOM     12  C   UNL A   1     -22.807  -0.711  31.078  0.00  0.00    +0.402 C 
ATOM     13  F   UNL A   1     -21.968  -0.817  31.636  0.00  0.00    -0.170 F 
ATOM     14  F   UNL A   1     -23.899  -1.387  31.677  0.00  0.00    -0.170 F 
ATOM     15  F   UNL A   1     -23.301   0.608  31.093  0.00  0.00    -0.170 F 
ENDBRANCH  11  12
ENDBRANCH   1  11
BRANCH   2  16
ATOM     16  O   UNL A   1     -25.183  -1.011  28.261  0.00  0.00    -0.453 OA
BRANCH  16  17
ATOM     17  C   UNL A   1     -26.006  -0.860  29.225  0.00  0.00    +0.145 A 
ATOM     18  C   UNL A   1     -26.334   0.085  30.006  0.00  0.00    +0.037 A 
ATOM     19  C   UNL A   1     -27.287   0.181  30.959  0.00  0.00    +0.003 A 
ATOM     20  C   UNL A   1     -27.958  -1.042  31.293  0.00  0.00    +0.000 A 
ATOM     21  C   UNL A   1     -27.710  -2.145  30.548  0.00  0.00    +0.003 A 
ATOM     22  C   UNL A   1     -26.767  -2.093  29.563  0.00  0.00    +0.034 A 
BRANCH  22  23
ATOM     23  C   UNL A   1     -25.772  -3.163  29.907  0.00  0.00    -0.002 C 
ATOM     24  C   UNL A   1     -25.659  -4.192  29.056  0.00  0.00    -0.026 C 
ATOM     25  C   UNL A   1     -24.742  -5.239  29.366  0.00  0.00    +0.031 C 
ENDBRANCH  22  23
ENDBRANCH  16  17
ENDBRANCH   2  16
TORSDOF 6
ENDMDL
ENDMDL
