REMARK  Name = No_2768-gen_results/8p0m/2024-11-26-14-13-15/
REMARK  6 active torsions:
REMARK  status: ('A' for Active; 'I' for Inactive)
REMARK    1  A    between atoms: C_1  and  C_2
REMARK    2  A    between atoms: C_1  and  C_8
REMARK    3  A    between atoms: C_3  and  O_16
REMARK    4  A    between atoms: C_5  and  C_12
REMARK    5  A    between atoms: O_16  and  C_17
REMARK    6  A    between atoms: C_22  and  C_23
REMARK                            x       y       z     vdW  Elec       q    Type
REMARK                         _______ _______ _______ _____ _____    ______ ____
ROOT
ATOM      1  C   UNL A   1     -27.064  -0.119  28.608  0.00  0.00    +0.022 A 
ATOM      2  C   UNL A   1     -26.929   1.171  29.008  0.00  0.00    +0.152 A 
ATOM      3  C   UNL A   1     -25.770   2.034  28.688  0.00  0.00    +0.093 A 
ATOM      4  C   UNL A   1     -24.714   1.443  27.919  0.00  0.00    +0.057 A 
ATOM      5  C   UNL A   1     -24.859   0.078  27.584  0.00  0.00    +0.002 A 
ATOM      6  C   UNL A   1     -25.965  -0.661  27.916  0.00  0.00    -0.001 A 
ATOM      7 CL   UNL A   1     -25.622   3.621  29.212  0.00  0.00    -0.079 Cl
ENDROOT
BRANCH   4   8
ATOM      8  C   UNL A   1     -23.524   2.158  27.574  0.00  0.00    +0.342 C 
ATOM      9  F   UNL A   1     -23.461   2.990  26.851  0.00  0.00    -0.193 F 
ATOM     10  F   UNL A   1     -22.330   1.634  27.983  0.00  0.00    -0.193 F 
ENDBRANCH   4   8
BRANCH   1  11
ATOM     11  C   UNL A   1     -28.016  -0.814  28.878  0.00  0.00    +0.133 C 
BRANCH  11  12
ATOM     12  C   UNL A   1     -28.041  -1.498  30.273  0.00  0.00    +0.402 C 
ATOM     13  F   UNL A   1     -28.262  -0.966  31.107  0.00  0.00    -0.170 F 
ATOM     14  F   UNL A   1     -26.738  -2.049  30.358  0.00  0.00    -0.170 F 
ATOM     15  F   UNL A   1     -28.798  -2.682  30.174  0.00  0.00    -0.170 F 
ENDBRANCH  11  12
ENDBRANCH   1  11
BRANCH   2  16
ATOM     16  O   UNL A   1     -27.895   1.753  29.705  0.00  0.00    -0.453 OA
BRANCH  16  17
ATOM     17  C   UNL A   1     -27.724   2.593  30.651  0.00  0.00    +0.145 A 
ATOM     18  C   UNL A   1     -27.883   2.595  31.910  0.00  0.00    +0.037 A 
ATOM     19  C   UNL A   1     -27.596   3.516  32.856  0.00  0.00    +0.003 A 
ATOM     20  C   UNL A   1     -27.192   4.803  32.369  0.00  0.00    +0.000 A 
ATOM     21  C   UNL A   1     -26.982   4.960  31.040  0.00  0.00    +0.003 A 
ATOM     22  C   UNL A   1     -27.246   3.925  30.191  0.00  0.00    +0.034 A 
BRANCH  22  23
ATOM     23  C   UNL A   1     -28.253   4.458  29.214  0.00  0.00    -0.002 C 
ATOM     24  C   UNL A   1     -27.812   5.319  28.287  0.00  0.00    -0.026 C 
ATOM     25  C   UNL A   1     -28.747   5.865  27.359  0.00  0.00    +0.031 C 
ENDBRANCH  22  23
ENDBRANCH  16  17
ENDBRANCH   2  16
TORSDOF 6
