MODEL 2769
MODEL 1
REMARK VINA RESULT:    -6.205      0.000      0.000
REMARK INTER + INTRA:          -7.197
REMARK INTER:                  -6.931
REMARK INTRA:                  -0.267
REMARK UNBOUND:                -0.267
REMARK  Name = No_2769-gen_results/8p0m/2024-11-26-14-13-15/
REMARK  2 active torsions:
REMARK  status: ('A' for Active; 'I' for Inactive)
REMARK    1  A    between atoms: C_2  and  O_7
REMARK    2  A    between atoms: O_7  and  C_8
REMARK                            x       y       z     vdW  Elec       q    Type
REMARK                         _______ _______ _______ _____ _____    ______ ____
ROOT
ATOM      1  O   UNL A   1     -24.253  -1.366  29.633  0.00  0.00    -0.454 OA
ENDROOT
BRANCH   1   3
ATOM      2  C   UNL A   1     -23.799  -3.347  28.883  0.00  0.00    +0.037 A 
ATOM      3  C   UNL A   1     -24.541  -2.791  29.384  0.00  0.00    +0.145 A 
ATOM      4  C   UNL A   1     -24.147  -4.792  28.604  0.00  0.00    +0.003 A 
ATOM      5  C   UNL A   1     -25.192  -5.237  29.011  0.00  0.00    +0.000 A 
ATOM      6  C   UNL A   1     -25.884  -3.089  29.889  0.00  0.00    +0.037 A 
ATOM      7  C   UNL A   1     -26.186  -4.426  29.681  0.00  0.00    +0.003 A 
ENDBRANCH   1   3
BRANCH   1   8
ATOM      8  C   UNL A   1     -23.998  -0.528  28.652  0.00  0.00    +0.145 A 
ATOM      9  C   UNL A   1     -23.014   0.101  28.753  0.00  0.00    +0.037 A 
ATOM     10  C   UNL A   1     -22.684   1.135  27.728  0.00  0.00    +0.003 A 
ATOM     11  C   UNL A   1     -23.605   1.259  26.655  0.00  0.00    +0.000 A 
ATOM     12  C   UNL A   1     -24.716   0.468  26.628  0.00  0.00    +0.003 A 
ATOM     13  C   UNL A   1     -24.993  -0.438  27.587  0.00  0.00    +0.037 A 
ENDBRANCH   1   8
TORSDOF 2
ENDMDL
ENDMDL
