REMARK  Name = No_277-gen_results/8p0m/2024-11-26-14-13-15/
REMARK  2 active torsions:
REMARK  status: ('A' for Active; 'I' for Inactive)
REMARK    1  A    between atoms: C_3  and  C_4
REMARK    2  A    between atoms: C_4  and  C_5
REMARK                            x       y       z     vdW  Elec       q    Type
REMARK                         _______ _______ _______ _____ _____    ______ ____
ROOT
ATOM      1  C   UNL A   1     -26.263   0.636  27.646  0.00  0.00    +0.053 C 
ENDROOT
BRANCH   1   4
ATOM      2  N   UNL A   1     -28.054  -1.050  28.725  0.00  0.00    -0.127 NA
ATOM      3  C   UNL A   1     -27.746  -0.073  29.010  0.00  0.00    +0.102 C 
ATOM      4  C   UNL A   1     -27.174   0.733  28.825  0.00  0.00    -0.002 C 
ENDBRANCH   1   4
BRANCH   1   5
ATOM      5  C   UNL A   1     -25.390   1.645  27.183  0.00  0.00    -0.026 C 
ATOM      6  C   UNL A   1     -25.272   2.803  27.923  0.00  0.00    -0.030 C 
ATOM      7  C   UNL A   1     -26.024   3.006  29.032  0.00  0.00    +0.030 C 
ENDBRANCH   1   5
TORSDOF 2
