REMARK  Name = No_2770-gen_results/8p0m/2024-11-26-14-13-15/
REMARK  1 active torsions:
REMARK  status: ('A' for Active; 'I' for Inactive)
REMARK    1  A    between atoms: C_9  and  C_11
REMARK                            x       y       z     vdW  Elec       q    Type
REMARK                         _______ _______ _______ _____ _____    ______ ____
ROOT
ATOM      1  C   UNL A   1     -28.016  -0.814  28.878  0.00  0.00    -0.000 A 
ATOM      2  C   UNL A   1     -28.469  -0.785  29.829  0.00  0.00    -0.000 A 
ATOM      3  C   UNL A   1     -27.136   0.236  28.535  0.00  0.00    -0.000 A 
ATOM      4  C   UNL A   1     -26.335   0.290  27.284  0.00  0.00    -0.000 A 
ATOM      5  C   UNL A   1     -28.369   0.196  30.924  0.00  0.00    -0.000 A 
ATOM      6  C   UNL A   1     -27.516   1.266  30.654  0.00  0.00    -0.000 A 
ATOM      7  C   UNL A   1     -26.841   1.294  29.476  0.00  0.00    -0.000 A 
ATOM      8  C   UNL A   1     -25.361   0.775  26.967  0.00  0.00    +0.004 A 
ATOM      9  C   UNL A   1     -24.830   1.767  28.017  0.00  0.00    +0.071 A 
ATOM     10  C   UNL A   1     -25.567   2.002  29.202  0.00  0.00    +0.004 A 
ENDROOT
BRANCH   9  11
ATOM     11  C   UNL A   1     -23.619   2.609  27.665  0.00  0.00    +0.419 C 
ATOM     12  F   UNL A   1     -23.196   3.382  28.404  0.00  0.00    -0.166 F 
ATOM     13  F   UNL A   1     -22.532   1.684  27.407  0.00  0.00    -0.166 F 
ATOM     14  F   UNL A   1     -23.855   3.283  26.547  0.00  0.00    -0.166 F 
ENDBRANCH   9  11
TORSDOF 1
