MODEL 2770
MODEL 1
REMARK VINA RESULT:    -6.511      0.000      0.000
REMARK INTER + INTRA:          -7.092
REMARK INTER:                  -6.892
REMARK INTRA:                  -0.200
REMARK UNBOUND:                -0.200
REMARK  Name = No_2770-gen_results/8p0m/2024-11-26-14-13-15/
REMARK  1 active torsions:
REMARK  status: ('A' for Active; 'I' for Inactive)
REMARK    1  A    between atoms: C_9  and  C_11
REMARK                            x       y       z     vdW  Elec       q    Type
REMARK                         _______ _______ _______ _____ _____    ______ ____
ROOT
ATOM      1  C   UNL A   1     -26.554  -3.535  30.013  0.00  0.00    -0.000 A 
ATOM      2  C   UNL A   1     -26.428  -4.527  29.680  0.00  0.00    -0.000 A 
ATOM      3  C   UNL A   1     -25.455  -2.656  29.897  0.00  0.00    -0.000 A 
ATOM      4  C   UNL A   1     -25.499  -1.205  30.217  0.00  0.00    -0.000 A 
ATOM      5  C   UNL A   1     -25.262  -5.216  29.098  0.00  0.00    -0.000 A 
ATOM      6  C   UNL A   1     -24.135  -4.407  28.956  0.00  0.00    -0.000 A 
ATOM      7  C   UNL A   1     -24.211  -3.097  29.306  0.00  0.00    -0.000 A 
ATOM      8  C   UNL A   1     -24.928  -0.285  29.882  0.00  0.00    +0.004 A 
ATOM      9  C   UNL A   1     -23.690  -0.637  29.038  0.00  0.00    +0.071 A 
ATOM     10  C   UNL A   1     -23.368  -1.992  28.790  0.00  0.00    +0.004 A 
ENDROOT
BRANCH   9  11
ATOM     11  C   UNL A   1     -22.741   0.481  28.651  0.00  0.00    +0.419 C 
ATOM     12  F   UNL A   1     -22.773   1.500  29.182  0.00  0.00    -0.166 F 
ATOM     13  F   UNL A   1     -21.398  -0.025  28.862  0.00  0.00    -0.166 F 
ATOM     14  F   UNL A   1     -22.876   0.752  27.359  0.00  0.00    -0.166 F 
ENDBRANCH   9  11
TORSDOF 1
ENDMDL
ENDMDL
