MODEL 2771
MODEL 1
REMARK VINA RESULT:    -4.268      0.000      0.000
REMARK INTER + INTRA:          -4.268
REMARK INTER:                  -4.268
REMARK INTRA:                   0.000
REMARK UNBOUND:                 0.000
REMARK  Name = No_2771-gen_results/8p0m/2024-11-26-14-13-15/
REMARK  0 active torsions:
REMARK  status: ('A' for Active; 'I' for Inactive)
REMARK                            x       y       z     vdW  Elec       q    Type
REMARK                         _______ _______ _______ _____ _____    ______ ____
ROOT
ATOM      1  C   UNL A   1     -24.927  -5.355  28.918  0.00  0.00    +0.000 A 
ATOM      2  C   UNL A   1     -24.138  -4.693  28.698  0.00  0.00    +0.000 A 
ATOM      3  C   UNL A   1     -26.052  -4.718  29.603  0.00  0.00    +0.000 A 
ATOM      4  C   UNL A   1     -26.061  -3.377  29.901  0.00  0.00    +0.000 A 
ATOM      5  C   UNL A   1     -23.878  -3.265  28.884  0.00  0.00    +0.000 A 
ATOM      6  C   UNL A   1     -24.961  -2.639  29.546  0.00  0.00    +0.000 A 
ENDROOT
TORSDOF 0
ENDMDL
ENDMDL
