REMARK  Name = No_2772-gen_results/8p0m/2024-11-26-14-13-15/
REMARK  3 active torsions:
REMARK  status: ('A' for Active; 'I' for Inactive)
REMARK    1  A    between atoms: C_2  and  O_8
REMARK    2  A    between atoms: O_8  and  C_9
REMARK    3  A    between atoms: C_10  and  C_11
REMARK                            x       y       z     vdW  Elec       q    Type
REMARK                         _______ _______ _______ _____ _____    ______ ____
ROOT
ATOM      1  O   UNL A   1     -29.948  -0.825  29.764  0.00  0.00    -0.450 OA
ENDROOT
BRANCH   1   3
ATOM      2  C   UNL A   1     -28.016  -0.814  28.878  0.00  0.00    +0.038 A 
ATOM      3  C   UNL A   1     -28.469  -0.785  29.829  0.00  0.00    +0.145 A 
ATOM      4  C   UNL A   1     -26.504  -0.778  28.877  0.00  0.00    +0.015 A 
ATOM      5  C   UNL A   1     -25.810  -0.853  30.103  0.00  0.00    +0.058 A 
ATOM      6  C   UNL A   1     -27.986  -0.842  31.066  0.00  0.00    +0.038 A 
ATOM      7  C   UNL A   1     -26.615  -0.843  31.230  0.00  0.00    +0.015 A 
ATOM      8 CL   UNL A   1     -24.167  -0.780  30.171  0.00  0.00    -0.082 Cl
ENDBRANCH   1   3
BRANCH   1   9
ATOM      9  C   UNL A   1     -30.705  -1.660  30.342  0.00  0.00    +0.179 C 
ATOM     10  C   UNL A   1     -31.717  -2.062  29.555  0.00  0.00    +0.041 C 
BRANCH  10  11
ATOM     11  C   UNL A   1     -32.108  -1.401  28.466  0.00  0.00    +0.003 A 
ATOM     12  C   UNL A   1     -32.905  -1.954  27.526  0.00  0.00    +0.000 A 
ATOM     13  C   UNL A   1     -33.135  -1.359  26.216  0.00  0.00    +0.000 A 
ATOM     14  C   UNL A   1     -32.499  -0.127  25.935  0.00  0.00    +0.000 A 
ATOM     15  C   UNL A   1     -31.652   0.413  26.876  0.00  0.00    +0.000 A 
ATOM     16  C   UNL A   1     -31.413  -0.219  28.031  0.00  0.00    +0.000 A 
ENDBRANCH  10  11
ENDBRANCH   1   9
TORSDOF 3
