MODEL 2773
MODEL 1
REMARK VINA RESULT:    -5.737      0.000      0.000
REMARK INTER + INTRA:          -6.262
REMARK INTER:                  -6.072
REMARK INTRA:                  -0.190
REMARK UNBOUND:                -0.190
REMARK  Name = No_2773-gen_results/8p0m/2024-11-26-14-13-15/
REMARK  1 active torsions:
REMARK  status: ('A' for Active; 'I' for Inactive)
REMARK    1  A    between atoms: C_6  and  C_7
REMARK                            x       y       z     vdW  Elec       q    Type
REMARK                         _______ _______ _______ _____ _____    ______ ____
ROOT
ATOM      1  C   UNL A   1     -27.572  -4.378  30.271  0.00  0.00    -0.009 C 
ATOM      2  C   UNL A   1     -26.515  -4.219  29.704  0.00  0.00    -0.044 C 
ATOM      3  C   UNL A   1     -25.660  -5.235  29.314  0.00  0.00    +0.022 C 
ATOM      4  C   UNL A   1     -24.359  -5.072  28.711  0.00  0.00    +0.005 C 
ATOM      5  C   UNL A   1     -23.884  -4.094  28.667  0.00  0.00    +0.009 C 
ATOM      6  C   UNL A   1     -24.534  -2.807  28.995  0.00  0.00    +0.099 C 
ATOM      7  C   UNL A   1     -25.819  -2.941  29.563  0.00  0.00    +0.030 C 
ENDROOT
BRANCH   6   8
ATOM      8  C   UNL A   1     -23.912  -1.493  28.858  0.00  0.00    +0.398 C 
ATOM      9  F   UNL A   1     -24.145  -0.943  27.967  0.00  0.00    -0.170 F 
ATOM     10  F   UNL A   1     -22.539  -1.737  28.899  0.00  0.00    -0.170 F 
ATOM     11  F   UNL A   1     -24.138  -0.744  29.988  0.00  0.00    -0.170 F 
ENDBRANCH   6   8
TORSDOF 1
ENDMDL
ENDMDL
