REMARK  Name = No_2774-gen_results/8p0m/2024-11-26-14-13-15/
REMARK  4 active torsions:
REMARK  status: ('A' for Active; 'I' for Inactive)
REMARK    1  A    between atoms: C_3  and  N_8
REMARK    2  A    between atoms: C_6  and  O_7
REMARK    3  A    between atoms: O_7  and  C_14
REMARK    4  A    between atoms: C_14  and  C_15
REMARK                            x       y       z     vdW  Elec       q    Type
REMARK                         _______ _______ _______ _____ _____    ______ ____
ROOT
ATOM      1  C   UNL A   1     -28.016  -0.814  28.878  0.00  0.00    +0.038 A 
ATOM      2  C   UNL A   1     -27.064  -0.119  28.608  0.00  0.00    +0.018 A 
ATOM      3  C   UNL A   1     -25.792  -0.430  29.076  0.00  0.00    +0.048 A 
ATOM      4  C   UNL A   1     -25.576  -1.565  29.936  0.00  0.00    +0.018 A 
ATOM      5  C   UNL A   1     -26.735  -2.300  30.217  0.00  0.00    +0.038 A 
ATOM      6  C   UNL A   1     -27.918  -1.954  29.763  0.00  0.00    +0.140 A 
ENDROOT
BRANCH   3   7
ATOM      7  N   UNL A   1     -24.610   0.311  28.814  0.00  0.00    -0.307 N 
ATOM      8  C   UNL A   1     -23.386  -0.000  29.039  0.00  0.00    +0.091 C 
ATOM      9  C   UNL A   1     -22.293   0.880  28.610  0.00  0.00    +0.021 C 
ATOM     10  C   UNL A   1     -24.678   1.541  28.076  0.00  0.00    +0.091 C 
ATOM     11  C   UNL A   1     -23.699   2.308  27.578  0.00  0.00    +0.021 C 
ATOM     12  C   UNL A   1     -22.422   1.942  27.882  0.00  0.00    +0.004 C 
ENDBRANCH   3   7
BRANCH   6  13
ATOM     13  O   UNL A   1     -29.000  -2.701  30.115  0.00  0.00    -0.457 OA
BRANCH  13  14
ATOM     14  C   UNL A   1     -30.116  -2.142  30.598  0.00  0.00    +0.324 C 
ATOM     15 BR   UNL A   1     -30.037  -0.831  31.809  0.00  0.00    -0.021 Br
BRANCH  14  16
ATOM     16  C   UNL A   1     -31.187  -2.732  30.165  0.00  0.00    +0.415 C 
ATOM     17  O   UNL A   1     -32.132  -2.697  30.619  0.00  0.00    -0.241 OA
ATOM     18  O   UNL A   1     -31.143  -3.487  29.029  0.00  0.00    -0.241 OA
ENDBRANCH  14  16
ENDBRANCH  13  14
ENDBRANCH   6  13
TORSDOF 4
