MODEL 2774
MODEL 1
REMARK VINA RESULT:    -5.651      0.000      0.000
REMARK INTER + INTRA:          -7.573
REMARK INTER:                  -6.972
REMARK INTRA:                  -0.601
REMARK UNBOUND:                -0.601
REMARK  Name = No_2774-gen_results/8p0m/2024-11-26-14-13-15/
REMARK  4 active torsions:
REMARK  status: ('A' for Active; 'I' for Inactive)
REMARK    1  A    between atoms: C_3  and  N_8
REMARK    2  A    between atoms: C_6  and  O_7
REMARK    3  A    between atoms: O_7  and  C_14
REMARK    4  A    between atoms: C_14  and  C_15
REMARK                            x       y       z     vdW  Elec       q    Type
REMARK                         _______ _______ _______ _____ _____    ______ ____
ROOT
ATOM      1  C   UNL A   1     -30.193  -9.956  30.813  0.00  0.00    +0.038 A 
ATOM      2  C   UNL A   1     -30.566 -10.180  29.685  0.00  0.00    +0.018 A 
ATOM      3  C   UNL A   1     -29.985 -11.187  28.923  0.00  0.00    +0.048 A 
ATOM      4  C   UNL A   1     -28.888 -11.966  29.437  0.00  0.00    +0.018 A 
ATOM      5  C   UNL A   1     -28.504 -11.625  30.741  0.00  0.00    +0.038 A 
ATOM      6  C   UNL A   1     -29.076 -10.651  31.413  0.00  0.00    +0.140 A 
ENDROOT
BRANCH   3   7
ATOM      7  N   UNL A   1     -30.350 -11.536  27.596  0.00  0.00    -0.307 N 
ATOM      8  C   UNL A   1     -29.628 -12.018  26.652  0.00  0.00    +0.091 C 
ATOM      9  C   UNL A   1     -30.223 -12.395  25.365  0.00  0.00    +0.021 C 
ATOM     10  C   UNL A   1     -31.728 -11.505  27.195  0.00  0.00    +0.091 C 
ATOM     11  C   UNL A   1     -32.314 -11.941  26.072  0.00  0.00    +0.021 C 
ATOM     12  C   UNL A   1     -31.488 -12.409  25.095  0.00  0.00    +0.004 C 
ENDBRANCH   3   7
BRANCH   6  13
ATOM     13  O   UNL A   1     -28.617 -10.358  32.661  0.00  0.00    -0.457 OA
BRANCH  13  14
ATOM     14  C   UNL A   1     -28.588 -11.275  33.635  0.00  0.00    +0.324 C 
ATOM     15 BR   UNL A   1     -30.099 -11.978  34.280  0.00  0.00    -0.021 Br
BRANCH  14  16
ATOM     16  C   UNL A   1     -27.388 -11.478  34.083  0.00  0.00    +0.415 C 
ATOM     17  O   UNL A   1     -26.824 -10.802  34.654  0.00  0.00    -0.241 OA
ATOM     18  O   UNL A   1     -26.744 -12.651  33.813  0.00  0.00    -0.241 OA
ENDBRANCH  14  16
ENDBRANCH  13  14
ENDBRANCH   6  13
TORSDOF 4
ENDMDL
ENDMDL
