REMARK  Name = No_2775-gen_results/8p0m/2024-11-26-14-13-15/
REMARK  2 active torsions:
REMARK  status: ('A' for Active; 'I' for Inactive)
REMARK    1  A    between atoms: C_2  and  N_7
REMARK    2  A    between atoms: C_4  and  C_13
REMARK                            x       y       z     vdW  Elec       q    Type
REMARK                         _______ _______ _______ _____ _____    ______ ____
ROOT
ATOM      1  C   UNL A   1     -28.016  -0.814  28.878  0.00  0.00    +0.015 A 
ATOM      2  C   UNL A   1     -28.469  -0.785  29.829  0.00  0.00    +0.048 A 
ATOM      3  C   UNL A   1     -26.546  -0.876  28.850  0.00  0.00    +0.001 A 
ATOM      4  C   UNL A   1     -25.804  -1.032  30.057  0.00  0.00    +0.000 A 
ATOM      5  C   UNL A   1     -27.944  -0.987  31.207  0.00  0.00    +0.015 A 
ATOM      6  C   UNL A   1     -26.582  -1.039  31.223  0.00  0.00    +0.001 A 
ENDROOT
BRANCH   2   7
ATOM      7  N   UNL A   1     -29.965  -0.735  29.890  0.00  0.00    -0.307 N 
ATOM      8  C   UNL A   1     -30.771  -1.535  30.355  0.00  0.00    +0.091 C 
ATOM      9  C   UNL A   1     -31.427  -2.216  29.998  0.00  0.00    +0.021 C 
ATOM     10  C   UNL A   1     -31.767  -2.139  28.534  0.00  0.00    +0.004 C 
ATOM     11  C   UNL A   1     -31.502  -0.895  27.974  0.00  0.00    +0.021 C 
ATOM     12  C   UNL A   1     -30.406  -0.183  28.626  0.00  0.00    +0.091 C 
ENDBRANCH   2   7
BRANCH   4  13
ATOM     13  C   UNL A   1     -24.364  -1.077  30.048  0.00  0.00    +0.000 A 
ATOM     14  C   UNL A   1     -23.671  -1.685  30.487  0.00  0.00    +0.000 A 
ATOM     15  C   UNL A   1     -23.775   0.047  29.157  0.00  0.00    +0.000 A 
ATOM     16  C   UNL A   1     -22.357   0.104  29.052  0.00  0.00    +0.000 A 
ATOM     17  C   UNL A   1     -22.229  -1.721  30.576  0.00  0.00    +0.000 A 
ATOM     18  C   UNL A   1     -21.628  -0.777  29.741  0.00  0.00    +0.000 A 
ENDBRANCH   4  13
TORSDOF 2
