REMARK  Name = No_2776-gen_results/8p0m/2024-11-26-14-13-15/
REMARK  10 active torsions:
REMARK  status: ('A' for Active; 'I' for Inactive)
REMARK    1  A    between atoms: C_3  and  O_7
REMARK    2  A    between atoms: C_6  and  C_20
REMARK    3  A    between atoms: O_7  and  C_8
REMARK    4  A    between atoms: C_10  and  C_11
REMARK    5  A    between atoms: C_20  and  O_22
REMARK    6  A    between atoms: O_22  and  C_24
REMARK    7  A    between atoms: C_24  and  C_25
REMARK    8  A    between atoms: C_25  and  C_26
REMARK    9  A    between atoms: C_26  and  C_27
REMARK   10  A    between atoms: C_28  and  C_29
REMARK                            x       y       z     vdW  Elec       q    Type
REMARK                         _______ _______ _______ _____ _____    ______ ____
ROOT
ATOM      1  C   UNL A   1     -28.016  -0.814  28.878  0.00  0.00    +0.049 A 
ATOM      2  C   UNL A   1     -28.469  -0.785  29.829  0.00  0.00    +0.061 A 
ATOM      3  C   UNL A   1     -28.196   0.348  28.055  0.00  0.00    +0.146 A 
ATOM      4  C   UNL A   1     -29.019   1.350  28.378  0.00  0.00    +0.044 A 
ATOM      5  C   UNL A   1     -29.411   0.180  30.378  0.00  0.00    +0.018 A 
ATOM      6  C   UNL A   1     -29.606   1.250  29.619  0.00  0.00    +0.080 A 
ATOM      7 CL   UNL A   1     -28.284  -2.212  30.977  0.00  0.00    -0.082 Cl
ENDROOT
BRANCH   6   8
ATOM      8  C   UNL A   1     -30.547   2.380  30.004  0.00  0.00    +0.341 C 
ATOM      9  O   UNL A   1     -31.201   2.971  29.339  0.00  0.00    -0.245 OA
BRANCH   8  10
ATOM     10  O   UNL A   1     -30.684   2.429  31.418  0.00  0.00    -0.445 OA
BRANCH  10  11
ATOM     11  C   UNL A   1     -31.509   3.356  31.943  0.00  0.00    +0.209 C 
BRANCH  11  12
ATOM     12  C   UNL A   1     -32.724   2.977  32.163  0.00  0.00    +0.052 C 
BRANCH  12  13
ATOM     13  C   UNL A   1     -32.999   1.834  32.827  0.00  0.00    +0.030 C 
BRANCH  13  14
ATOM     14  C   UNL A   1     -32.426   1.634  34.025  0.00  0.00    -0.026 C 
ATOM     15  C   UNL A   1     -31.987   0.854  34.603  0.00  0.00    -0.005 C 
BRANCH  15  16
ATOM     16  C   UNL A   1     -31.371   0.782  35.966  0.00  0.00    -0.000 C 
ATOM     17  C   UNL A   1     -30.799  -0.358  36.589  0.00  0.00    -0.000 C 
ENDBRANCH  15  16
ENDBRANCH  13  14
ENDBRANCH  12  13
ENDBRANCH  11  12
ENDBRANCH  10  11
ENDBRANCH   8  10
ENDBRANCH   6   8
BRANCH   3  18
ATOM     18  O   UNL A   1     -27.500   0.358  26.816  0.00  0.00    -0.454 OA
BRANCH  18  19
ATOM     19  C   UNL A   1     -26.498   1.339  26.660  0.00  0.00    +0.145 A 
ATOM     20  C   UNL A   1     -25.229   0.728  26.610  0.00  0.00    +0.037 A 
ATOM     21  C   UNL A   1     -24.088   1.553  26.623  0.00  0.00    +0.004 A 
ATOM     22  C   UNL A   1     -26.779   2.613  26.453  0.00  0.00    +0.037 A 
ATOM     23  C   UNL A   1     -25.679   3.509  26.418  0.00  0.00    +0.003 A 
ATOM     24  C   UNL A   1     -24.432   3.076  26.962  0.00  0.00    +0.000 A 
BRANCH  21  25
ATOM     25  C   UNL A   1     -22.791   1.098  26.897  0.00  0.00    +0.019 A 
ATOM     26  C   UNL A   1     -21.770   2.126  27.016  0.00  0.00    +0.099 A 
ATOM     27  N   UNL A   1     -20.638   1.702  27.682  0.00  0.00    -0.242 NA
ATOM     28  C   UNL A   1     -20.897   0.455  28.244  0.00  0.00    +0.099 A 
ATOM     29  C   UNL A   1     -22.015  -0.154  28.418  0.00  0.00    +0.021 A 
ATOM     30  C   UNL A   1     -22.880   0.185  27.885  0.00  0.00    +0.003 A 
ENDBRANCH  21  25
ENDBRANCH  18  19
ENDBRANCH   3  18
TORSDOF 10
