MODEL 2776
MODEL 1
REMARK VINA RESULT:    -5.297      0.000      0.000
REMARK INTER + INTRA:         -13.058
REMARK INTER:                  -8.394
REMARK INTRA:                  -4.664
REMARK UNBOUND:                -4.664
REMARK  Name = No_2776-gen_results/8p0m/2024-11-26-14-13-15/
REMARK  10 active torsions:
REMARK  status: ('A' for Active; 'I' for Inactive)
REMARK    1  A    between atoms: C_3  and  O_7
REMARK    2  A    between atoms: C_6  and  C_20
REMARK    3  A    between atoms: O_7  and  C_8
REMARK    4  A    between atoms: C_10  and  C_11
REMARK    5  A    between atoms: C_20  and  O_22
REMARK    6  A    between atoms: O_22  and  C_24
REMARK    7  A    between atoms: C_24  and  C_25
REMARK    8  A    between atoms: C_25  and  C_26
REMARK    9  A    between atoms: C_26  and  C_27
REMARK   10  A    between atoms: C_28  and  C_29
REMARK                            x       y       z     vdW  Elec       q    Type
REMARK                         _______ _______ _______ _____ _____    ______ ____
ROOT
ATOM      1  C   UNL A   1     -30.965 -15.355   8.294  0.00  0.00    +0.049 A 
ATOM      2  C   UNL A   1     -31.666 -15.509   9.066  0.00  0.00    +0.061 A 
ATOM      3  C   UNL A   1     -29.603 -15.164   8.703  0.00  0.00    +0.146 A 
ATOM      4  C   UNL A   1     -29.239 -15.018   9.980  0.00  0.00    +0.044 A 
ATOM      5  C   UNL A   1     -31.501 -15.376  10.506  0.00  0.00    +0.018 A 
ATOM      6  C   UNL A   1     -30.251 -15.176  10.900  0.00  0.00    +0.080 A 
ATOM      7 CL   UNL A   1     -33.438 -15.788   8.654  0.00  0.00    -0.082 Cl
ENDROOT
BRANCH   6   8
ATOM      8  C   UNL A   1     -29.857 -15.012  12.359  0.00  0.00    +0.341 C 
ATOM      9  O   UNL A   1     -29.653 -15.807  13.098  0.00  0.00    -0.245 OA
BRANCH   8  10
ATOM     10  O   UNL A   1     -29.520 -13.655  12.615  0.00  0.00    -0.445 OA
BRANCH  10  11
ATOM     11  C   UNL A   1     -30.500 -12.826  13.025  0.00  0.00    +0.209 C 
BRANCH  11  12
ATOM     12  C   UNL A   1     -30.641 -11.734  12.349  0.00  0.00    +0.052 C 
BRANCH  12  13
ATOM     13  C   UNL A   1     -29.890 -11.477  11.257  0.00  0.00    +0.030 C 
BRANCH  13  14
ATOM     14  C   UNL A   1     -30.511 -11.292  10.080  0.00  0.00    -0.026 C 
ATOM     15  C   UNL A   1     -31.162 -11.803   9.409  0.00  0.00    -0.005 C 
BRANCH  15  16
ATOM     16  C   UNL A   1     -31.789 -11.457   8.094  0.00  0.00    -0.000 C 
ATOM     17  C   UNL A   1     -32.492 -12.330   7.223  0.00  0.00    -0.000 C 
ENDBRANCH  15  16
ENDBRANCH  13  14
ENDBRANCH  12  13
ENDBRANCH  11  12
ENDBRANCH  10  11
ENDBRANCH   8  10
ENDBRANCH   6   8
BRANCH   3  18
ATOM     18  O   UNL A   1     -28.639 -15.063   7.663  0.00  0.00    -0.454 OA
BRANCH  18  19
ATOM     19  C   UNL A   1     -28.698 -13.907   6.856  0.00  0.00    +0.145 A 
ATOM     20  C   UNL A   1     -27.987 -12.855   7.467  0.00  0.00    +0.037 A 
ATOM     21  C   UNL A   1     -28.068 -11.571   6.895  0.00  0.00    +0.004 A 
ATOM     22  C   UNL A   1     -29.233 -13.913   5.648  0.00  0.00    +0.037 A 
ATOM     23  C   UNL A   1     -29.321 -12.660   4.986  0.00  0.00    +0.003 A 
ATOM     24  C   UNL A   1     -29.192 -11.470   5.764  0.00  0.00    +0.000 A 
BRANCH  21  25
ATOM     25  C   UNL A   1     -27.691 -10.392   7.551  0.00  0.00    +0.019 A 
ATOM     26  C   UNL A   1     -28.703  -9.350   7.614  0.00  0.00    +0.099 A 
ATOM     27  N   UNL A   1     -28.464  -8.410   8.596  0.00  0.00    -0.242 NA
ATOM     28  C   UNL A   1     -27.418  -8.862   9.396  0.00  0.00    +0.099 A 
ATOM     29  C   UNL A   1     -26.889 -10.031   9.478  0.00  0.00    +0.021 A 
ATOM     30  C   UNL A   1     -27.080 -10.743   8.701  0.00  0.00    +0.003 A 
ENDBRANCH  21  25
ENDBRANCH  18  19
ENDBRANCH   3  18
TORSDOF 10
ENDMDL
ENDMDL
