MODEL 2777
MODEL 1
REMARK VINA RESULT:    -5.275      0.000      0.000
REMARK INTER + INTRA:          -5.730
REMARK INTER:                  -5.584
REMARK INTRA:                  -0.146
REMARK UNBOUND:                -0.146
REMARK  Name = No_2777-gen_results/8p0m/2024-11-26-14-13-15/
REMARK  1 active torsions:
REMARK  status: ('A' for Active; 'I' for Inactive)
REMARK    1  A    between atoms: C_4  and  C_7
REMARK                            x       y       z     vdW  Elec       q    Type
REMARK                         _______ _______ _______ _____ _____    ______ ____
ROOT
ATOM      1  C   UNL A   1     -26.610  -4.021  29.811  0.00  0.00    -0.000 A 
ATOM      2  C   UNL A   1     -26.135  -4.929  29.564  0.00  0.00    -0.000 A 
ATOM      3  C   UNL A   1     -25.791  -2.802  29.716  0.00  0.00    +0.004 A 
ATOM      4  C   UNL A   1     -24.471  -2.856  29.181  0.00  0.00    +0.071 A 
ATOM      5  C   UNL A   1     -24.822  -5.248  28.940  0.00  0.00    -0.000 A 
ATOM      6  C   UNL A   1     -24.030  -4.143  28.845  0.00  0.00    +0.004 A 
ENDROOT
BRANCH   4   7
ATOM      7  C   UNL A   1     -23.640  -1.704  29.058  0.00  0.00    +0.419 C 
ATOM      8  F   UNL A   1     -22.459  -1.972  28.923  0.00  0.00    -0.166 F 
ATOM      9  F   UNL A   1     -23.784  -0.882  30.201  0.00  0.00    -0.166 F 
ATOM     10  F   UNL A   1     -24.042  -0.936  28.025  0.00  0.00    -0.166 F 
ENDBRANCH   4   7
TORSDOF 1
ENDMDL
ENDMDL
