REMARK  Name = No_2778-gen_results/8p0m/2024-11-26-14-13-15/
REMARK  2 active torsions:
REMARK  status: ('A' for Active; 'I' for Inactive)
REMARK    1  A    between atoms: C_3  and  C_7
REMARK    2  A    between atoms: C_8  and  C_9
REMARK                            x       y       z     vdW  Elec       q    Type
REMARK                         _______ _______ _______ _____ _____    ______ ____
ROOT
ATOM      1  C   UNL A   1     -27.459   0.493  26.770  0.00  0.00    +0.048 C 
ATOM      2  C   UNL A   1     -26.026   0.384  26.762  0.00  0.00    +0.033 C 
ATOM      3  C   UNL A   1     -28.141   0.699  25.594  0.00  0.00    -0.022 C 
ATOM      4  C   UNL A   1     -27.990  -0.038  24.557  0.00  0.00    -0.005 C 
ATOM      5  C   UNL A   1     -27.142  -1.184  24.735  0.00  0.00    -0.005 C 
ATOM      6  C   UNL A   1     -25.782  -1.209  25.127  0.00  0.00    -0.026 C 
ATOM      7  C   UNL A   1     -25.322  -0.397  25.900  0.00  0.00    +0.031 C 
ENDROOT
BRANCH   1  10
ATOM      8  C   UNL A   1     -28.016  -0.814  28.878  0.00  0.00    -0.004 A 
ATOM      9  C   UNL A   1     -28.469  -0.785  29.829  0.00  0.00    -0.000 A 
ATOM     10  C   UNL A   1     -28.182   0.428  28.113  0.00  0.00    -0.018 A 
ATOM     11  C   UNL A   1     -28.984   1.415  28.515  0.00  0.00    -0.004 A 
ATOM     12  C   UNL A   1     -29.380   0.138  30.461  0.00  0.00    -0.000 A 
ATOM     13  C   UNL A   1     -29.541   1.274  29.724  0.00  0.00    -0.000 A 
ENDBRANCH   1  10
BRANCH   2  14
ATOM     14  C   UNL A   1     -25.226   1.351  27.372  0.00  0.00    -0.018 C 
ATOM     15  C   UNL A   1     -23.855   1.100  27.582  0.00  0.00    +0.014 C 
ATOM     16  C   UNL A   1     -22.947   2.179  27.642  0.00  0.00    +0.093 C 
ATOM     17  N   UNL A   1     -23.512   3.369  27.573  0.00  0.00    -0.264 NA
ATOM     18  C   UNL A   1     -25.270   2.830  27.132  0.00  0.00    +0.148 C 
ENDBRANCH   2  14
TORSDOF 2
