MODEL 2778
MODEL 1
REMARK VINA RESULT:    -7.374      0.000      0.000
REMARK INTER + INTRA:          -9.649
REMARK INTER:                  -8.236
REMARK INTRA:                  -1.413
REMARK UNBOUND:                -1.413
REMARK  Name = No_2778-gen_results/8p0m/2024-11-26-14-13-15/
REMARK  2 active torsions:
REMARK  status: ('A' for Active; 'I' for Inactive)
REMARK    1  A    between atoms: C_3  and  C_7
REMARK    2  A    between atoms: C_8  and  C_9
REMARK                            x       y       z     vdW  Elec       q    Type
REMARK                         _______ _______ _______ _____ _____    ______ ____
ROOT
ATOM      1  C   UNL A   1     -24.697  -0.951  28.865  0.00  0.00    +0.048 C 
ATOM      2  C   UNL A   1     -23.624  -0.307  29.573  0.00  0.00    +0.033 C 
ATOM      3  C   UNL A   1     -25.583  -0.201  28.128  0.00  0.00    -0.022 C 
ATOM      4  C   UNL A   1     -25.217   0.643  27.236  0.00  0.00    -0.005 C 
ATOM      5  C   UNL A   1     -23.807   0.675  26.962  0.00  0.00    -0.005 C 
ATOM      6  C   UNL A   1     -22.750   0.951  27.863  0.00  0.00    -0.026 C 
ATOM      7  C   UNL A   1     -22.802   0.629  29.030  0.00  0.00    +0.031 C 
ENDROOT
BRANCH   1  10
ATOM      8  C   UNL A   1     -26.057  -2.934  29.690  0.00  0.00    -0.004 A 
ATOM      9  C   UNL A   1     -26.156  -3.983  29.694  0.00  0.00    -0.000 A 
ATOM     10  C   UNL A   1     -24.849  -2.464  29.001  0.00  0.00    -0.018 A 
ATOM     11  C   UNL A   1     -23.890  -3.295  28.589  0.00  0.00    -0.004 A 
ATOM     12  C   UNL A   1     -25.266  -5.061  29.339  0.00  0.00    -0.000 A 
ATOM     13  C   UNL A   1     -24.139  -4.603  28.723  0.00  0.00    -0.000 A 
ENDBRANCH   1  10
BRANCH   2  14
ATOM     14  C   UNL A   1     -23.581  -0.304  30.968  0.00  0.00    -0.018 C 
ATOM     15  C   UNL A   1     -24.755  -0.059  31.708  0.00  0.00    +0.014 C 
ATOM     16  C   UNL A   1     -24.887  -0.592  33.008  0.00  0.00    +0.093 C 
ATOM     17  N   UNL A   1     -23.816  -1.224  33.447  0.00  0.00    -0.264 NA
ATOM     18  C   UNL A   1     -22.818  -1.253  31.841  0.00  0.00    +0.148 C 
ENDBRANCH   2  14
TORSDOF 2
ENDMDL
ENDMDL
