REMARK  Name = No_2779-gen_results/8p0m/2024-11-26-14-13-15/
REMARK  4 active torsions:
REMARK  status: ('A' for Active; 'I' for Inactive)
REMARK    1  A    between atoms: C_1  and  C_2
REMARK    2  A    between atoms: C_1  and  C_8
REMARK    3  A    between atoms: C_3  and  C_13
REMARK    4  A    between atoms: C_5  and  O_11
REMARK                            x       y       z     vdW  Elec       q    Type
REMARK                         _______ _______ _______ _____ _____    ______ ____
ROOT
ATOM      1  C   UNL A   1     -27.064  -0.119  28.608  0.00  0.00    -0.018 A 
ATOM      2  C   UNL A   1     -26.972   0.714  27.506  0.00  0.00    -0.001 A 
ATOM      3  C   UNL A   1     -25.821   1.491  27.116  0.00  0.00    +0.037 A 
ATOM      4  C   UNL A   1     -24.656   1.424  27.918  0.00  0.00    +0.139 A 
ATOM      5  C   UNL A   1     -24.685   0.590  29.066  0.00  0.00    +0.037 A 
ATOM      6  C   UNL A   1     -25.810  -0.127  29.334  0.00  0.00    -0.001 A 
ENDROOT
BRANCH   2   7
ATOM      7  C   UNL A   1     -28.105   0.766  26.570  0.00  0.00    -0.000 A 
ATOM      8  C   UNL A   1     -27.958   0.663  25.229  0.00  0.00    -0.000 A 
ATOM      9  C   UNL A   1     -29.005   0.633  24.336  0.00  0.00    -0.000 A 
ATOM     10  C   UNL A   1     -30.047   0.483  24.671  0.00  0.00    -0.000 A 
ATOM     11  C   UNL A   1     -30.451   0.448  26.107  0.00  0.00    -0.000 A 
ATOM     12  C   UNL A   1     -29.435   0.601  27.045  0.00  0.00    -0.000 A 
ENDBRANCH   2   7
BRANCH   4  13
ATOM     13  O   UNL A   1     -23.564   2.156  27.626  0.00  0.00    -0.471 OA
ATOM     14  C   UNL A   1     -23.325   2.390  26.322  0.00  0.00    +0.253 C 
ENDBRANCH   4  13
BRANCH   1  15
ATOM     15  C   UNL A   1     -28.016  -0.814  28.878  0.00  0.00    +0.076 C 
BRANCH  15  16
ATOM     16  C   UNL A   1     -28.694  -0.473  30.159  0.00  0.00    +0.234 C 
ATOM     17 CL   UNL A   1     -28.579   0.815  30.854  0.00  0.00    -0.078 Cl
ATOM     18  O   UNL A   1     -29.509  -1.501  30.726  0.00  0.00    -0.205 OA
ENDBRANCH  15  16
ENDBRANCH   1  15
TORSDOF 4
