MODEL 2779
MODEL 1
REMARK VINA RESULT:    -6.857      0.000      0.000
REMARK INTER + INTRA:          -9.213
REMARK INTER:                  -8.461
REMARK INTRA:                  -0.752
REMARK UNBOUND:                -0.752
REMARK  Name = No_2779-gen_results/8p0m/2024-11-26-14-13-15/
REMARK  4 active torsions:
REMARK  status: ('A' for Active; 'I' for Inactive)
REMARK    1  A    between atoms: C_1  and  C_2
REMARK    2  A    between atoms: C_1  and  C_8
REMARK    3  A    between atoms: C_3  and  C_13
REMARK    4  A    between atoms: C_5  and  O_11
REMARK                            x       y       z     vdW  Elec       q    Type
REMARK                         _______ _______ _______ _____ _____    ______ ____
ROOT
ATOM      1  C   UNL A   1     -23.206  -0.646  29.173  0.00  0.00    -0.018 A 
ATOM      2  C   UNL A   1     -24.252  -1.254  28.501  0.00  0.00    -0.001 A 
ATOM      3  C   UNL A   1     -24.905  -0.762  27.312  0.00  0.00    +0.037 A 
ATOM      4  C   UNL A   1     -24.461   0.461  26.754  0.00  0.00    +0.139 A 
ATOM      5  C   UNL A   1     -23.392   1.138  27.397  0.00  0.00    +0.037 A 
ATOM      6  C   UNL A   1     -22.822   0.578  28.498  0.00  0.00    -0.001 A 
ENDROOT
BRANCH   2   7
ATOM      7  C   UNL A   1     -24.708  -2.574  28.961  0.00  0.00    -0.000 A 
ATOM      8  C   UNL A   1     -25.933  -2.785  29.497  0.00  0.00    -0.000 A 
ATOM      9  C   UNL A   1     -26.413  -4.021  29.866  0.00  0.00    -0.000 A 
ATOM     10  C   UNL A   1     -25.908  -4.954  29.557  0.00  0.00    -0.000 A 
ATOM     11  C   UNL A   1     -24.595  -4.981  28.850  0.00  0.00    -0.000 A 
ATOM     12  C   UNL A   1     -24.012  -3.750  28.568  0.00  0.00    -0.000 A 
ENDBRANCH   2   7
BRANCH   4  13
ATOM     13  O   UNL A   1     -25.057   0.990  25.668  0.00  0.00    -0.471 OA
ATOM     14  C   UNL A   1     -26.001   0.238  25.071  0.00  0.00    +0.253 C 
ENDBRANCH   4  13
BRANCH   1  15
ATOM     15  C   UNL A   1     -22.628  -1.111  30.128  0.00  0.00    +0.076 C 
BRANCH  15  16
ATOM     16  C   UNL A   1     -23.115  -0.624  31.449  0.00  0.00    +0.234 C 
ATOM     17 CL   UNL A   1     -24.246   0.293  31.642  0.00  0.00    -0.078 Cl
ATOM     18  O   UNL A   1     -22.404  -1.104  32.591  0.00  0.00    -0.205 OA
ENDBRANCH  15  16
ENDBRANCH   1  15
TORSDOF 4
ENDMDL
ENDMDL
