MODEL 277
MODEL 1
REMARK VINA RESULT:    -4.672      0.000      0.000
REMARK INTER + INTRA:          -5.333
REMARK INTER:                  -5.218
REMARK INTRA:                  -0.115
REMARK UNBOUND:                -0.115
REMARK  Name = No_277-gen_results/8p0m/2024-11-26-14-13-15/
REMARK  2 active torsions:
REMARK  status: ('A' for Active; 'I' for Inactive)
REMARK    1  A    between atoms: C_3  and  C_4
REMARK    2  A    between atoms: C_4  and  C_5
REMARK                            x       y       z     vdW  Elec       q    Type
REMARK                         _______ _______ _______ _____ _____    ______ ____
ROOT
ATOM      1  C   UNL A   1      -9.035  -9.527  18.659  0.00  0.00    +0.053 C 
ENDROOT
BRANCH   1   4
ATOM      2  N   UNL A   1     -10.981 -10.408  17.031  0.00  0.00    -0.127 NA
ATOM      3  C   UNL A   1      -9.922 -10.447  16.948  0.00  0.00    +0.102 C 
ATOM      4  C   UNL A   1      -9.023 -10.243  17.349  0.00  0.00    -0.002 C 
ENDBRANCH   1   4
BRANCH   1   5
ATOM      5  C   UNL A   1      -8.237  -9.832  19.783  0.00  0.00    -0.026 C 
ATOM      6  C   UNL A   1      -7.217  -8.967  20.120  0.00  0.00    -0.030 C 
ATOM      7  C   UNL A   1      -6.935  -7.884  19.356  0.00  0.00    +0.030 C 
ENDBRANCH   1   5
TORSDOF 2
ENDMDL
ENDMDL
