REMARK  Name = No_278-gen_results/8p0m/2024-11-26-14-13-15/
REMARK  5 active torsions:
REMARK  status: ('A' for Active; 'I' for Inactive)
REMARK    1  A    between atoms: C_2  and  N_16
REMARK    2  A    between atoms: C_3  and  C_8
REMARK    3  A    between atoms: C_10  and  O_14
REMARK    4  A    between atoms: C_20  and  C_22
REMARK    5  A    between atoms: C_22  and  C_24
REMARK                            x       y       z     vdW  Elec       q    Type
REMARK                         _______ _______ _______ _____ _____    ______ ____
ROOT
ATOM      1  C   UNL A   1     -28.016  -0.814  28.878  0.00  0.00    +0.026 A 
ATOM      2  C   UNL A   1     -27.064  -0.119  28.608  0.00  0.00    +0.049 A 
ATOM      3  C   UNL A   1     -25.765  -0.390  29.036  0.00  0.00    +0.013 A 
ATOM      4  C   UNL A   1     -25.530  -1.530  29.901  0.00  0.00    +0.002 A 
ATOM      5  C   UNL A   1     -26.689  -2.289  30.181  0.00  0.00    +0.011 A 
ATOM      6  C   UNL A   1     -27.873  -1.951  29.737  0.00  0.00    +0.059 A 
ATOM      7 CL   UNL A   1     -29.194  -2.923  30.219  0.00  0.00    -0.082 Cl
ENDROOT
BRANCH   3   8
ATOM      8  C   UNL A   1     -24.533   0.419  28.725  0.00  0.00    +0.004 A 
ATOM      9  C   UNL A   1     -24.532   1.288  27.720  0.00  0.00    +0.037 A 
ATOM     10  C   UNL A   1     -23.325   1.992  27.388  0.00  0.00    +0.139 A 
ATOM     11  C   UNL A   1     -22.128   1.766  28.000  0.00  0.00    +0.037 A 
ATOM     12  C   UNL A   1     -23.273   0.150  29.369  0.00  0.00    +0.000 A 
ATOM     13  C   UNL A   1     -22.091   0.833  29.010  0.00  0.00    +0.003 A 
BRANCH  10  14
ATOM     14  O   UNL A   1     -23.401   2.915  26.361  0.00  0.00    -0.471 OA
ATOM     15  C   UNL A   1     -24.684   3.255  25.982  0.00  0.00    +0.253 C 
ENDBRANCH  10  14
ENDBRANCH   3   8
BRANCH   2  16
ATOM     16  N   UNL A   1     -27.408   0.998  27.798  0.00  0.00    -0.307 N 
ATOM     17  C   UNL A   1     -28.069   1.056  26.701  0.00  0.00    +0.091 C 
ATOM     18  C   UNL A   1     -28.207   2.271  26.054  0.00  0.00    +0.021 C 
ATOM     19  C   UNL A   1     -27.172   2.364  28.410  0.00  0.00    +0.091 C 
ATOM     20  C   UNL A   1     -27.373   3.506  27.805  0.00  0.00    +0.022 C 
ATOM     21  C   UNL A   1     -27.938   3.504  26.592  0.00  0.00    +0.004 C 
BRANCH  20  22
ATOM     22  C   UNL A   1     -26.963   4.775  28.471  0.00  0.00    +0.037 C 
ATOM     23  C   UNL A   1     -27.823   5.456  29.215  0.00  0.00    +0.003 C 
BRANCH  22  24
ATOM     24  C   UNL A   1     -25.593   5.247  28.276  0.00  0.00    +0.193 C 
ATOM     25  F   UNL A   1     -24.825   4.609  27.638  0.00  0.00    -0.234 F 
ENDBRANCH  22  24
ENDBRANCH  20  22
ENDBRANCH   2  16
TORSDOF 5
