MODEL 2780
MODEL 1
REMARK VINA RESULT:    -5.101      0.000      0.000
REMARK INTER + INTRA:          -5.101
REMARK INTER:                  -5.101
REMARK INTRA:                   0.000
REMARK UNBOUND:                 0.000
REMARK  Name = No_2780-gen_results/8p0m/2024-11-26-14-13-15/
REMARK  0 active torsions:
REMARK  status: ('A' for Active; 'I' for Inactive)
REMARK                            x       y       z     vdW  Elec       q    Type
REMARK                         _______ _______ _______ _____ _____    ______ ____
ROOT
ATOM      1  C   UNL A   1     -24.399  -5.146  28.825  0.00  0.00    +0.271 C 
ATOM      2  C   UNL A   1     -25.188  -4.370  29.313  0.00  0.00    +0.012 C 
ATOM      3  C   UNL A   1     -26.470  -4.690  29.726  0.00  0.00    +0.027 C 
ATOM      4  C   UNL A   1     -27.459  -3.770  30.235  0.00  0.00    +0.004 C 
ATOM      5  C   UNL A   1     -27.117  -2.401  30.341  0.00  0.00    +0.001 C 
ATOM      6  C   UNL A   1     -25.816  -2.006  29.936  0.00  0.00    +0.004 C 
ATOM      7  C   UNL A   1     -24.963  -2.944  29.442  0.00  0.00    +0.027 C 
ATOM      8  F   UNL A   1     -23.691  -4.824  27.834  0.00  0.00    -0.173 F 
ATOM      9  F   UNL A   1     -24.965  -6.320  28.442  0.00  0.00    -0.173 F 
ENDROOT
TORSDOF 0
ENDMDL
ENDMDL
