MODEL 2781
MODEL 1
REMARK VINA RESULT:    -6.983      0.000      0.000
REMARK INTER + INTRA:         -10.601
REMARK INTER:                  -9.432
REMARK INTRA:                  -1.169
REMARK UNBOUND:                -1.169
REMARK  Name = No_2781-gen_results/8p0m/2024-11-26-14-13-15/
REMARK  6 active torsions:
REMARK  status: ('A' for Active; 'I' for Inactive)
REMARK    1  A    between atoms: C_2  and  N_7
REMARK    2  A    between atoms: C_4  and  N_16
REMARK    3  A    between atoms: C_11  and  C_12
REMARK    4  A    between atoms: C_17  and  C_23
REMARK    5  A    between atoms: C_19  and  N_22
REMARK    6  A    between atoms: CA_26  and  C_27
REMARK                            x       y       z     vdW  Elec       q    Type
REMARK                         _______ _______ _______ _____ _____    ______ ____
ROOT
ATOM      1  N   UNL A   1     -23.513 -14.128   5.277  0.00  0.00    -0.269 N 
ATOM      2  C   UNL A   1     -24.890 -14.012   5.162  0.00  0.00    +0.186 C 
ATOM      3  C   UNL A   1     -25.429 -12.712   4.823  0.00  0.00    +0.051 C 
ATOM      4  C   UNL A   1     -22.956 -13.051   4.397  0.00  0.00    +0.249 C 
ATOM      5  C   UNL A   1     -24.864 -12.161   4.070  0.00  0.00    +0.095 C 
ATOM      6  N   UNL A   1     -23.560 -11.983   4.150  0.00  0.00    -0.181 NA
ENDROOT
BRANCH   1  10
ATOM      7  C   UNL A   1     -22.350 -17.355   3.771  0.00  0.00    +0.016 A 
ATOM      8  C   UNL A   1     -21.949 -17.777   4.649  0.00  0.00    +0.048 A 
ATOM      9  C   UNL A   1     -23.007 -16.046   3.910  0.00  0.00    +0.016 A 
ATOM     10  C   UNL A   1     -22.965 -15.341   5.148  0.00  0.00    +0.051 A 
ATOM     11  C   UNL A   1     -21.726 -17.241   6.020  0.00  0.00    +0.016 A 
ATOM     12  C   UNL A   1     -22.330 -16.031   6.190  0.00  0.00    +0.016 A 
BRANCH   8  13
ATOM     13  N   UNL A   1     -21.261 -19.103   4.537  0.00  0.00    -0.307 N 
ATOM     14  C   UNL A   1     -21.547 -20.096   3.874  0.00  0.00    +0.091 C 
ATOM     15  C   UNL A   1     -20.863 -21.298   4.056  0.00  0.00    +0.022 C 
ATOM     16  C   UNL A   1     -20.214 -19.275   5.466  0.00  0.00    +0.102 C 
ATOM     17  C   UNL A   1     -19.546 -20.398   5.659  0.00  0.00    +0.123 C 
ATOM     18  C   UNL A   1     -19.959 -21.435   4.860  0.00  0.00    +0.015 C 
BRANCH  17  19
ATOM     19  C   UNL A   1     -18.525 -20.471   6.631  0.00  0.00    +0.366 C 
ATOM     20  O   UNL A   1     -17.517 -19.882   6.637  0.00  0.00    -0.246 OA
ATOM     21  O   UNL A   1     -18.748 -21.323   7.599  0.00  0.00    -0.246 OA
ENDBRANCH  17  19
ENDBRANCH   8  13
ENDBRANCH   1  10
BRANCH   2  22
ATOM     22  C   UNL A   1     -25.781 -15.017   5.874  0.00  0.00    +0.351 C 
ATOM     23  N   UNL A   1     -26.227 -16.045   5.081  0.00  0.00    -0.029 NA
ATOM     24  N   UNL A   1     -26.052 -15.033   7.143  0.00  0.00    -0.053 NA
ATOM     25  CA  UNL A   1     -26.729 -16.221   7.480  0.00  0.00    +0.366 C 
ATOM     26  C   UNL A   1     -26.960 -16.982   6.202  0.00  0.00    +0.316 C 
BRANCH  25  27
ATOM     27  C   UNL A   1     -26.961 -16.829   8.671  0.00  0.00    +0.418 C 
ATOM     28  O   UNL A   1     -26.068 -17.361   9.341  0.00  0.00    -0.241 OA
ATOM     29  OXT UNL A   1     -28.126 -16.467   9.271  0.00  0.00    -0.241 OA
ENDBRANCH  25  27
ENDBRANCH   2  22
BRANCH   4  30
ATOM     30  N   UNL A   1     -21.591 -13.089   4.325  0.00  0.00    -0.181 NA
ATOM     31  C   UNL A   1     -20.595 -12.127   4.145  0.00  0.00    +0.207 C 
ATOM     32  N   UNL A   1     -19.341 -12.497   4.082  0.00  0.00    -0.127 NA
ENDBRANCH   4  30
TORSDOF 6
ENDMDL
ENDMDL
