REMARK  Name = No_2781-gen_results/8p0m/2024-11-26-14-13-15/
REMARK  6 active torsions:
REMARK  status: ('A' for Active; 'I' for Inactive)
REMARK    1  A    between atoms: C_2  and  N_7
REMARK    2  A    between atoms: C_4  and  N_16
REMARK    3  A    between atoms: C_11  and  C_12
REMARK    4  A    between atoms: C_17  and  C_23
REMARK    5  A    between atoms: C_19  and  N_22
REMARK    6  A    between atoms: CA_26  and  C_27
REMARK                            x       y       z     vdW  Elec       q    Type
REMARK                         _______ _______ _______ _____ _____    ______ ____
ROOT
ATOM      1  N   UNL A   1     -24.471  -1.142  30.044  0.00  0.00    -0.269 N 
ATOM      2  C   UNL A   1     -23.715   0.021  30.039  0.00  0.00    +0.186 C 
ATOM      3  C   UNL A   1     -22.354  -0.065  29.552  0.00  0.00    +0.051 C 
ATOM      4  C   UNL A   1     -23.885  -1.993  28.960  0.00  0.00    +0.249 C 
ATOM      5  C   UNL A   1     -22.218  -0.697  28.674  0.00  0.00    +0.095 C 
ATOM      6  N   UNL A   1     -22.687  -1.928  28.605  0.00  0.00    -0.181 NA
ENDROOT
BRANCH   1  10
ATOM      7  C   UNL A   1     -28.016  -0.814  28.878  0.00  0.00    +0.016 A 
ATOM      8  C   UNL A   1     -28.469  -0.785  29.829  0.00  0.00    +0.048 A 
ATOM      9  C   UNL A   1     -26.546  -0.876  28.850  0.00  0.00    +0.016 A 
ATOM     10  C   UNL A   1     -25.804  -1.032  30.057  0.00  0.00    +0.051 A 
ATOM     11  C   UNL A   1     -27.944  -0.987  31.207  0.00  0.00    +0.016 A 
ATOM     12  C   UNL A   1     -26.582  -1.039  31.223  0.00  0.00    +0.016 A 
BRANCH   8  13
ATOM     13  N   UNL A   1     -29.965  -0.735  29.890  0.00  0.00    -0.307 N 
ATOM     14  C   UNL A   1     -30.771  -1.535  30.355  0.00  0.00    +0.091 C 
ATOM     15  C   UNL A   1     -32.141  -1.374  30.145  0.00  0.00    +0.022 C 
ATOM     16  C   UNL A   1     -30.523   0.329  29.151  0.00  0.00    +0.102 C 
ATOM     17  C   UNL A   1     -31.814   0.511  28.937  0.00  0.00    +0.123 C 
ATOM     18  C   UNL A   1     -32.612  -0.450  29.507  0.00  0.00    +0.015 C 
BRANCH  17  19
ATOM     19  C   UNL A   1     -32.270   1.601  28.165  0.00  0.00    +0.366 C 
ATOM     20  O   UNL A   1     -31.626   2.302  27.490  0.00  0.00    -0.246 OA
ATOM     21  O   UNL A   1     -33.552   1.844  28.263  0.00  0.00    -0.246 OA
ENDBRANCH  17  19
ENDBRANCH   8  13
ENDBRANCH   1  10
BRANCH   2  22
ATOM     22  C   UNL A   1     -24.092   1.155  30.978  0.00  0.00    +0.351 C 
ATOM     23  N   UNL A   1     -24.006   2.407  30.421  0.00  0.00    -0.029 NA
ATOM     24  N   UNL A   1     -24.569   1.028  32.178  0.00  0.00    -0.053 NA
ATOM     25  CA  UNL A   1     -25.000   2.277  32.665  0.00  0.00    +0.366 C 
ATOM     26  C   UNL A   1     -24.651   3.307  31.624  0.00  0.00    +0.316 C 
BRANCH  25  27
ATOM     27  C   UNL A   1     -25.807   2.620  33.700  0.00  0.00    +0.418 C 
ATOM     28  O   UNL A   1     -26.192   3.778  33.899  0.00  0.00    -0.241 OA
ATOM     29  OXT UNL A   1     -26.491   1.581  34.250  0.00  0.00    -0.241 OA
ENDBRANCH  25  27
ENDBRANCH   2  22
BRANCH   4  30
ATOM     30  N   UNL A   1     -24.585  -3.152  28.770  0.00  0.00    -0.181 NA
ATOM     31  C   UNL A   1     -25.339  -3.985  29.599  0.00  0.00    +0.207 C 
ATOM     32  N   UNL A   1     -25.870  -5.077  29.110  0.00  0.00    -0.127 NA
ENDBRANCH   4  30
TORSDOF 6
