MODEL 2782
MODEL 1
REMARK VINA RESULT:    -7.006      0.000      0.000
REMARK INTER + INTRA:          -7.507
REMARK INTER:                  -7.416
REMARK INTRA:                  -0.091
REMARK UNBOUND:                -0.091
REMARK  Name = No_2782-gen_results/8p0m/2024-11-26-14-13-15/
REMARK  1 active torsions:
REMARK  status: ('A' for Active; 'I' for Inactive)
REMARK    1  A    between atoms: C_5  and  C_17
REMARK                            x       y       z     vdW  Elec       q    Type
REMARK                         _______ _______ _______ _____ _____    ______ ____
ROOT
ATOM      1  C   UNL A   1     -22.973  -1.341  28.951  0.00  0.00    +0.004 A 
ATOM      2  C   UNL A   1     -23.723  -0.522  28.473  0.00  0.00    +0.042 A 
ATOM      3  C   UNL A   1     -25.022  -0.773  28.064  0.00  0.00    +0.042 A 
ATOM      4  C   UNL A   1     -25.516  -2.098  28.251  0.00  0.00    +0.010 A 
ATOM      5  C   UNL A   1     -24.723  -2.944  28.927  0.00  0.00    +0.080 A 
ATOM      6  C   UNL A   1     -23.527  -2.606  29.315  0.00  0.00    +0.007 A 
ATOM      7  C   UNL A   1     -25.868   0.246  27.345  0.00  0.00    +0.196 C 
ATOM      8  C   UNL A   1     -25.149   1.227  26.774  0.00  0.00    +0.042 A 
ATOM      9  C   UNL A   1     -25.861   2.370  26.192  0.00  0.00    +0.003 A 
ATOM     10  C   UNL A   1     -25.131   3.529  25.749  0.00  0.00    +0.000 A 
ATOM     11  C   UNL A   1     -23.770   3.549  25.737  0.00  0.00    +0.000 A 
ATOM     12  C   UNL A   1     -23.050   2.420  26.198  0.00  0.00    +0.003 A 
ATOM     13  C   UNL A   1     -23.739   1.332  26.738  0.00  0.00    +0.042 A 
ATOM     14  C   UNL A   1     -23.052   0.645  27.746  0.00  0.00    +0.196 C 
ATOM     15  O   UNL A   1     -27.114   0.124  27.320  0.00  0.00    -0.287 OA
ATOM     16  O   UNL A   1     -21.799   0.797  27.990  0.00  0.00    -0.287 OA
ENDROOT
BRANCH   5  17
ATOM     17  C   UNL A   1     -25.291  -4.254  29.290  0.00  0.00    +0.388 C 
ATOM     18  O   UNL A   1     -26.163  -4.508  29.754  0.00  0.00    -0.241 OA
ATOM     19  O   UNL A   1     -24.240  -5.260  29.180  0.00  0.00    -0.241 OA
ENDBRANCH   5  17
TORSDOF 1
ENDMDL
ENDMDL
