REMARK  Name = No_2783-gen_results/8p0m/2024-11-26-14-13-15/
REMARK  1 active torsions:
REMARK  status: ('A' for Active; 'I' for Inactive)
REMARK    1  A    between atoms: C_5  and  C_15
REMARK                            x       y       z     vdW  Elec       q    Type
REMARK                         _______ _______ _______ _____ _____    ______ ____
ROOT
ATOM      1  N   UNL A   1     -28.054  -1.050  28.725  0.00  0.00    -0.244 NA
ATOM      2  C   UNL A   1     -27.746  -0.073  29.010  0.00  0.00    +0.081 A 
ATOM      3  C   UNL A   1     -27.556   0.337  30.339  0.00  0.00    +0.018 A 
ATOM      4  C   UNL A   1     -27.071   1.671  30.790  0.00  0.00    +0.008 A 
ATOM      5  C   UNL A   1     -26.654   2.522  29.736  0.00  0.00    +0.080 A 
ATOM      6  C   UNL A   1     -26.730   2.060  28.408  0.00  0.00    +0.008 A 
ATOM      7  C   UNL A   1     -27.189   0.815  28.052  0.00  0.00    +0.018 A 
ATOM      8  C   UNL A   1     -29.070  -1.586  29.513  0.00  0.00    +0.099 A 
ATOM      9  C   UNL A   1     -28.950  -1.476  30.944  0.00  0.00    +0.021 A 
ATOM     10  C   UNL A   1     -28.288  -0.354  31.398  0.00  0.00    +0.003 A 
ATOM     11  C   UNL A   1     -27.247   0.748  26.636  0.00  0.00    +0.002 A 
ATOM     12  C   UNL A   1     -26.504   1.334  25.779  0.00  0.00    +0.000 A 
ATOM     13  C   UNL A   1     -25.917   2.554  26.155  0.00  0.00    +0.000 A 
ATOM     14  C   UNL A   1     -25.997   2.982  27.483  0.00  0.00    +0.000 A 
ENDROOT
BRANCH   5  15
ATOM     15  C   UNL A   1     -25.998   3.794  30.100  0.00  0.00    +0.388 C 
ATOM     16  O   UNL A   1     -26.667   4.590  30.714  0.00  0.00    -0.241 OA
ATOM     17  O   UNL A   1     -25.010   4.173  29.296  0.00  0.00    -0.241 OA
ENDBRANCH   5  15
TORSDOF 1
