MODEL 2783
MODEL 1
REMARK VINA RESULT:    -6.333      0.000      0.000
REMARK INTER + INTRA:          -6.800
REMARK INTER:                  -6.703
REMARK INTRA:                  -0.097
REMARK UNBOUND:                -0.097
REMARK  Name = No_2783-gen_results/8p0m/2024-11-26-14-13-15/
REMARK  1 active torsions:
REMARK  status: ('A' for Active; 'I' for Inactive)
REMARK    1  A    between atoms: C_5  and  C_15
REMARK                            x       y       z     vdW  Elec       q    Type
REMARK                         _______ _______ _______ _____ _____    ______ ____
ROOT
ATOM      1  N   UNL A   1     -24.903   1.919  25.934  0.00  0.00    -0.244 NA
ATOM      2  C   UNL A   1     -24.730   1.164  26.662  0.00  0.00    +0.081 A 
ATOM      3  C   UNL A   1     -25.599   0.089  26.904  0.00  0.00    +0.018 A 
ATOM      4  C   UNL A   1     -25.379  -1.025  27.868  0.00  0.00    +0.008 A 
ATOM      5  C   UNL A   1     -24.098  -1.018  28.477  0.00  0.00    +0.080 A 
ATOM      6  C   UNL A   1     -23.181  -0.005  28.138  0.00  0.00    +0.008 A 
ATOM      7  C   UNL A   1     -23.443   1.000  27.239  0.00  0.00    +0.018 A 
ATOM      8  C   UNL A   1     -26.216   2.379  25.882  0.00  0.00    +0.099 A 
ATOM      9  C   UNL A   1     -27.278   1.406  25.883  0.00  0.00    +0.021 A 
ATOM     10  C   UNL A   1     -27.015   0.244  26.579  0.00  0.00    +0.003 A 
ATOM     11  C   UNL A   1     -22.349   1.904  27.248  0.00  0.00    +0.002 A 
ATOM     12  C   UNL A   1     -21.115   1.661  27.468  0.00  0.00    +0.000 A 
ATOM     13  C   UNL A   1     -20.807   0.561  28.288  0.00  0.00    +0.000 A 
ATOM     14  C   UNL A   1     -21.817  -0.327  28.665  0.00  0.00    +0.000 A 
ENDROOT
BRANCH   5  15
ATOM     15  C   UNL A   1     -23.730  -2.179  29.312  0.00  0.00    +0.388 C 
ATOM     16  O   UNL A   1     -23.551  -3.225  28.735  0.00  0.00    -0.241 OA
ATOM     17  O   UNL A   1     -24.156  -2.131  30.570  0.00  0.00    -0.241 OA
ENDBRANCH   5  15
TORSDOF 1
ENDMDL
ENDMDL
