MODEL 2784
MODEL 1
REMARK VINA RESULT:    -6.592      0.000      0.000
REMARK INTER + INTRA:          -9.551
REMARK INTER:                  -8.518
REMARK INTRA:                  -1.033
REMARK UNBOUND:                -1.033
REMARK  Name = No_2784-gen_results/8p0m/2024-11-26-14-13-15/
REMARK  5 active torsions:
REMARK  status: ('A' for Active; 'I' for Inactive)
REMARK    1  A    between atoms: C_2  and  C_11
REMARK    2  A    between atoms: C_3  and  C_7
REMARK    3  A    between atoms: C_6  and  C_14
REMARK    4  A    between atoms: C_14  and  C_15
REMARK    5  A    between atoms: C_16  and  C_17
REMARK                            x       y       z     vdW  Elec       q    Type
REMARK                         _______ _______ _______ _____ _____    ______ ____
ROOT
ATOM      1  C   UNL A   1     -13.734   2.475  35.045  0.00  0.00    +0.010 A 
ATOM      2  C   UNL A   1     -12.965   1.855  34.678  0.00  0.00    +0.079 A 
ATOM      3  C   UNL A   1     -13.749   2.759  36.428  0.00  0.00    +0.071 A 
ATOM      4  C   UNL A   1     -12.803   2.239  37.291  0.00  0.00    -0.000 A 
ATOM      5  C   UNL A   1     -11.847   1.185  35.371  0.00  0.00    +0.003 A 
ATOM      6  C   UNL A   1     -11.825   1.429  36.700  0.00  0.00    -0.018 A 
ENDROOT
BRANCH   3   7
ATOM      7  C   UNL A   1     -14.759   3.665  37.072  0.00  0.00    +0.419 C 
ATOM      8  F   UNL A   1     -14.464   4.652  37.186  0.00  0.00    -0.166 F 
ATOM      9  F   UNL A   1     -15.189   3.194  38.334  0.00  0.00    -0.166 F 
ATOM     10  F   UNL A   1     -15.981   3.526  36.309  0.00  0.00    -0.166 F 
ENDBRANCH   3   7
BRANCH   2  11
ATOM     11  C   UNL A   1     -12.832   1.591  33.083  0.00  0.00    +0.388 C 
ATOM     12  O   UNL A   1     -11.906   1.140  32.685  0.00  0.00    -0.241 OA
ATOM     13  O   UNL A   1     -13.709   2.252  32.281  0.00  0.00    -0.241 OA
ENDBRANCH   2  11
BRANCH   6  14
ATOM     14  C   UNL A   1     -10.773   0.853  37.594  0.00  0.00    +0.052 C 
BRANCH  14  15
ATOM     15  C   UNL A   1     -10.015   0.044  37.539  0.00  0.00    -0.021 C 
ATOM     16  C   UNL A   1     -10.370  -1.344  37.801  0.00  0.00    -0.005 C 
BRANCH  16  17
ATOM     17  C   UNL A   1     -11.439  -1.827  37.638  0.00  0.00    -0.005 C 
ATOM     18  C   UNL A   1     -12.183  -2.480  38.745  0.00  0.00    -0.026 C 
ATOM     19  C   UNL A   1     -11.696  -2.234  39.991  0.00  0.00    +0.031 C 
ENDBRANCH  16  17
ENDBRANCH  14  15
ENDBRANCH   6  14
TORSDOF 5
ENDMDL
ENDMDL
