REMARK  Name = No_2784-gen_results/8p0m/2024-11-26-14-13-15/
REMARK  5 active torsions:
REMARK  status: ('A' for Active; 'I' for Inactive)
REMARK    1  A    between atoms: C_2  and  C_11
REMARK    2  A    between atoms: C_3  and  C_7
REMARK    3  A    between atoms: C_6  and  C_14
REMARK    4  A    between atoms: C_14  and  C_15
REMARK    5  A    between atoms: C_16  and  C_17
REMARK                            x       y       z     vdW  Elec       q    Type
REMARK                         _______ _______ _______ _____ _____    ______ ____
ROOT
ATOM      1  C   UNL A   1     -28.016  -0.814  28.878  0.00  0.00    +0.010 A 
ATOM      2  C   UNL A   1     -28.469  -0.785  29.829  0.00  0.00    +0.079 A 
ATOM      3  C   UNL A   1     -27.136   0.236  28.535  0.00  0.00    +0.071 A 
ATOM      4  C   UNL A   1     -26.875   1.282  29.398  0.00  0.00    -0.000 A 
ATOM      5  C   UNL A   1     -28.361   0.199  30.924  0.00  0.00    +0.003 A 
ATOM      6  C   UNL A   1     -27.528   1.223  30.636  0.00  0.00    -0.018 A 
ENDROOT
BRANCH   3   7
ATOM      7  C   UNL A   1     -26.388   0.291  27.233  0.00  0.00    +0.419 C 
ATOM      8  F   UNL A   1     -25.779  -0.523  27.034  0.00  0.00    -0.166 F 
ATOM      9  F   UNL A   1     -25.603   1.460  27.104  0.00  0.00    -0.166 F 
ATOM     10  F   UNL A   1     -27.376   0.523  26.201  0.00  0.00    -0.166 F 
ENDBRANCH   3   7
BRANCH   2  11
ATOM     11  C   UNL A   1     -29.396  -2.022  30.320  0.00  0.00    +0.388 C 
ATOM     12  O   UNL A   1     -30.468  -2.033  30.056  0.00  0.00    -0.241 OA
ATOM     13  O   UNL A   1     -28.896  -2.799  31.318  0.00  0.00    -0.241 OA
ENDBRANCH   2  11
BRANCH   6  14
ATOM     14  C   UNL A   1     -27.267   2.330  31.608  0.00  0.00    +0.052 C 
BRANCH  14  15
ATOM     15  C   UNL A   1     -27.177   3.435  31.574  0.00  0.00    -0.021 C 
ATOM     16  C   UNL A   1     -27.397   4.174  30.338  0.00  0.00    -0.005 C 
BRANCH  16  17
ATOM     17  C   UNL A   1     -28.090   3.831  29.441  0.00  0.00    -0.005 C 
ATOM     18  C   UNL A   1     -28.334   4.698  28.261  0.00  0.00    -0.026 C 
ATOM     19  C   UNL A   1     -27.497   5.764  28.145  0.00  0.00    +0.031 C 
ENDBRANCH  16  17
ENDBRANCH  14  15
ENDBRANCH   6  14
TORSDOF 5
