REMARK  Name = No_2785-gen_results/8p0m/2024-11-26-14-13-15/
REMARK  6 active torsions:
REMARK  status: ('A' for Active; 'I' for Inactive)
REMARK    1  A    between atoms: C_2  and  C_17
REMARK    2  A    between atoms: C_3  and  C_8
REMARK    3  A    between atoms: C_9  and  C_14
REMARK    4  A    between atoms: C_20  and  C_21
REMARK    5  A    between atoms: N_25  and  C_26
REMARK    6  A    between atoms: C_26  and  C_27
REMARK                            x       y       z     vdW  Elec       q    Type
REMARK                         _______ _______ _______ _____ _____    ______ ____
ROOT
ATOM      1  C   UNL A   1     -28.016  -0.814  28.878  0.00  0.00    +0.030 A 
ATOM      2  C   UNL A   1     -27.064  -0.119  28.608  0.00  0.00    +0.002 A 
ATOM      3  C   UNL A   1     -25.765  -0.390  29.036  0.00  0.00    +0.000 A 
ATOM      4  C   UNL A   1     -25.530  -1.530  29.901  0.00  0.00    +0.002 A 
ATOM      5  C   UNL A   1     -26.689  -2.289  30.181  0.00  0.00    +0.030 A 
ATOM      6  C   UNL A   1     -27.873  -1.951  29.737  0.00  0.00    +0.140 A 
ATOM      7  F   UNL A   1     -28.898  -2.721  30.073  0.00  0.00    -0.204 F 
ENDROOT
BRANCH   3   8
ATOM      8  C   UNL A   1     -24.405   0.245  28.809  0.00  0.00    +0.006 A 
ATOM      9  C   UNL A   1     -24.056   1.338  29.539  0.00  0.00    +0.080 A 
ATOM     10  C   UNL A   1     -22.888   2.108  29.181  0.00  0.00    +0.007 A 
ATOM     11  C   UNL A   1     -22.108   1.707  28.036  0.00  0.00    +0.000 A 
ATOM     12  C   UNL A   1     -22.584   0.698  27.255  0.00  0.00    +0.000 A 
ATOM     13  C   UNL A   1     -23.696   0.049  27.596  0.00  0.00    +0.000 A 
BRANCH   9  14
ATOM     14  C   UNL A   1     -24.751   1.719  30.808  0.00  0.00    +0.388 C 
ATOM     15  O   UNL A   1     -24.929   1.001  31.696  0.00  0.00    -0.241 OA
ATOM     16  O   UNL A   1     -25.151   3.003  30.808  0.00  0.00    -0.241 OA
ENDBRANCH   9  14
ENDBRANCH   3   8
BRANCH   2  17
ATOM     17  C   UNL A   1     -27.148   1.121  27.700  0.00  0.00    +0.004 A 
ATOM     18  C   UNL A   1     -26.769   1.600  26.869  0.00  0.00    +0.000 A 
ATOM     19  C   UNL A   1     -26.956   2.827  26.302  0.00  0.00    +0.000 A 
ATOM     20  C   UNL A   1     -28.314   2.054  28.280  0.00  0.00    +0.055 A 
ATOM     21  C   UNL A   1     -28.541   3.232  27.717  0.00  0.00    +0.005 A 
ATOM     22  C   UNL A   1     -27.858   3.675  26.721  0.00  0.00    +0.000 A 
BRANCH  20  23
ATOM     23  C   UNL A   1     -29.106   1.628  29.475  0.00  0.00    +0.265 C 
ATOM     24  O   UNL A   1     -30.108   1.015  29.526  0.00  0.00    -0.268 OA
ATOM     25  N   UNL A   1     -28.551   2.154  30.733  0.00  0.00    -0.197 NA
BRANCH  25  26
ATOM     26  C   UNL A   1     -29.182   1.935  31.995  0.00  0.00    +0.142 C 
BRANCH  26  27
ATOM     27  C   UNL A   1     -28.353   2.024  32.973  0.00  0.00    -0.001 A 
ATOM     28  C   UNL A   1     -28.032   0.927  33.808  0.00  0.00    -0.003 A 
ATOM     29  C   UNL A   1     -26.997   0.952  34.816  0.00  0.00    -0.000 A 
ATOM     30  C   UNL A   1     -26.392   2.195  34.985  0.00  0.00    -0.000 A 
ATOM     31  C   UNL A   1     -26.640   3.300  34.192  0.00  0.00    -0.000 A 
ATOM     32  C   UNL A   1     -27.586   3.192  33.176  0.00  0.00    -0.003 A 
ENDBRANCH  26  27
ENDBRANCH  25  26
ENDBRANCH  20  23
ENDBRANCH   2  17
TORSDOF 6
