MODEL 2785
MODEL 1
REMARK VINA RESULT:    -6.994      0.000      0.000
REMARK INTER + INTRA:         -12.886
REMARK INTER:                  -9.447
REMARK INTRA:                  -3.439
REMARK UNBOUND:                -3.439
REMARK  Name = No_2785-gen_results/8p0m/2024-11-26-14-13-15/
REMARK  6 active torsions:
REMARK  status: ('A' for Active; 'I' for Inactive)
REMARK    1  A    between atoms: C_2  and  C_17
REMARK    2  A    between atoms: C_3  and  C_8
REMARK    3  A    between atoms: C_9  and  C_14
REMARK    4  A    between atoms: C_20  and  C_21
REMARK    5  A    between atoms: N_25  and  C_26
REMARK    6  A    between atoms: C_26  and  C_27
REMARK                            x       y       z     vdW  Elec       q    Type
REMARK                         _______ _______ _______ _____ _____    ______ ____
ROOT
ATOM      1  C   UNL A   1      -9.989   3.490  37.705  0.00  0.00    +0.030 A 
ATOM      2  C   UNL A   1     -10.784   2.582  37.782  0.00  0.00    +0.002 A 
ATOM      3  C   UNL A   1     -10.429   1.269  38.087  0.00  0.00    +0.000 A 
ATOM      4  C   UNL A   1      -9.028   0.940  38.268  0.00  0.00    +0.002 A 
ATOM      5  C   UNL A   1      -8.157   2.048  38.154  0.00  0.00    +0.030 A 
ATOM      6  C   UNL A   1      -8.585   3.249  37.858  0.00  0.00    +0.140 A 
ATOM      7  F   UNL A   1      -7.683   4.215  37.756  0.00  0.00    -0.204 F 
ENDROOT
BRANCH   3   8
ATOM      8  C   UNL A   1     -11.190  -0.026  38.309  0.00  0.00    +0.006 A 
ATOM      9  C   UNL A   1     -11.588  -0.351  39.568  0.00  0.00    +0.080 A 
ATOM     10  C   UNL A   1     -12.089  -1.676  39.852  0.00  0.00    +0.007 A 
ATOM     11  C   UNL A   1     -12.150  -2.645  38.786  0.00  0.00    +0.000 A 
ATOM     12  C   UNL A   1     -11.602  -2.315  37.584  0.00  0.00    +0.000 A 
ATOM     13  C   UNL A   1     -11.103  -1.097  37.382  0.00  0.00    +0.000 A 
BRANCH   9  14
ATOM     14  C   UNL A   1     -11.669   0.651  40.675  0.00  0.00    +0.388 C 
ATOM     15  O   UNL A   1     -12.592   1.312  40.892  0.00  0.00    -0.241 OA
ATOM     16  O   UNL A   1     -10.539   0.703  41.403  0.00  0.00    -0.241 OA
ENDBRANCH   9  14
ENDBRANCH   3   8
BRANCH   2  17
ATOM     17  C   UNL A   1     -12.303   2.768  37.620  0.00  0.00    +0.004 A 
ATOM     18  C   UNL A   1     -13.212   2.848  38.102  0.00  0.00    +0.000 A 
ATOM     19  C   UNL A   1     -14.512   2.900  37.692  0.00  0.00    +0.000 A 
ATOM     20  C   UNL A   1     -12.599   2.902  36.051  0.00  0.00    +0.055 A 
ATOM     21  C   UNL A   1     -13.853   2.996  35.634  0.00  0.00    +0.005 A 
ATOM     22  C   UNL A   1     -14.860   2.977  36.434  0.00  0.00    +0.000 A 
BRANCH  20  23
ATOM     23  C   UNL A   1     -11.479   2.868  35.060  0.00  0.00    +0.265 C 
ATOM     24  O   UNL A   1     -10.987   3.752  34.460  0.00  0.00    -0.268 OA
ATOM     25  N   UNL A   1     -11.026   1.498  34.770  0.00  0.00    -0.197 NA
BRANCH  25  26
ATOM     26  C   UNL A   1     -10.016   1.218  33.801  0.00  0.00    +0.142 C 
BRANCH  26  27
ATOM     27  C   UNL A   1      -8.859   1.064  34.339  0.00  0.00    -0.001 A 
ATOM     28  C   UNL A   1      -8.388  -0.188  34.803  0.00  0.00    -0.003 A 
ATOM     29  C   UNL A   1      -7.042  -0.425  35.271  0.00  0.00    -0.000 A 
ATOM     30  C   UNL A   1      -6.249   0.718  35.336  0.00  0.00    -0.000 A 
ATOM     31  C   UNL A   1      -6.635   1.965  34.880  0.00  0.00    -0.000 A 
ATOM     32  C   UNL A   1      -7.916   2.115  34.355  0.00  0.00    -0.003 A 
ENDBRANCH  26  27
ENDBRANCH  25  26
ENDBRANCH  20  23
ENDBRANCH   2  17
TORSDOF 6
ENDMDL
ENDMDL
