REMARK  Name = No_2786-gen_results/8p0m/2024-11-26-14-13-15/
REMARK  1 active torsions:
REMARK  status: ('A' for Active; 'I' for Inactive)
REMARK    1  A    between atoms: C_9  and  N_13
REMARK                            x       y       z     vdW  Elec       q    Type
REMARK                         _______ _______ _______ _____ _____    ______ ____
ROOT
ATOM      1  C   UNL A   1     -28.016  -0.814  28.878  0.00  0.00    +0.037 A 
ATOM      2  C   UNL A   1     -27.064  -0.119  28.608  0.00  0.00    -0.022 A 
ATOM      3  C   UNL A   1     -25.792  -0.430  29.076  0.00  0.00    -0.020 A 
ATOM      4  C   UNL A   1     -25.576  -1.565  29.936  0.00  0.00    -0.001 A 
ATOM      5  C   UNL A   1     -26.735  -2.300  30.217  0.00  0.00    +0.042 A 
ATOM      6  C   UNL A   1     -27.918  -1.954  29.763  0.00  0.00    +0.195 A 
ATOM      7  O   UNL A   1     -29.000  -2.701  30.115  0.00  0.00    -0.287 OA
ATOM      8  C   UNL A   1     -24.529   0.349  28.800  0.00  0.00    +0.068 C 
ATOM      9  C   UNL A   1     -24.481   1.211  27.800  0.00  0.00    +0.043 C 
ATOM     10  C   UNL A   1     -24.978   1.680  27.052  0.00  0.00    -0.014 C 
ATOM     11  C   UNL A   1     -26.375   1.283  26.791  0.00  0.00    +0.032 C 
ATOM     12  C   UNL A   1     -27.147   0.566  27.576  0.00  0.00    +0.031 C 
ENDROOT
BRANCH   9  13
ATOM     13  N   UNL A   1     -22.934   1.696  27.881  0.00  0.00    -0.240 NA
ATOM     14  C   UNL A   1     -22.559   2.067  26.623  0.00  0.00    +0.135 C 
ENDBRANCH   9  13
TORSDOF 1
