MODEL 2786
MODEL 1
REMARK VINA RESULT:    -5.893      0.000      0.000
REMARK INTER + INTRA:          -6.294
REMARK INTER:                  -6.238
REMARK INTRA:                  -0.056
REMARK UNBOUND:                -0.056
REMARK  Name = No_2786-gen_results/8p0m/2024-11-26-14-13-15/
REMARK  1 active torsions:
REMARK  status: ('A' for Active; 'I' for Inactive)
REMARK    1  A    between atoms: C_9  and  N_13
REMARK                            x       y       z     vdW  Elec       q    Type
REMARK                         _______ _______ _______ _____ _____    ______ ____
ROOT
ATOM      1  C   UNL A   1     -22.701   1.847  27.059  0.00  0.00    +0.037 A 
ATOM      2  C   UNL A   1     -22.999   0.920  27.776  0.00  0.00    -0.022 A 
ATOM      3  C   UNL A   1     -24.061   0.080  27.458  0.00  0.00    -0.020 A 
ATOM      4  C   UNL A   1     -24.869   0.316  26.290  0.00  0.00    -0.001 A 
ATOM      5  C   UNL A   1     -24.469   1.424  25.531  0.00  0.00    +0.042 A 
ATOM      6  C   UNL A   1     -23.467   2.197  25.883  0.00  0.00    +0.195 A 
ATOM      7  O   UNL A   1     -23.168   3.276  25.110  0.00  0.00    -0.287 OA
ATOM      8  C   UNL A   1     -24.522  -1.111  28.262  0.00  0.00    +0.068 C 
ATOM      9  C   UNL A   1     -23.728  -1.654  29.167  0.00  0.00    +0.043 C 
ATOM     10  C   UNL A   1     -22.845  -1.614  29.663  0.00  0.00    -0.014 C 
ATOM     11  C   UNL A   1     -21.870  -0.582  29.262  0.00  0.00    +0.032 C 
ATOM     12  C   UNL A   1     -22.103   0.465  28.504  0.00  0.00    +0.031 C 
ENDROOT
BRANCH   9  13
ATOM     13  N   UNL A   1     -24.633  -2.907  29.665  0.00  0.00    -0.240 NA
ATOM     14  C   UNL A   1     -24.265  -3.992  28.925  0.00  0.00    +0.135 C 
ENDBRANCH   9  13
TORSDOF 1
ENDMDL
ENDMDL
