REMARK  Name = No_2787-gen_results/8p0m/2024-11-26-14-13-15/
REMARK  8 active torsions:
REMARK  status: ('A' for Active; 'I' for Inactive)
REMARK    1  A    between atoms: C_3  and  C_7
REMARK    2  A    between atoms: C_6  and  O_11
REMARK    3  A    between atoms: O_11  and  C_12
REMARK    4  A    between atoms: C_12  and  C_13
REMARK    5  A    between atoms: N_15  and  C_17
REMARK    6  A    between atoms: C_18  and  C_19
REMARK    7  A    between atoms: C_19  and  C_20
REMARK    8  A    between atoms: C_21  and  C_22
REMARK                            x       y       z     vdW  Elec       q    Type
REMARK                         _______ _______ _______ _____ _____    ______ ____
ROOT
ATOM      1  C   UNL A   1     -30.033  -2.236  30.578  0.00  0.00    +0.290 C 
ENDROOT
BRANCH   1   2
ATOM      2  C   UNL A   1     -30.522  -2.895  31.690  0.00  0.00    +0.274 C 
ATOM      3  O   UNL A   1     -29.872  -3.598  32.348  0.00  0.00    -0.271 OA
ATOM      4  N   UNL A   1     -31.855  -2.710  32.058  0.00  0.00    -0.253 N 
ATOM      5  C   UNL A   1     -32.474  -3.362  33.209  0.00  0.00    +0.120 C 
BRANCH   4   6
ATOM      6  C   UNL A   1     -32.715  -1.768  31.349  0.00  0.00    +0.063 C 
ATOM      7  C   UNL A   1     -33.688  -2.245  30.800  0.00  0.00    -0.005 C 
BRANCH   7   8
ATOM      8  C   UNL A   1     -33.723  -2.684  29.604  0.00  0.00    +0.053 C 
BRANCH   8   9
ATOM      9  C   UNL A   1     -34.839  -3.283  28.906  0.00  0.00    -0.026 C 
ATOM     10  C   UNL A   1     -35.984  -3.319  29.568  0.00  0.00    -0.030 C 
BRANCH  10  11
ATOM     11  C   UNL A   1     -36.062  -2.824  30.858  0.00  0.00    +0.026 C 
ATOM     12  C   UNL A   1     -34.969  -2.270  31.504  0.00  0.00    +0.005 C 
ENDBRANCH  10  11
ENDBRANCH   8   9
ENDBRANCH   7   8
ENDBRANCH   4   6
ENDBRANCH   1   2
BRANCH   1  13
ATOM     13  O   UNL A   1     -28.936  -2.704  30.145  0.00  0.00    -0.466 OA
BRANCH  13  19
ATOM     14  C   UNL A   1     -28.016  -0.814  28.878  0.00  0.00    +0.037 A 
ATOM     15  C   UNL A   1     -27.064  -0.119  28.608  0.00  0.00    +0.007 A 
ATOM     16  C   UNL A   1     -25.765  -0.390  29.036  0.00  0.00    +0.072 A 
ATOM     17  C   UNL A   1     -25.530  -1.530  29.901  0.00  0.00    +0.007 A 
ATOM     18  C   UNL A   1     -26.658  -2.292  30.203  0.00  0.00    +0.037 A 
ATOM     19  C   UNL A   1     -27.855  -1.956  29.763  0.00  0.00    +0.139 A 
BRANCH  16  20
ATOM     20  C   UNL A   1     -24.535   0.413  28.743  0.00  0.00    +0.419 C 
ATOM     21  F   UNL A   1     -23.519  -0.279  28.720  0.00  0.00    -0.166 F 
ATOM     22  F   UNL A   1     -24.316   1.315  29.711  0.00  0.00    -0.166 F 
ATOM     23  F   UNL A   1     -24.673   1.127  27.626  0.00  0.00    -0.166 F 
ENDBRANCH  16  20
ENDBRANCH  13  19
ENDBRANCH   1  13
TORSDOF 8
