MODEL 2787
MODEL 1
REMARK VINA RESULT:    -5.362      0.000      0.000
REMARK INTER + INTRA:         -10.492
REMARK INTER:                  -7.870
REMARK INTRA:                  -2.622
REMARK UNBOUND:                -2.622
REMARK  Name = No_2787-gen_results/8p0m/2024-11-26-14-13-15/
REMARK  8 active torsions:
REMARK  status: ('A' for Active; 'I' for Inactive)
REMARK    1  A    between atoms: C_3  and  C_7
REMARK    2  A    between atoms: C_6  and  O_11
REMARK    3  A    between atoms: O_11  and  C_12
REMARK    4  A    between atoms: C_12  and  C_13
REMARK    5  A    between atoms: N_15  and  C_17
REMARK    6  A    between atoms: C_18  and  C_19
REMARK    7  A    between atoms: C_19  and  C_20
REMARK    8  A    between atoms: C_21  and  C_22
REMARK                            x       y       z     vdW  Elec       q    Type
REMARK                         _______ _______ _______ _____ _____    ______ ____
ROOT
ATOM      1  C   UNL A   1     -26.559   0.631  33.272  0.00  0.00    +0.290 C 
ENDROOT
BRANCH   1   2
ATOM      2  C   UNL A   1     -27.427  -0.409  33.547  0.00  0.00    +0.274 C 
ATOM      3  O   UNL A   1     -27.729  -0.716  34.626  0.00  0.00    -0.271 OA
ATOM      4  N   UNL A   1     -27.982  -1.128  32.488  0.00  0.00    -0.253 N 
ATOM      5  C   UNL A   1     -28.903  -2.248  32.665  0.00  0.00    +0.120 C 
BRANCH   4   6
ATOM      6  C   UNL A   1     -27.737  -0.748  31.100  0.00  0.00    +0.063 C 
ATOM      7  C   UNL A   1     -27.497  -1.659  30.333  0.00  0.00    -0.005 C 
BRANCH   7   8
ATOM      8  C   UNL A   1     -26.339  -2.125  30.075  0.00  0.00    +0.053 C 
BRANCH   8   9
ATOM      9  C   UNL A   1     -25.542  -1.924  28.886  0.00  0.00    -0.026 C 
ATOM     10  C   UNL A   1     -24.687  -2.891  28.592  0.00  0.00    -0.030 C 
BRANCH  10  11
ATOM     11  C   UNL A   1     -24.576  -4.000  29.412  0.00  0.00    +0.026 C 
ATOM     12  C   UNL A   1     -24.831  -5.283  28.957  0.00  0.00    +0.005 C 
ENDBRANCH  10  11
ENDBRANCH   8   9
ENDBRANCH   7   8
ENDBRANCH   4   6
ENDBRANCH   1   2
BRANCH   1  13
ATOM     13  O   UNL A   1     -25.334   0.319  33.382  0.00  0.00    -0.466 OA
BRANCH  13  19
ATOM     14  C   UNL A   1     -23.516  -0.921  32.296  0.00  0.00    +0.037 A 
ATOM     15  C   UNL A   1     -22.799  -1.069  31.333  0.00  0.00    +0.007 A 
ATOM     16  C   UNL A   1     -22.754  -0.178  30.261  0.00  0.00    +0.072 A 
ATOM     17  C   UNL A   1     -23.650   0.962  30.253  0.00  0.00    +0.007 A 
ATOM     18  C   UNL A   1     -24.473   1.082  31.372  0.00  0.00    +0.037 A 
ATOM     19  C   UNL A   1     -24.458   0.185  32.338  0.00  0.00    +0.139 A 
BRANCH  16  20
ATOM     20  C   UNL A   1     -21.895  -0.284  29.039  0.00  0.00    +0.419 C 
ATOM     21  F   UNL A   1     -20.893   0.425  29.109  0.00  0.00    -0.166 F 
ATOM     22  F   UNL A   1     -22.554   0.156  27.957  0.00  0.00    -0.166 F 
ATOM     23  F   UNL A   1     -21.586  -1.552  28.767  0.00  0.00    -0.166 F 
ENDBRANCH  16  20
ENDBRANCH  13  19
ENDBRANCH   1  13
TORSDOF 8
ENDMDL
ENDMDL
