MODEL 2788
MODEL 1
REMARK VINA RESULT:    -4.886      0.000      0.000
REMARK INTER + INTRA:          -5.640
REMARK INTER:                  -5.457
REMARK INTRA:                  -0.182
REMARK UNBOUND:                -0.182
REMARK  Name = No_2788-gen_results/8p0m/2024-11-26-14-13-15/
REMARK  2 active torsions:
REMARK  status: ('A' for Active; 'I' for Inactive)
REMARK    1  A    between atoms: C_2  and  C_7
REMARK    2  A    between atoms: C_7  and  C_8
REMARK                            x       y       z     vdW  Elec       q    Type
REMARK                         _______ _______ _______ _____ _____    ______ ____
ROOT
ATOM      1  C   UNL A   1     -23.848  -3.498  28.649  0.00  0.00    -0.004 A 
ATOM      2  C   UNL A   1     -24.619  -2.694  29.118  0.00  0.00    -0.018 A 
ATOM      3  C   UNL A   1     -25.821  -3.098  29.689  0.00  0.00    -0.004 A 
ATOM      4  C   UNL A   1     -26.206  -4.486  29.699  0.00  0.00    -0.000 A 
ATOM      5  C   UNL A   1     -25.267  -5.346  29.114  0.00  0.00    -0.000 A 
ATOM      6  C   UNL A   1     -24.153  -4.910  28.572  0.00  0.00    -0.000 A 
ENDROOT
BRANCH   2   7
ATOM      7  C   UNL A   1     -24.399  -1.223  29.170  0.00  0.00    +0.052 C 
BRANCH   7   8
ATOM      8  C   UNL A   1     -23.332  -0.655  28.731  0.00  0.00    -0.021 C 
ATOM      9  C   UNL A   1     -22.254  -0.352  29.682  0.00  0.00    -0.005 C 
ENDBRANCH   7   8
ENDBRANCH   2   7
TORSDOF 2
ENDMDL
ENDMDL
