MODEL 2789
MODEL 1
REMARK VINA RESULT:    -5.847      0.000      0.000
REMARK INTER + INTRA:         -15.849
REMARK INTER:                  -9.949
REMARK INTRA:                  -5.900
REMARK UNBOUND:                -5.900
REMARK  Name = No_2789-gen_results/8p0m/2024-11-26-14-13-15/
REMARK  12 active torsions:
REMARK  status: ('A' for Active; 'I' for Inactive)
REMARK    1  A    between atoms: C_2  and  C_10
REMARK    2  A    between atoms: C_4  and  C_7
REMARK    3  A    between atoms: C_7  and  O_9
REMARK    4  A    between atoms: O_9  and  C_13
REMARK    5  A    between atoms: C_13  and  C_14
REMARK    6  A    between atoms: C_14  and  O_15
REMARK    7  A    between atoms: O_15  and  C_16
REMARK    8  A    between atoms: C_17  and  C_18
REMARK    9  A    between atoms: C_18  and  C_19
REMARK   10  A    between atoms: C_20  and  C_21
REMARK   11  A    between atoms: C_22  and  C_23
REMARK   12  A    between atoms: C_26  and  C_29
REMARK                            x       y       z     vdW  Elec       q    Type
REMARK                         _______ _______ _______ _____ _____    ______ ____
ROOT
ATOM      1  C   UNL A   1     -26.070  -0.183  32.383  0.00  0.00    +0.164 C 
ATOM      2  C   UNL A   1     -25.243  -1.084  31.586  0.00  0.00    -0.003 C 
ATOM      3  C   UNL A   1     -25.771  -1.893  30.548  0.00  0.00    +0.030 C 
ENDROOT
BRANCH   1   4
ATOM      4  O   UNL A   1     -25.377   0.990  32.797  0.00  0.00    -0.469 OA
BRANCH   4   5
ATOM      5  C   UNL A   1     -25.748   1.997  32.701  0.00  0.00    +0.253 C 
BRANCH   5   6
ATOM      6  C   UNL A   1     -24.871   2.899  31.902  0.00  0.00    +0.256 C 
BRANCH   6   7
ATOM      7  O   UNL A   1     -24.937   2.584  30.542  0.00  0.00    -0.441 OA
BRANCH   7   8
ATOM      8  C   UNL A   1     -25.720   3.327  29.748  0.00  0.00    +0.341 C 
ATOM      9  O   UNL A   1     -25.370   4.286  29.326  0.00  0.00    -0.245 OA
BRANCH   8  13
ATOM     10  C   UNL A   1     -28.261   0.655  28.649  0.00  0.00    +0.007 A 
ATOM     11  C   UNL A   1     -28.833   1.294  28.036  0.00  0.00    +0.080 A 
ATOM     12  C   UNL A   1     -27.052   1.289  29.299  0.00  0.00    +0.007 A 
ATOM     13  C   UNL A   1     -26.849   2.680  29.173  0.00  0.00    +0.076 A 
ATOM     14  C   UNL A   1     -28.859   2.750  27.768  0.00  0.00    +0.007 A 
ATOM     15  C   UNL A   1     -27.765   3.369  28.356  0.00  0.00    +0.007 A 
BRANCH  11  16
ATOM     16  C   UNL A   1     -30.147   0.633  27.336  0.00  0.00    +0.388 C 
ATOM     17  O   UNL A   1     -30.498  -0.522  27.637  0.00  0.00    -0.241 OA
ATOM     18  O   UNL A   1     -30.795   1.366  26.586  0.00  0.00    -0.241 OA
ENDBRANCH  11  16
ENDBRANCH   8  13
ENDBRANCH   7   8
ENDBRANCH   6   7
ENDBRANCH   5   6
ENDBRANCH   4   5
ENDBRANCH   1   4
BRANCH   2  19
ATOM     19  C   UNL A   1     -23.948  -1.131  31.885  0.00  0.00    +0.051 C 
BRANCH  19  20
ATOM     20  C   UNL A   1     -23.012  -1.019  30.820  0.00  0.00    -0.022 C 
ATOM     21  C   UNL A   1     -22.623   0.180  30.215  0.00  0.00    -0.004 C 
BRANCH  21  22
ATOM     22  C   UNL A   1     -21.980   0.002  28.923  0.00  0.00    -0.000 C 
ATOM     23  C   UNL A   1     -22.281   1.065  28.098  0.00  0.00    -0.000 C 
BRANCH  23  24
ATOM     24  C   UNL A   1     -23.563   1.073  27.376  0.00  0.00    -0.000 A 
ATOM     25  C   UNL A   1     -24.222  -0.067  27.144  0.00  0.00    -0.000 A 
ATOM     26  C   UNL A   1     -25.444  -0.073  26.399  0.00  0.00    +0.000 A 
ATOM     27  C   UNL A   1     -25.814   1.165  25.833  0.00  0.00    +0.000 A 
ATOM     28  C   UNL A   1     -24.057   2.177  26.651  0.00  0.00    -0.000 A 
ATOM     29  C   UNL A   1     -25.105   2.199  25.888  0.00  0.00    +0.000 A 
BRANCH  27  30
ATOM     30  C   UNL A   1     -27.084   1.098  24.973  0.00  0.00    +0.000 A 
ATOM     31  C   UNL A   1     -27.547  -0.063  24.658  0.00  0.00    +0.000 A 
ATOM     32  C   UNL A   1     -28.662  -0.155  23.823  0.00  0.00    +0.000 A 
ATOM     33  C   UNL A   1     -29.314   1.052  23.344  0.00  0.00    +0.000 A 
ATOM     34  C   UNL A   1     -28.821   2.287  23.634  0.00  0.00    +0.000 A 
ATOM     35  C   UNL A   1     -27.700   2.376  24.486  0.00  0.00    +0.000 A 
ENDBRANCH  27  30
ENDBRANCH  23  24
ENDBRANCH  21  22
ENDBRANCH  19  20
ENDBRANCH   2  19
TORSDOF 12
ENDMDL
ENDMDL
