REMARK  Name = No_2789-gen_results/8p0m/2024-11-26-14-13-15/
REMARK  12 active torsions:
REMARK  status: ('A' for Active; 'I' for Inactive)
REMARK    1  A    between atoms: C_2  and  C_10
REMARK    2  A    between atoms: C_4  and  C_7
REMARK    3  A    between atoms: C_7  and  O_9
REMARK    4  A    between atoms: O_9  and  C_13
REMARK    5  A    between atoms: C_13  and  C_14
REMARK    6  A    between atoms: C_14  and  O_15
REMARK    7  A    between atoms: O_15  and  C_16
REMARK    8  A    between atoms: C_17  and  C_18
REMARK    9  A    between atoms: C_18  and  C_19
REMARK   10  A    between atoms: C_20  and  C_21
REMARK   11  A    between atoms: C_22  and  C_23
REMARK   12  A    between atoms: C_26  and  C_29
REMARK                            x       y       z     vdW  Elec       q    Type
REMARK                         _______ _______ _______ _____ _____    ______ ____
ROOT
ATOM      1  C   UNL A   1     -23.612   2.340  27.733  0.00  0.00    +0.164 C 
ATOM      2  C   UNL A   1     -24.250   2.701  26.470  0.00  0.00    -0.003 C 
ATOM      3  C   UNL A   1     -24.874   3.956  26.257  0.00  0.00    +0.030 C 
ENDROOT
BRANCH   1   4
ATOM      4  O   UNL A   1     -22.490   1.479  27.564  0.00  0.00    -0.469 OA
BRANCH   4   5
ATOM      5  C   UNL A   1     -21.877   1.095  28.363  0.00  0.00    +0.253 C 
BRANCH   5   6
ATOM      6  C   UNL A   1     -22.440  -0.105  29.043  0.00  0.00    +0.256 C 
BRANCH   6   7
ATOM      7  O   UNL A   1     -23.782   0.096  29.380  0.00  0.00    -0.441 OA
BRANCH   7   8
ATOM      8  C   UNL A   1     -24.389  -0.805  30.164  0.00  0.00    +0.341 C 
ATOM      9  O   UNL A   1     -23.866  -1.278  31.013  0.00  0.00    -0.245 OA
BRANCH   8  13
ATOM     10  C   UNL A   1     -28.016  -0.814  28.878  0.00  0.00    +0.007 A 
ATOM     11  C   UNL A   1     -28.469  -0.785  29.829  0.00  0.00    +0.080 A 
ATOM     12  C   UNL A   1     -26.504  -0.778  28.877  0.00  0.00    +0.007 A 
ATOM     13  C   UNL A   1     -25.810  -0.853  30.103  0.00  0.00    +0.076 A 
ATOM     14  C   UNL A   1     -27.991  -0.892  31.226  0.00  0.00    +0.007 A 
ATOM     15  C   UNL A   1     -26.604  -0.868  31.265  0.00  0.00    +0.007 A 
BRANCH  11  16
ATOM     16  C   UNL A   1     -30.097  -0.836  29.852  0.00  0.00    +0.388 C 
ATOM     17  O   UNL A   1     -30.727  -0.226  30.735  0.00  0.00    -0.241 OA
ATOM     18  O   UNL A   1     -30.640  -1.422  28.913  0.00  0.00    -0.241 OA
ENDBRANCH  11  16
ENDBRANCH   8  13
ENDBRANCH   7   8
ENDBRANCH   6   7
ENDBRANCH   5   6
ENDBRANCH   4   5
ENDBRANCH   1   4
BRANCH   2  19
ATOM     19  C   UNL A   1     -24.238   1.783  25.508  0.00  0.00    +0.051 C 
BRANCH  19  20
ATOM     20  C   UNL A   1     -24.913   0.555  25.748  0.00  0.00    -0.022 C 
ATOM     21  C   UNL A   1     -25.424  -0.289  24.757  0.00  0.00    -0.004 C 
BRANCH  21  22
ATOM     22  C   UNL A   1     -26.394  -1.252  25.252  0.00  0.00    -0.000 C 
ATOM     23  C   UNL A   1     -27.283  -1.580  24.250  0.00  0.00    -0.000 C 
BRANCH  23  24
ATOM     24  C   UNL A   1     -28.420  -0.687  23.978  0.00  0.00    -0.000 A 
ATOM     25  C   UNL A   1     -28.431   0.565  24.447  0.00  0.00    -0.000 A 
ATOM     26  C   UNL A   1     -29.555   1.423  24.228  0.00  0.00    +0.000 A 
ATOM     27  C   UNL A   1     -30.670   0.816  23.613  0.00  0.00    +0.000 A 
ATOM     28  C   UNL A   1     -29.662  -1.119  23.469  0.00  0.00    -0.000 A 
ATOM     29  C   UNL A   1     -30.737  -0.406  23.338  0.00  0.00    +0.000 A 
BRANCH  27  30
ATOM     30  C   UNL A   1     -31.883   1.747  23.473  0.00  0.00    +0.000 A 
ATOM     31  C   UNL A   1     -32.983   1.409  24.054  0.00  0.00    +0.000 A 
ATOM     32  C   UNL A   1     -34.119   2.202  23.889  0.00  0.00    +0.000 A 
ATOM     33  C   UNL A   1     -34.049   3.419  23.098  0.00  0.00    +0.000 A 
ATOM     34  C   UNL A   1     -32.909   3.776  22.446  0.00  0.00    +0.000 A 
ATOM     35  C   UNL A   1     -31.760   2.977  22.623  0.00  0.00    +0.000 A 
ENDBRANCH  27  30
ENDBRANCH  23  24
ENDBRANCH  21  22
ENDBRANCH  19  20
ENDBRANCH   2  19
TORSDOF 12
