MODEL 278
MODEL 1
REMARK VINA RESULT:    -7.122      0.000      0.000
REMARK INTER + INTRA:         -10.402
REMARK INTER:                  -9.204
REMARK INTRA:                  -1.198
REMARK UNBOUND:                -1.198
REMARK  Name = No_278-gen_results/8p0m/2024-11-26-14-13-15/
REMARK  5 active torsions:
REMARK  status: ('A' for Active; 'I' for Inactive)
REMARK    1  A    between atoms: C_2  and  N_16
REMARK    2  A    between atoms: C_3  and  C_8
REMARK    3  A    between atoms: C_10  and  O_14
REMARK    4  A    between atoms: C_20  and  C_22
REMARK    5  A    between atoms: C_22  and  C_24
REMARK                            x       y       z     vdW  Elec       q    Type
REMARK                         _______ _______ _______ _____ _____    ______ ____
ROOT
ATOM      1  C   UNL A   1     -23.361   0.747  27.871  0.00  0.00    +0.026 A 
ATOM      2  C   UNL A   1     -24.487   0.644  27.444  0.00  0.00    +0.049 A 
ATOM      3  C   UNL A   1     -24.910   1.203  26.239  0.00  0.00    +0.013 A 
ATOM      4  C   UNL A   1     -23.979   2.005  25.468  0.00  0.00    +0.002 A 
ATOM      5  C   UNL A   1     -22.686   2.088  26.032  0.00  0.00    +0.011 A 
ATOM      6  C   UNL A   1     -22.384   1.532  27.178  0.00  0.00    +0.059 A 
ATOM      7 CL   UNL A   1     -20.800   1.781  27.772  0.00  0.00    -0.082 Cl
ENDROOT
BRANCH   3   8
ATOM      8  C   UNL A   1     -26.288   1.100  25.639  0.00  0.00    +0.004 A 
ATOM      9  C   UNL A   1     -26.652   0.014  24.966  0.00  0.00    +0.037 A 
ATOM     10  C   UNL A   1     -27.941  -0.033  24.334  0.00  0.00    +0.139 A 
ATOM     11  C   UNL A   1     -28.808   1.019  24.310  0.00  0.00    +0.037 A 
ATOM     12  C   UNL A   1     -27.181   2.230  25.606  0.00  0.00    +0.000 A 
ATOM     13  C   UNL A   1     -28.432   2.174  24.956  0.00  0.00    +0.003 A 
BRANCH  10  14
ATOM     14  O   UNL A   1     -28.278  -1.208  23.687  0.00  0.00    -0.471 OA
ATOM     15  C   UNL A   1     -29.629  -1.490  23.667  0.00  0.00    +0.253 C 
ENDBRANCH  10  14
ENDBRANCH   3   8
BRANCH   2  16
ATOM     16  N   UNL A   1     -25.333  -0.119  28.296  0.00  0.00    -0.307 N 
ATOM     17  C   UNL A   1     -26.409   0.212  28.909  0.00  0.00    +0.091 C 
ATOM     18  C   UNL A   1     -27.017  -0.699  29.754  0.00  0.00    +0.021 C 
ATOM     19  C   UNL A   1     -25.081  -1.612  28.324  0.00  0.00    +0.091 C 
ATOM     20  C   UNL A   1     -25.714  -2.470  29.082  0.00  0.00    +0.022 C 
ATOM     21  C   UNL A   1     -26.747  -2.043  29.818  0.00  0.00    +0.004 C 
BRANCH  20  22
ATOM     22  C   UNL A   1     -25.268  -3.892  29.117  0.00  0.00    +0.037 C 
ATOM     23  C   UNL A   1     -26.048  -4.832  29.633  0.00  0.00    +0.003 C 
BRANCH  22  24
ATOM     24  C   UNL A   1     -23.950  -4.217  28.573  0.00  0.00    +0.193 C 
ATOM     25  F   UNL A   1     -23.763  -5.260  28.042  0.00  0.00    -0.234 F 
ENDBRANCH  22  24
ENDBRANCH  20  22
ENDBRANCH   2  16
TORSDOF 5
ENDMDL
ENDMDL
