MODEL 2790
MODEL 1
REMARK VINA RESULT:    -6.488      0.000      0.000
REMARK INTER + INTRA:          -6.488
REMARK INTER:                  -6.488
REMARK INTRA:                   0.000
REMARK UNBOUND:                 0.000
REMARK  Name = No_2790-gen_results/8p0m/2024-11-26-14-13-15/
REMARK  0 active torsions:
REMARK  status: ('A' for Active; 'I' for Inactive)
REMARK                            x       y       z     vdW  Elec       q    Type
REMARK                         _______ _______ _______ _____ _____    ______ ____
ROOT
ATOM      1  C   UNL A   1     -24.205  -5.011  28.626  0.00  0.00    +0.001 A 
ATOM      2  C   UNL A   1     -25.315  -5.272  29.028  0.00  0.00    +0.000 A 
ATOM      3  C   UNL A   1     -26.153  -4.389  29.689  0.00  0.00    +0.006 A 
ATOM      4  C   UNL A   1     -25.673  -3.060  29.880  0.00  0.00    +0.068 A 
ATOM      5  C   UNL A   1     -24.498  -2.763  29.289  0.00  0.00    +0.053 A 
ATOM      6  C   UNL A   1     -23.808  -3.672  28.597  0.00  0.00    +0.015 A 
ATOM      7  N   UNL A   1     -24.229  -1.390  29.589  0.00  0.00    -0.292 N 
ATOM      8  C   UNL A   1     -23.058  -0.981  29.194  0.00  0.00    +0.092 C 
ATOM      9  C   UNL A   1     -22.613   0.279  29.764  0.00  0.00    +0.022 C 
ATOM     10  C   UNL A   1     -24.973  -0.576  30.360  0.00  0.00    +0.170 C 
ATOM     11  C   UNL A   1     -24.642   0.700  30.787  0.00  0.00    +0.043 C 
ATOM     12  C   UNL A   1     -23.376   1.115  30.402  0.00  0.00    +0.005 C 
ATOM     13  N   UNL A   1     -26.224  -1.086  30.760  0.00  0.00    -0.183 NA
ATOM     14  C   UNL A   1     -26.589  -2.235  30.564  0.00  0.00    +0.267 C 
ATOM     15  O   UNL A   1     -27.736  -2.703  30.933  0.00  0.00    -0.268 OA
ENDROOT
TORSDOF 0
ENDMDL
ENDMDL
