REMARK  Name = No_2790-gen_results/8p0m/2024-11-26-14-13-15/
REMARK  0 active torsions:
REMARK  status: ('A' for Active; 'I' for Inactive)
REMARK                            x       y       z     vdW  Elec       q    Type
REMARK                         _______ _______ _______ _____ _____    ______ ____
ROOT
ATOM      1  C   UNL A   1     -28.016  -0.814  28.878  0.00  0.00    +0.001 A 
ATOM      2  C   UNL A   1     -27.064  -0.119  28.608  0.00  0.00    +0.000 A 
ATOM      3  C   UNL A   1     -26.972   0.714  27.506  0.00  0.00    +0.006 A 
ATOM      4  C   UNL A   1     -28.105   0.774  26.642  0.00  0.00    +0.068 A 
ATOM      5  C   UNL A   1     -29.201   0.104  27.053  0.00  0.00    +0.053 A 
ATOM      6  C   UNL A   1     -29.210  -0.603  28.185  0.00  0.00    +0.015 A 
ATOM      7  N   UNL A   1     -30.206   0.322  26.059  0.00  0.00    -0.292 N 
ATOM      8  C   UNL A   1     -31.294  -0.368  26.245  0.00  0.00    +0.092 C 
ATOM      9  C   UNL A   1     -32.191  -0.438  25.104  0.00  0.00    +0.022 C 
ATOM     10  C   UNL A   1     -30.064   1.010  24.911  0.00  0.00    +0.170 C 
ATOM     11  C   UNL A   1     -30.976   1.092  23.870  0.00  0.00    +0.043 C 
ATOM     12  C   UNL A   1     -32.114   0.321  24.053  0.00  0.00    +0.005 C 
ATOM     13  N   UNL A   1     -28.859   1.725  24.771  0.00  0.00    -0.183 NA
ATOM     14  C   UNL A   1     -27.919   1.642  25.546  0.00  0.00    +0.267 C 
ATOM     15  O   UNL A   1     -26.812   2.297  25.416  0.00  0.00    -0.268 OA
ENDROOT
TORSDOF 0
