REMARK  Name = No_2791-gen_results/8p0m/2024-11-26-14-13-15/
REMARK  7 active torsions:
REMARK  status: ('A' for Active; 'I' for Inactive)
REMARK    1  A    between atoms: P_1  and  O_2
REMARK    2  A    between atoms: P_1  and  O_3
REMARK    3  A    between atoms: P_1  and  O_5
REMARK    4  A    between atoms: O_3  and  C_6
REMARK    5  A    between atoms: O_5  and  C_8
REMARK    6  A    between atoms: C_8  and  C_9
REMARK    7  A    between atoms: C_9  and  C_10
REMARK                            x       y       z     vdW  Elec       q    Type
REMARK                         _______ _______ _______ _____ _____    ______ ____
ROOT
ATOM      1  O   UNL A   1     -27.646  -0.372  30.659  0.00  0.00    -0.262 OA
ENDROOT
BRANCH   1   2
ATOM      2  P   UNL A   1     -27.951  -0.579  29.040  0.00  0.00    +0.566 P 
ATOM      3  O   UNL A   1     -29.401  -0.687  29.052  0.00  0.00    -0.213 OA
BRANCH   2   4
ATOM      4  O   UNL A   1     -27.240   0.061  28.428  0.00  0.00    -0.073 OA
ATOM      5  F   UNL A   1     -25.998   0.099  28.467  0.00  0.00    -0.036 F 
ENDBRANCH   2   4
BRANCH   2   6
ATOM      6  O   UNL A   1     -27.244  -1.982  29.377  0.00  0.00    -0.386 OA
BRANCH   6   7
ATOM      7  C   UNL A   1     -27.482  -2.913  30.305  0.00  0.00    +0.267 C 
ATOM      8  C   UNL A   1     -27.186  -4.337  29.831  0.00  0.00    +0.175 C 
ATOM      9  O   UNL A   1     -26.291  -4.579  29.081  0.00  0.00    -0.228 OA
ENDBRANCH   6   7
ENDBRANCH   2   6
ENDBRANCH   1   2
BRANCH   1  10
ATOM     10  C   UNL A   1     -26.608   0.254  31.068  0.00  0.00    +0.159 C 
BRANCH  10  11
ATOM     11  C   UNL A   1     -26.174   0.032  32.453  0.00  0.00    +0.059 C 
BRANCH  11  12
ATOM     12  C   UNL A   1     -26.932   0.612  33.331  0.00  0.00    -0.020 A 
ATOM     13  C   UNL A   1     -26.852   1.964  33.460  0.00  0.00    -0.004 A 
ATOM     14  C   UNL A   1     -27.495   2.585  34.405  0.00  0.00    -0.000 A 
ATOM     15  C   UNL A   1     -28.109   1.950  35.344  0.00  0.00    -0.000 A 
ATOM     16  C   UNL A   1     -28.134   0.567  35.401  0.00  0.00    -0.000 A 
ATOM     17  C   UNL A   1     -27.500  -0.115  34.412  0.00  0.00    -0.004 A 
ENDBRANCH  11  12
ENDBRANCH  10  11
ENDBRANCH   1  10
TORSDOF 7
