MODEL 2791
MODEL 1
REMARK VINA RESULT:    -5.782      0.000      0.000
REMARK INTER + INTRA:          -8.712
REMARK INTER:                  -8.148
REMARK INTRA:                  -0.564
REMARK UNBOUND:                -0.564
REMARK  Name = No_2791-gen_results/8p0m/2024-11-26-14-13-15/
REMARK  7 active torsions:
REMARK  status: ('A' for Active; 'I' for Inactive)
REMARK    1  A    between atoms: P_1  and  O_2
REMARK    2  A    between atoms: P_1  and  O_3
REMARK    3  A    between atoms: P_1  and  O_5
REMARK    4  A    between atoms: O_3  and  C_6
REMARK    5  A    between atoms: O_5  and  C_8
REMARK    6  A    between atoms: C_8  and  C_9
REMARK    7  A    between atoms: C_9  and  C_10
REMARK                            x       y       z     vdW  Elec       q    Type
REMARK                         _______ _______ _______ _____ _____    ______ ____
ROOT
ATOM      1  O   UNL A   1     -23.624  -0.059  27.711  0.00  0.00    -0.262 OA
ENDROOT
BRANCH   1   2
ATOM      2  P   UNL A   1     -22.810   1.379  27.864  0.00  0.00    +0.566 P 
ATOM      3  O   UNL A   1     -23.535   1.981  28.972  0.00  0.00    -0.213 OA
BRANCH   2   4
ATOM      4  O   UNL A   1     -21.701   1.218  27.678  0.00  0.00    -0.073 OA
ATOM      5  F   UNL A   1     -20.828   2.059  27.405  0.00  0.00    -0.036 F 
ENDBRANCH   2   4
BRANCH   2   6
ATOM      6  O   UNL A   1     -23.554   1.623  26.461  0.00  0.00    -0.386 OA
BRANCH   6   7
ATOM      7  C   UNL A   1     -24.233   2.662  25.967  0.00  0.00    +0.267 C 
ATOM      8  C   UNL A   1     -25.750   2.465  25.991  0.00  0.00    +0.175 C 
ATOM      9  O   UNL A   1     -26.295   1.866  26.866  0.00  0.00    -0.228 OA
ENDBRANCH   6   7
ENDBRANCH   2   6
ENDBRANCH   1   2
BRANCH   1  10
ATOM     10  C   UNL A   1     -23.977  -0.739  28.735  0.00  0.00    +0.159 C 
BRANCH  10  11
ATOM     11  C   UNL A   1     -23.361  -2.058  28.930  0.00  0.00    +0.059 C 
BRANCH  11  12
ATOM     12  C   UNL A   1     -24.208  -2.979  29.270  0.00  0.00    -0.020 A 
ATOM     13  C   UNL A   1     -24.014  -4.240  28.797  0.00  0.00    -0.004 A 
ATOM     14  C   UNL A   1     -24.896  -5.174  29.003  0.00  0.00    -0.000 A 
ATOM     15  C   UNL A   1     -26.048  -4.923  29.525  0.00  0.00    -0.000 A 
ATOM     16  C   UNL A   1     -26.416  -3.645  29.910  0.00  0.00    -0.000 A 
ATOM     17  C   UNL A   1     -25.508  -2.650  29.740  0.00  0.00    -0.004 A 
ENDBRANCH  11  12
ENDBRANCH  10  11
ENDBRANCH   1  10
TORSDOF 7
ENDMDL
ENDMDL
