REMARK  Name = No_2792-gen_results/8p0m/2024-11-26-14-13-15/
REMARK  6 active torsions:
REMARK  status: ('A' for Active; 'I' for Inactive)
REMARK    1  A    between atoms: C_3  and  C_7
REMARK    2  A    between atoms: C_6  and  C_22
REMARK    3  A    between atoms: C_11  and  C_12
REMARK    4  A    between atoms: C_12  and  O_15
REMARK    5  A    between atoms: O_15  and  C_16
REMARK    6  A    between atoms: C_22  and  N_23
REMARK                            x       y       z     vdW  Elec       q    Type
REMARK                         _______ _______ _______ _____ _____    ______ ____
ROOT
ATOM      1  C   UNL A   1     -26.388   0.291  27.233  0.00  0.00    +0.006 A 
ATOM      2  C   UNL A   1     -25.151   0.303  27.256  0.00  0.00    +0.000 A 
ATOM      3  C   UNL A   1     -24.440   0.773  26.014  0.00  0.00    +0.000 A 
ATOM      4  C   UNL A   1     -25.165   0.757  24.833  0.00  0.00    +0.000 A 
ATOM      5  C   UNL A   1     -26.842   0.735  25.935  0.00  0.00    +0.076 A 
ATOM      6  C   UNL A   1     -26.290   0.828  24.824  0.00  0.00    +0.006 A 
ENDROOT
BRANCH   1   9
ATOM      7  C   UNL A   1     -28.016  -0.814  28.878  0.00  0.00    -0.000 A 
ATOM      8  C   UNL A   1     -28.469  -0.785  29.829  0.00  0.00    -0.000 A 
ATOM      9  C   UNL A   1     -27.136   0.236  28.535  0.00  0.00    -0.000 A 
ATOM     10  C   UNL A   1     -26.875   1.282  29.398  0.00  0.00    -0.001 A 
ATOM     11  C   UNL A   1     -28.361   0.199  30.924  0.00  0.00    -0.001 A 
ATOM     12  C   UNL A   1     -27.528   1.223  30.636  0.00  0.00    +0.015 A 
BRANCH  12  13
ATOM     13  C   UNL A   1     -27.269   2.346  31.608  0.00  0.00    +0.203 C 
ATOM     14 CL   UNL A   1     -27.360   3.972  30.844  0.00  0.00    -0.083 Cl
BRANCH  13  15
ATOM     15  N   UNL A   1     -27.052   2.323  32.706  0.00  0.00    -0.255 NA
ATOM     16  C   UNL A   1     -26.636   3.308  33.549  0.00  0.00    +0.069 C 
ATOM     17  C   UNL A   1     -25.888   4.292  32.918  0.00  0.00    +0.053 C 
ENDBRANCH  13  15
ENDBRANCH  12  13
ENDBRANCH   1   9
BRANCH   5  18
ATOM     18  C   UNL A   1     -28.408   0.692  25.985  0.00  0.00    +0.346 C 
ATOM     19  O   UNL A   1     -29.127   0.263  25.146  0.00  0.00    -0.244 OA
BRANCH  18  20
ATOM     20  O   UNL A   1     -29.051   1.278  27.036  0.00  0.00    -0.421 OA
BRANCH  20  21
ATOM     21  C   UNL A   1     -30.080   2.136  26.710  0.00  0.00    +0.149 A 
ATOM     22  C   UNL A   1     -30.737   2.701  27.817  0.00  0.00    +0.038 A 
ATOM     23  C   UNL A   1     -31.787   3.425  27.520  0.00  0.00    +0.003 A 
ATOM     24  C   UNL A   1     -32.177   3.560  26.199  0.00  0.00    +0.000 A 
ATOM     25  C   UNL A   1     -31.514   2.948  25.342  0.00  0.00    +0.003 A 
ATOM     26  C   UNL A   1     -30.423   2.239  25.505  0.00  0.00    +0.038 A 
ENDBRANCH  20  21
ENDBRANCH  18  20
ENDBRANCH   5  18
TORSDOF 6
