MODEL 2793
MODEL 1
REMARK VINA RESULT:    -6.894      0.000      0.000
REMARK INTER + INTRA:          -7.400
REMARK INTER:                  -7.297
REMARK INTRA:                  -0.103
REMARK UNBOUND:                -0.103
REMARK  Name = No_2793-gen_results/8p0m/2024-11-26-14-13-15/
REMARK  1 active torsions:
REMARK  status: ('A' for Active; 'I' for Inactive)
REMARK    1  A    between atoms: C_2  and  C_15
REMARK                            x       y       z     vdW  Elec       q    Type
REMARK                         _______ _______ _______ _____ _____    ______ ____
ROOT
ATOM      1  C   UNL A   1     -23.676  -0.628  28.477  0.00  0.00    +0.024 A 
ATOM      2  C   UNL A   1     -23.471   0.284  28.963  0.00  0.00    +0.100 A 
ATOM      3  C   UNL A   1     -24.855  -1.404  29.020  0.00  0.00    +0.062 A 
ATOM      4  N   UNL A   1     -24.874  -2.718  29.161  0.00  0.00    -0.308 N 
ATOM      5  C   UNL A   1     -25.853  -3.371  29.767  0.00  0.00    +0.073 C 
ATOM      6  C   UNL A   1     -27.058  -2.676  30.032  0.00  0.00    +0.024 C 
ATOM      7  C   UNL A   1     -26.066  -0.754  29.473  0.00  0.00    +0.072 A 
ATOM      8  C   UNL A   1     -27.128  -1.356  30.013  0.00  0.00    +0.049 C 
ATOM      9  C   UNL A   1     -24.514   1.425  29.054  0.00  0.00    +0.105 A 
ATOM     10  N   UNL A   1     -25.863   0.734  29.510  0.00  0.00    -0.247 NA
ATOM     11  C   UNL A   1     -23.840  -3.588  28.674  0.00  0.00    +0.091 C 
ATOM     12  C   UNL A   1     -23.981  -4.786  28.317  0.00  0.00    +0.021 C 
ATOM     13  C   UNL A   1     -24.991  -5.555  29.149  0.00  0.00    +0.004 C 
ATOM     14  C   UNL A   1     -26.027  -4.840  29.707  0.00  0.00    +0.020 C 
ATOM     15  C   UNL A   1     -28.247  -3.407  30.678  0.00  0.00    +0.002 C 
ENDROOT
BRANCH   2  16
ATOM     16  C   UNL A   1     -22.251   1.148  28.243  0.00  0.00    +0.389 C 
ATOM     17  O   UNL A   1     -21.337   0.859  27.833  0.00  0.00    -0.240 OA
ATOM     18  O   UNL A   1     -22.745   2.359  27.920  0.00  0.00    -0.240 OA
ENDBRANCH   2  16
TORSDOF 1
ENDMDL
ENDMDL
