MODEL 2794
MODEL 1
REMARK VINA RESULT:    -7.815      0.000      0.000
REMARK INTER + INTRA:          -8.975
REMARK INTER:                  -9.185
REMARK INTRA:                   0.210
REMARK UNBOUND:                 0.210
REMARK  Name = No_2794-gen_results/8p0m/2024-11-26-14-13-15/
REMARK  3 active torsions:
REMARK  status: ('A' for Active; 'I' for Inactive)
REMARK    1  A    between atoms: C_2  and  N_7
REMARK    2  A    between atoms: C_3  and  C_15
REMARK    3  A    between atoms: C_15  and  C_16
REMARK                            x       y       z     vdW  Elec       q    Type
REMARK                         _______ _______ _______ _____ _____    ______ ____
ROOT
ATOM      1  C   UNL A   1       2.928 -14.562  31.485  0.00  0.00    -0.030 C 
ATOM      2  C   UNL A   1       3.371 -15.276  30.807  0.00  0.00    +0.025 C 
ATOM      3  C   UNL A   1       2.856 -15.438  29.386  0.00  0.00    +0.067 C 
ATOM      4  C   UNL A   1       1.897 -14.922  28.921  0.00  0.00    -0.020 A 
ATOM      5  C   UNL A   1       2.153 -13.621  28.248  0.00  0.00    -0.004 A 
ATOM      6  C   UNL A   1       0.970 -12.869  27.745  0.00  0.00    -0.000 A 
ATOM      7  C   UNL A   1       0.542 -15.319  29.052  0.00  0.00    -0.021 A 
ATOM      8  C   UNL A   1      -0.533 -14.823  28.235  0.00  0.00    -0.004 A 
ATOM      9  C   UNL A   1      -0.306 -13.554  27.635  0.00  0.00    -0.000 A 
ATOM     10  C   UNL A   1       0.287 -16.645  29.691  0.00  0.00    +0.054 C 
ATOM     11  C   UNL A   1       1.049 -17.630  29.860  0.00  0.00    -0.004 A 
ATOM     12  C   UNL A   1       0.738 -18.829  29.322  0.00  0.00    -0.003 A 
ATOM     13  C   UNL A   1       1.774 -19.875  29.316  0.00  0.00    -0.000 A 
ATOM     14  C   UNL A   1       2.934 -19.640  30.042  0.00  0.00    +0.001 A 
ATOM     15  C   UNL A   1       3.222 -18.453  30.581  0.00  0.00    +0.015 A 
ATOM     16  C   UNL A   1       2.296 -17.426  30.469  0.00  0.00    +0.048 A 
ATOM     17  N   UNL A   1       2.609 -16.311  30.973  0.00  0.00    -0.289 N 
ATOM     18  C   UNL A   1       2.009 -16.497  32.212  0.00  0.00    +0.117 C 
ATOM     19  C   UNL A   1       3.743 -14.159  32.685  0.00  0.00    +0.028 C 
ENDROOT
BRANCH   1  20
ATOM     20  C   UNL A   1       1.969 -13.539  31.386  0.00  0.00    +0.042 C 
ATOM     21  C   UNL A   1       2.208 -12.327  30.741  0.00  0.00    +0.009 C 
BRANCH  20  24
ATOM     22  C   UNL A   1       0.624 -13.740  33.690  0.00  0.00    +0.011 A 
ATOM     23  C   UNL A   1      -0.343 -13.888  34.082  0.00  0.00    +0.060 A 
ATOM     24  C   UNL A   1       0.703 -13.620  32.185  0.00  0.00    -0.018 A 
ATOM     25  C   UNL A   1      -0.489 -13.569  31.432  0.00  0.00    -0.004 A 
ATOM     26  C   UNL A   1      -1.718 -13.841  33.537  0.00  0.00    +0.015 A 
ATOM     27  C   UNL A   1      -1.686 -13.725  32.155  0.00  0.00    +0.001 A 
BRANCH  23  28
ATOM     28  N   UNL A   1      -0.442 -14.001  35.584  0.00  0.00    -0.208 N 
ATOM     29  C   UNL A   1      -0.543 -12.912  36.231  0.00  0.00    +0.235 C 
ATOM     30  O   UNL A   1      -0.464 -11.910  35.743  0.00  0.00    -0.274 OA
ATOM     31  C   UNL A   1      -1.182 -13.157  37.580  0.00  0.00    +0.086 C 
ATOM     32  C   UNL A   1      -1.530 -14.131  37.921  0.00  0.00    +0.019 C 
ATOM     33  C   UNL A   1      -1.298 -15.386  37.156  0.00  0.00    +0.086 C 
ATOM     34  C   UNL A   1      -0.838 -15.352  35.966  0.00  0.00    +0.235 C 
ATOM     35  O   UNL A   1      -0.660 -16.364  35.230  0.00  0.00    -0.274 OA
ENDBRANCH  23  28
ENDBRANCH  20  24
ENDBRANCH   1  20
TORSDOF 3
ENDMDL
ENDMDL
