REMARK  Name = No_2794-gen_results/8p0m/2024-11-26-14-13-15/
REMARK  3 active torsions:
REMARK  status: ('A' for Active; 'I' for Inactive)
REMARK    1  A    between atoms: C_2  and  N_7
REMARK    2  A    between atoms: C_3  and  C_15
REMARK    3  A    between atoms: C_15  and  C_16
REMARK                            x       y       z     vdW  Elec       q    Type
REMARK                         _______ _______ _______ _____ _____    ______ ____
ROOT
ATOM      1  C   UNL A   1     -25.905   0.309  26.689  0.00  0.00    -0.030 C 
ATOM      2  C   UNL A   1     -25.506   1.282  26.445  0.00  0.00    +0.025 C 
ATOM      3  C   UNL A   1     -24.487   1.964  27.343  0.00  0.00    +0.067 C 
ATOM      4  C   UNL A   1     -24.123   1.590  28.406  0.00  0.00    -0.020 A 
ATOM      5  C   UNL A   1     -22.916   0.721  28.381  0.00  0.00    -0.004 A 
ATOM      6  C   UNL A   1     -22.478   0.126  29.674  0.00  0.00    -0.000 A 
ATOM      7  C   UNL A   1     -24.769   1.752  29.658  0.00  0.00    -0.021 A 
ATOM      8  C   UNL A   1     -24.140   1.530  30.932  0.00  0.00    -0.004 A 
ATOM      9  C   UNL A   1     -23.018   0.656  30.913  0.00  0.00    -0.000 A 
ATOM     10  C   UNL A   1     -25.957   2.658  29.691  0.00  0.00    +0.054 C 
ATOM     11  C   UNL A   1     -26.319   3.558  28.892  0.00  0.00    -0.004 A 
ATOM     12  C   UNL A   1     -26.451   4.832  29.320  0.00  0.00    -0.003 A 
ATOM     13  C   UNL A   1     -26.616   5.889  28.308  0.00  0.00    -0.000 A 
ATOM     14  C   UNL A   1     -26.831   5.497  26.994  0.00  0.00    +0.001 A 
ATOM     15  C   UNL A   1     -26.711   4.231  26.587  0.00  0.00    +0.015 A 
ATOM     16  C   UNL A   1     -26.423   3.252  27.527  0.00  0.00    +0.048 A 
ATOM     17  N   UNL A   1     -26.297   2.068  27.106  0.00  0.00    -0.289 N 
ATOM     18  C   UNL A   1     -27.607   1.659  27.320  0.00  0.00    +0.117 C 
ATOM     19  C   UNL A   1     -26.550  -0.468  25.572  0.00  0.00    +0.028 C 
ENDROOT
BRANCH   1  20
ATOM     20  C   UNL A   1     -25.639  -0.675  27.657  0.00  0.00    +0.042 C 
ATOM     21  C   UNL A   1     -24.735  -1.718  27.459  0.00  0.00    +0.009 C 
BRANCH  20  24
ATOM     22  C   UNL A   1     -28.016  -0.814  28.878  0.00  0.00    +0.011 A 
ATOM     23  C   UNL A   1     -28.469  -0.785  29.829  0.00  0.00    +0.060 A 
ATOM     24  C   UNL A   1     -26.504  -0.778  28.877  0.00  0.00    -0.018 A 
ATOM     25  C   UNL A   1     -25.810  -0.853  30.103  0.00  0.00    -0.004 A 
ATOM     26  C   UNL A   1     -27.991  -0.892  31.226  0.00  0.00    +0.015 A 
ATOM     27  C   UNL A   1     -26.604  -0.868  31.265  0.00  0.00    +0.001 A 
BRANCH  23  28
ATOM     28  N   UNL A   1     -29.977  -0.829  29.850  0.00  0.00    -0.208 N 
ATOM     29  C   UNL A   1     -30.579  -0.123  28.982  0.00  0.00    +0.235 C 
ATOM     30  O   UNL A   1     -30.043   0.577  28.296  0.00  0.00    -0.274 OA
ATOM     31  C   UNL A   1     -31.970  -0.663  28.735  0.00  0.00    +0.086 C 
ATOM     32  C   UNL A   1     -32.373  -1.552  29.218  0.00  0.00    +0.019 C 
ATOM     33  C   UNL A   1     -31.654  -2.282  30.297  0.00  0.00    +0.086 C 
ATOM     34  C   UNL A   1     -30.440  -2.005  30.579  0.00  0.00    +0.235 C 
ATOM     35  O   UNL A   1     -29.742  -2.608  31.442  0.00  0.00    -0.274 OA
ENDBRANCH  23  28
ENDBRANCH  20  24
ENDBRANCH   1  20
TORSDOF 3
