REMARK  Name = No_2795-gen_results/8p0m/2024-11-26-14-13-15/
REMARK  5 active torsions:
REMARK  status: ('A' for Active; 'I' for Inactive)
REMARK    1  A    between atoms: C_3  and  C_7
REMARK    2  A    between atoms: C_7  and  C_8
REMARK    3  A    between atoms: C_7  and  C_9
REMARK    4  A    between atoms: C_8  and  C_11
REMARK    5  A    between atoms: C_9  and  C_17
REMARK                            x       y       z     vdW  Elec       q    Type
REMARK                         _______ _______ _______ _____ _____    ______ ____
ROOT
ATOM      1  C   UNL A   1     -26.311   0.392  27.364  0.00  0.00    +0.031 C 
ENDROOT
BRANCH   1   4
ATOM      2  C   UNL A   1     -28.016  -0.814  28.878  0.00  0.00    -0.004 A 
ATOM      3  C   UNL A   1     -28.469  -0.785  29.829  0.00  0.00    -0.000 A 
ATOM      4  C   UNL A   1     -27.087   0.290  28.638  0.00  0.00    -0.022 A 
ATOM      5  C   UNL A   1     -26.832   1.249  29.587  0.00  0.00    -0.004 A 
ATOM      6  C   UNL A   1     -28.391   0.080  31.006  0.00  0.00    -0.000 A 
ATOM      7  C   UNL A   1     -27.494   1.152  30.784  0.00  0.00    -0.000 A 
ENDBRANCH   1   4
BRANCH   1   8
ATOM      8  C   UNL A   1     -26.924   0.576  26.138  0.00  0.00    +0.026 C 
ATOM      9  C   UNL A   1     -26.209   0.423  24.976  0.00  0.00    +0.005 C 
BRANCH   8  10
ATOM     10  C   UNL A   1     -28.301   0.874  26.000  0.00  0.00    -0.031 C 
ATOM     11  C   UNL A   1     -28.967   1.774  26.697  0.00  0.00    -0.030 C 
ATOM     12  C   UNL A   1     -30.328   2.034  26.519  0.00  0.00    +0.030 C 
ENDBRANCH   8  10
ENDBRANCH   1   8
BRANCH   1  13
ATOM     13  C   UNL A   1     -24.969   0.248  27.481  0.00  0.00    +0.033 C 
BRANCH  13  14
ATOM     14  C   UNL A   1     -24.278   0.009  28.730  0.00  0.00    -0.003 A 
ATOM     15  C   UNL A   1     -23.314   0.762  29.142  0.00  0.00    +0.095 A 
ATOM     16  N   UNL A   1     -22.540   0.306  30.186  0.00  0.00    -0.243 NA
ATOM     17  C   UNL A   1     -24.106  -1.266  29.368  0.00  0.00    -0.001 A 
ATOM     18  C   UNL A   1     -23.446  -1.670  30.300  0.00  0.00    +0.020 A 
ATOM     19  C   UNL A   1     -22.543  -0.722  30.835  0.00  0.00    +0.099 A 
ENDBRANCH  13  14
ENDBRANCH   1  13
TORSDOF 5
