MODEL 2795
MODEL 1
REMARK VINA RESULT:    -7.096      0.000      0.000
REMARK INTER + INTRA:         -10.950
REMARK INTER:                  -9.170
REMARK INTRA:                  -1.780
REMARK UNBOUND:                -1.780
REMARK  Name = No_2795-gen_results/8p0m/2024-11-26-14-13-15/
REMARK  5 active torsions:
REMARK  status: ('A' for Active; 'I' for Inactive)
REMARK    1  A    between atoms: C_3  and  C_7
REMARK    2  A    between atoms: C_7  and  C_8
REMARK    3  A    between atoms: C_7  and  C_9
REMARK    4  A    between atoms: C_8  and  C_11
REMARK    5  A    between atoms: C_9  and  C_17
REMARK                            x       y       z     vdW  Elec       q    Type
REMARK                         _______ _______ _______ _____ _____    ______ ____
ROOT
ATOM      1  C   UNL A   1     -24.716  -1.206  29.183  0.00  0.00    +0.031 C 
ENDROOT
BRANCH   1   4
ATOM      2  C   UNL A   1     -23.871  -3.565  28.573  0.00  0.00    -0.004 A 
ATOM      3  C   UNL A   1     -24.113  -4.589  28.629  0.00  0.00    -0.000 A 
ATOM      4  C   UNL A   1     -24.901  -2.688  29.129  0.00  0.00    -0.022 A 
ATOM      5  C   UNL A   1     -26.057  -3.180  29.684  0.00  0.00    -0.004 A 
ATOM      6  C   UNL A   1     -25.227  -5.380  29.150  0.00  0.00    -0.000 A 
ATOM      7  C   UNL A   1     -26.230  -4.541  29.691  0.00  0.00    -0.000 A 
ENDBRANCH   1   4
BRANCH   1   8
ATOM      8  C   UNL A   1     -23.528  -0.623  29.585  0.00  0.00    +0.026 C 
ATOM      9  C   UNL A   1     -23.171  -0.620  30.911  0.00  0.00    +0.005 C 
BRANCH   8  10
ATOM     10  C   UNL A   1     -22.601  -0.055  28.678  0.00  0.00    -0.031 C 
ATOM     11  C   UNL A   1     -22.573   1.207  28.296  0.00  0.00    -0.030 C 
ATOM     12  C   UNL A   1     -21.632   1.720  27.400  0.00  0.00    +0.030 C 
ENDBRANCH   8  10
ENDBRANCH   1   8
BRANCH   1  13
ATOM     13  C   UNL A   1     -25.803  -0.466  28.857  0.00  0.00    +0.033 C 
BRANCH  13  14
ATOM     14  C   UNL A   1     -26.086   0.028  27.526  0.00  0.00    -0.003 A 
ATOM     15  C   UNL A   1     -27.271   0.388  27.160  0.00  0.00    +0.095 A 
ATOM     16  N   UNL A   1     -27.500   0.577  25.815  0.00  0.00    -0.243 NA
ATOM     17  C   UNL A   1     -25.372  -0.317  26.329  0.00  0.00    -0.001 A 
ATOM     18  C   UNL A   1     -25.555  -0.134  25.145  0.00  0.00    +0.020 A 
ATOM     19  C   UNL A   1     -26.803   0.451  24.827  0.00  0.00    +0.099 A 
ENDBRANCH  13  14
ENDBRANCH   1  13
TORSDOF 5
ENDMDL
ENDMDL
