MODEL 2796
MODEL 1
REMARK VINA RESULT:    -6.968      0.000      0.000
REMARK INTER + INTRA:          -8.245
REMARK INTER:                  -7.782
REMARK INTRA:                  -0.463
REMARK UNBOUND:                -0.463
REMARK  Name = No_2796-gen_results/8p0m/2024-11-26-14-13-15/
REMARK  2 active torsions:
REMARK  status: ('A' for Active; 'I' for Inactive)
REMARK    1  A    between atoms: C_2  and  C_7
REMARK    2  A    between atoms: C_7  and  C_8
REMARK                            x       y       z     vdW  Elec       q    Type
REMARK                         _______ _______ _______ _____ _____    ______ ____
ROOT
ATOM      1  C   UNL A   1     -25.402  -1.208  29.161  0.00  0.00    +0.053 C 
ENDROOT
BRANCH   1   2
ATOM      2  C   UNL A   1     -24.751  -0.431  28.056  0.00  0.00    -0.018 A 
ATOM      3  C   UNL A   1     -23.636   0.362  28.237  0.00  0.00    -0.008 A 
ATOM      4  C   UNL A   1     -23.131   1.117  27.148  0.00  0.00    -0.022 A 
ATOM      5  C   UNL A   1     -25.455  -0.189  26.850  0.00  0.00    -0.004 A 
ATOM      6  C   UNL A   1     -24.985   0.607  25.855  0.00  0.00    -0.001 A 
ATOM      7  C   UNL A   1     -21.834   1.852  27.376  0.00  0.00    +0.031 C 
ATOM      8  C   UNL A   1     -23.834   1.260  25.975  0.00  0.00    -0.004 A 
ENDBRANCH   1   2
BRANCH   1  10
ATOM      9  C   UNL A   1     -24.220  -3.192  28.520  0.00  0.00    -0.004 A 
ATOM     10  C   UNL A   1     -25.187  -2.709  29.063  0.00  0.00    -0.018 A 
ATOM     11  C   UNL A   1     -26.172  -3.438  29.647  0.00  0.00    -0.004 A 
ATOM     12  C   UNL A   1     -26.069  -4.842  29.622  0.00  0.00    -0.000 A 
ATOM     13  C   UNL A   1     -24.002  -4.616  28.541  0.00  0.00    -0.000 A 
ATOM     14  C   UNL A   1     -24.977  -5.394  29.089  0.00  0.00    -0.000 A 
ENDBRANCH   1  10
TORSDOF 2
ENDMDL
ENDMDL
