MODEL 2797
MODEL 1
REMARK VINA RESULT:    -5.926      0.000      0.000
REMARK INTER + INTRA:          -6.994
REMARK INTER:                  -6.619
REMARK INTRA:                  -0.375
REMARK UNBOUND:                -0.375
REMARK  Name = No_2797-gen_results/8p0m/2024-11-26-14-13-15/
REMARK  2 active torsions:
REMARK  status: ('A' for Active; 'I' for Inactive)
REMARK    1  A    between atoms: C_1  and  C_2
REMARK    2  A    between atoms: C_5  and  C_11
REMARK                            x       y       z     vdW  Elec       q    Type
REMARK                         _______ _______ _______ _____ _____    ______ ____
ROOT
ATOM      1  C   UNL A   1     -23.154   0.890  27.552  0.00  0.00    +0.071 A 
ATOM      2  C   UNL A   1     -24.349   0.287  27.212  0.00  0.00    +0.004 A 
ATOM      3  C   UNL A   1     -24.822  -0.992  27.708  0.00  0.00    +0.004 A 
ATOM      4  C   UNL A   1     -24.009  -1.715  28.609  0.00  0.00    +0.071 A 
ATOM      5  C   UNL A   1     -22.766  -1.090  28.982  0.00  0.00    +0.004 A 
ATOM      6  C   UNL A   1     -22.355   0.141  28.528  0.00  0.00    +0.004 A 
ENDROOT
BRANCH   1   7
ATOM      7  C   UNL A   1     -22.826   1.989  27.167  0.00  0.00    +0.419 C 
ATOM      8  F   UNL A   1     -23.530   2.980  27.486  0.00  0.00    -0.166 F 
ATOM      9  F   UNL A   1     -22.722   2.051  25.801  0.00  0.00    -0.166 F 
ATOM     10  F   UNL A   1     -21.544   2.274  27.656  0.00  0.00    -0.166 F 
ENDBRANCH   1   7
BRANCH   4  11
ATOM     11  C   UNL A   1     -24.346  -2.999  29.116  0.00  0.00    +0.419 C 
ATOM     12  F   UNL A   1     -24.052  -3.147  30.305  0.00  0.00    -0.166 F 
ATOM     13  F   UNL A   1     -23.677  -4.025  28.464  0.00  0.00    -0.166 F 
ATOM     14  F   UNL A   1     -25.671  -3.300  28.972  0.00  0.00    -0.166 F 
ENDBRANCH   4  11
TORSDOF 2
ENDMDL
ENDMDL
