MODEL 2798
MODEL 1
REMARK VINA RESULT:    -6.055      0.000      0.000
REMARK INTER + INTRA:          -8.350
REMARK INTER:                  -7.825
REMARK INTRA:                  -0.524
REMARK UNBOUND:                -0.524
REMARK  Name = No_2798-gen_results/8p0m/2024-11-26-14-13-15/
REMARK  5 active torsions:
REMARK  status: ('A' for Active; 'I' for Inactive)
REMARK    1  A    between atoms: C_2  and  C_8
REMARK    2  A    between atoms: C_6  and  O_13
REMARK    3  A    between atoms: O_13  and  C_14
REMARK    4  A    between atoms: C_14  and  C_15
REMARK    5  A    between atoms: C_14  and  C_18
REMARK                            x       y       z     vdW  Elec       q    Type
REMARK                         _______ _______ _______ _____ _____    ______ ____
ROOT
ATOM      1  C   UNL A   1     -24.926  -0.796  27.318  0.00  0.00    +0.043 A 
ATOM      2  C   UNL A   1     -24.669   0.041  26.484  0.00  0.00    +0.078 A 
ATOM      3  C   UNL A   1     -23.809   1.111  26.667  0.00  0.00    +0.049 A 
ATOM      4  C   UNL A   1     -23.158   1.211  27.931  0.00  0.00    +0.226 A 
ATOM      5  C   UNL A   1     -23.351   0.182  28.782  0.00  0.00    +0.212 A 
ATOM      6  C   UNL A   1     -24.137  -0.851  28.469  0.00  0.00    +0.170 A 
ATOM      7  F   UNL A   1     -22.690   0.233  29.930  0.00  0.00    -0.198 F 
ATOM      8  O   UNL A   1     -22.355   2.253  28.138  0.00  0.00    -0.284 OA
ENDROOT
BRANCH   2   9
ATOM      9  C   UNL A   1     -25.434   0.108  25.114  0.00  0.00    +0.419 C 
ATOM     10  F   UNL A   1     -26.401   0.796  25.110  0.00  0.00    -0.166 F 
ATOM     11  F   UNL A   1     -25.871  -1.183  24.795  0.00  0.00    -0.166 F 
ATOM     12  F   UNL A   1     -24.602   0.367  24.076  0.00  0.00    -0.166 F 
ENDBRANCH   2   9
BRANCH   6  13
ATOM     13  O   UNL A   1     -24.360  -1.860  29.316  0.00  0.00    -0.458 OA
BRANCH  13  14
ATOM     14  C   UNL A   1     -25.271  -2.848  29.072  0.00  0.00    +0.332 C 
BRANCH  14  15
ATOM     15  C   UNL A   1     -24.637  -4.107  28.909  0.00  0.00    +0.412 C 
ATOM     16  O   UNL A   1     -23.533  -4.188  28.799  0.00  0.00    -0.241 OA
ATOM     17  O   UNL A   1     -25.352  -5.106  29.305  0.00  0.00    -0.241 OA
ENDBRANCH  14  15
BRANCH  14  18
ATOM     18  C   UNL A   1     -26.366  -2.871  30.117  0.00  0.00    +0.263 C 
ATOM     19  O   UNL A   1     -27.466  -2.263  29.767  0.00  0.00    -0.284 OA
ENDBRANCH  14  18
ENDBRANCH  13  14
ENDBRANCH   6  13
TORSDOF 5
ENDMDL
ENDMDL
