REMARK  Name = No_2798-gen_results/8p0m/2024-11-26-14-13-15/
REMARK  5 active torsions:
REMARK  status: ('A' for Active; 'I' for Inactive)
REMARK    1  A    between atoms: C_2  and  C_8
REMARK    2  A    between atoms: C_6  and  O_13
REMARK    3  A    between atoms: O_13  and  C_14
REMARK    4  A    between atoms: C_14  and  C_15
REMARK    5  A    between atoms: C_14  and  C_18
REMARK                            x       y       z     vdW  Elec       q    Type
REMARK                         _______ _______ _______ _____ _____    ______ ____
ROOT
ATOM      1  C   UNL A   1     -28.016  -0.814  28.878  0.00  0.00    +0.043 A 
ATOM      2  C   UNL A   1     -27.064  -0.119  28.608  0.00  0.00    +0.078 A 
ATOM      3  C   UNL A   1     -26.972   0.714  27.506  0.00  0.00    +0.049 A 
ATOM      4  C   UNL A   1     -28.105   0.774  26.642  0.00  0.00    +0.226 A 
ATOM      5  C   UNL A   1     -29.201   0.104  27.053  0.00  0.00    +0.212 A 
ATOM      6  C   UNL A   1     -29.210  -0.603  28.185  0.00  0.00    +0.170 A 
ATOM      7  F   UNL A   1     -30.281   0.216  26.291  0.00  0.00    -0.198 F 
ATOM      8  O   UNL A   1     -28.021   1.543  25.558  0.00  0.00    -0.284 OA
ENDROOT
BRANCH   2   9
ATOM      9  C   UNL A   1     -25.716  -0.214  29.408  0.00  0.00    +0.419 C 
ATOM     10  F   UNL A   1     -25.584  -1.199  30.058  0.00  0.00    -0.166 F 
ATOM     11  F   UNL A   1     -25.666   0.857  30.308  0.00  0.00    -0.166 F 
ATOM     12  F   UNL A   1     -24.639   0.048  28.628  0.00  0.00    -0.166 F 
ENDBRANCH   2   9
BRANCH   6  13
ATOM     13  O   UNL A   1     -30.281  -1.296  28.585  0.00  0.00    -0.458 OA
BRANCH  13  14
ATOM     14  C   UNL A   1     -30.389  -1.842  29.832  0.00  0.00    +0.332 C 
BRANCH  14  15
ATOM     15  C   UNL A   1     -31.736  -1.849  30.278  0.00  0.00    +0.412 C 
ATOM     16  O   UNL A   1     -32.019  -2.301  31.255  0.00  0.00    -0.241 OA
ATOM     17  O   UNL A   1     -32.483  -0.970  29.699  0.00  0.00    -0.241 OA
ENDBRANCH  14  15
BRANCH  14  18
ATOM     18  C   UNL A   1     -29.738  -3.207  29.904  0.00  0.00    +0.263 C 
ATOM     19  O   UNL A   1     -28.549  -3.215  30.439  0.00  0.00    -0.284 OA
ENDBRANCH  14  18
ENDBRANCH  13  14
ENDBRANCH   6  13
TORSDOF 5
