MODEL 2799
MODEL 1
REMARK VINA RESULT:    -4.512      0.000      0.000
REMARK INTER + INTRA:          -5.112
REMARK INTER:                  -5.040
REMARK INTRA:                  -0.073
REMARK UNBOUND:                -0.073
REMARK  Name = No_2799-gen_results/8p0m/2024-11-26-14-13-15/
REMARK  2 active torsions:
REMARK  status: ('A' for Active; 'I' for Inactive)
REMARK    1  A    between atoms: C_1  and  C_2
REMARK    2  A    between atoms: C_1  and  N_8
REMARK                            x       y       z     vdW  Elec       q    Type
REMARK                         _______ _______ _______ _____ _____    ______ ____
ROOT
ATOM      1  C   UNL A   1     -23.795  -1.933  28.974  0.00  0.00    -0.005 A 
ATOM      2  C   UNL A   1     -22.612  -1.253  29.210  0.00  0.00    -0.002 A 
ATOM      3  C   UNL A   1     -22.241   0.030  28.665  0.00  0.00    +0.011 A 
ATOM      4  C   UNL A   1     -23.146   0.684  27.795  0.00  0.00    +0.058 A 
ATOM      5  C   UNL A   1     -24.396   0.017  27.557  0.00  0.00    +0.011 A 
ATOM      6  C   UNL A   1     -24.740  -1.187  28.105  0.00  0.00    -0.002 A 
ATOM      7 CL   UNL A   1     -22.805   2.162  27.090  0.00  0.00    -0.082 Cl
ENDROOT
BRANCH   1   8
ATOM      8  C   UNL A   1     -24.116  -2.975  29.496  0.00  0.00    +0.115 C 
BRANCH   8   9
ATOM      9  N   UNL A   1     -23.761  -4.105  28.823  0.00  0.00    -0.212 NA
ATOM     10  C   UNL A   1     -24.541  -5.204  28.840  0.00  0.00    +0.108 C 
ENDBRANCH   8   9
ENDBRANCH   1   8
TORSDOF 2
ENDMDL
ENDMDL
