REMARK  Name = No_2799-gen_results/8p0m/2024-11-26-14-13-15/
REMARK  2 active torsions:
REMARK  status: ('A' for Active; 'I' for Inactive)
REMARK    1  A    between atoms: C_1  and  C_2
REMARK    2  A    between atoms: C_1  and  N_8
REMARK                            x       y       z     vdW  Elec       q    Type
REMARK                         _______ _______ _______ _____ _____    ______ ____
ROOT
ATOM      1  C   UNL A   1     -27.064  -0.119  28.608  0.00  0.00    -0.005 A 
ATOM      2  C   UNL A   1     -26.972   0.714  27.506  0.00  0.00    -0.002 A 
ATOM      3  C   UNL A   1     -25.820   1.491  27.116  0.00  0.00    +0.011 A 
ATOM      4  C   UNL A   1     -24.656   1.424  27.918  0.00  0.00    +0.058 A 
ATOM      5  C   UNL A   1     -24.711   0.542  29.051  0.00  0.00    +0.011 A 
ATOM      6  C   UNL A   1     -25.804  -0.206  29.388  0.00  0.00    -0.002 A 
ATOM      7 CL   UNL A   1     -23.274   2.301  27.570  0.00  0.00    -0.082 Cl
ENDROOT
BRANCH   1   8
ATOM      8  C   UNL A   1     -28.016  -0.814  28.878  0.00  0.00    +0.115 C 
BRANCH   8   9
ATOM      9  N   UNL A   1     -29.206  -0.164  28.996  0.00  0.00    -0.212 NA
ATOM     10  C   UNL A   1     -30.261  -0.740  29.607  0.00  0.00    +0.108 C 
ENDBRANCH   8   9
ENDBRANCH   1   8
TORSDOF 2
