MODEL 279
MODEL 1
REMARK VINA RESULT:    -7.743      0.000      0.000
REMARK INTER + INTRA:         -14.160
REMARK INTER:                 -10.912
REMARK INTRA:                  -3.248
REMARK UNBOUND:                -3.248
REMARK  Name = No_279-gen_results/8p0m/2024-11-26-14-13-15/
REMARK  7 active torsions:
REMARK  status: ('A' for Active; 'I' for Inactive)
REMARK    1  A    between atoms: C_3  and  C_7
REMARK    2  A    between atoms: C_6  and  O_15
REMARK    3  A    between atoms: C_7  and  C_8
REMARK    4  A    between atoms: O_15  and  C_16
REMARK    5  A    between atoms: C_16  and  C_17
REMARK    6  A    between atoms: C_17  and  C_23
REMARK    7  A    between atoms: C_23  and  C_25
REMARK                            x       y       z     vdW  Elec       q    Type
REMARK                         _______ _______ _______ _____ _____    ______ ____
ROOT
ATOM      1  O   UNL A   1      -8.317   1.937  33.709  0.00  0.00    -0.424 OA
ENDROOT
BRANCH   1   7
ATOM      2  C   UNL A   1     -10.008   3.384  34.670  0.00  0.00    +0.037 A 
ATOM      3  C   UNL A   1     -11.173   3.596  34.916  0.00  0.00    -0.001 A 
ATOM      4  C   UNL A   1     -12.194   2.681  34.659  0.00  0.00    -0.018 A 
ATOM      5  C   UNL A   1     -11.871   1.426  34.010  0.00  0.00    -0.001 A 
ATOM      6  C   UNL A   1     -10.519   1.231  33.728  0.00  0.00    +0.037 A 
ATOM      7  C   UNL A   1      -9.619   2.157  33.995  0.00  0.00    +0.148 A 
BRANCH   4   8
ATOM      8  C   UNL A   1     -13.655   2.863  34.937  0.00  0.00    +0.045 C 
ATOM      9  C   UNL A   1     -14.497   2.946  33.676  0.00  0.00    +0.009 C 
BRANCH   8  10
ATOM     10  C   UNL A   1     -14.108   3.012  36.149  0.00  0.00    -0.018 A 
ATOM     11  C   UNL A   1     -13.799   2.962  37.168  0.00  0.00    -0.004 A 
ATOM     12  C   UNL A   1     -14.578   3.149  38.376  0.00  0.00    -0.000 A 
ATOM     13  C   UNL A   1     -15.723   3.549  38.262  0.00  0.00    -0.000 A 
ATOM     14  C   UNL A   1     -15.618   3.533  35.999  0.00  0.00    -0.004 A 
ATOM     15  C   UNL A   1     -16.330   3.768  37.086  0.00  0.00    -0.000 A 
ENDBRANCH   8  10
ENDBRANCH   4   8
ENDBRANCH   1   7
BRANCH   1  16
ATOM     16  C   UNL A   1      -7.436   1.784  34.774  0.00  0.00    +0.321 C 
ATOM     17  O   UNL A   1      -7.044   2.945  35.199  0.00  0.00    -0.250 OA
BRANCH  16  18
ATOM     18  C   UNL A   1      -7.099   0.569  35.106  0.00  0.00    +0.094 C 
ATOM     19  C   UNL A   1      -7.603  -0.439  34.515  0.00  0.00    +0.011 C 
ATOM     20  C   UNL A   1      -7.078  -1.443  34.401  0.00  0.00    +0.001 C 
ATOM     21  C   UNL A   1      -5.880  -1.614  34.481  0.00  0.00    +0.000 C 
ATOM     22  C   UNL A   1      -5.125  -0.659  35.253  0.00  0.00    +0.001 C 
ATOM     23  C   UNL A   1      -5.514   0.525  35.090  0.00  0.00    +0.011 C 
BRANCH  18  24
ATOM     24  C   UNL A   1      -7.512   0.438  36.671  0.00  0.00    +0.037 C 
BRANCH  24  25
ATOM     25  C   UNL A   1      -8.889   0.437  36.946  0.00  0.00    -0.022 A 
ATOM     26  C   UNL A   1      -9.339   1.534  37.715  0.00  0.00    -0.004 A 
ATOM     27  C   UNL A   1     -10.390   1.594  38.259  0.00  0.00    -0.000 A 
ATOM     28  C   UNL A   1     -11.443   0.590  38.029  0.00  0.00    -0.000 A 
ATOM     29  C   UNL A   1     -10.999  -0.521  37.298  0.00  0.00    -0.000 A 
ATOM     30  C   UNL A   1      -9.736  -0.568  36.833  0.00  0.00    -0.004 A 
ENDBRANCH  24  25
ENDBRANCH  18  24
ENDBRANCH  16  18
ENDBRANCH   1  16
TORSDOF 7
ENDMDL
ENDMDL
