MODEL 27
MODEL 1
REMARK VINA RESULT:    -8.137      0.000      0.000
REMARK INTER + INTRA:         -11.357
REMARK INTER:                 -10.515
REMARK INTRA:                  -0.842
REMARK UNBOUND:                -0.842
REMARK  Name = No_27-gen_results/8p0m/2024-11-26-14-13-15/
REMARK  5 active torsions:
REMARK  status: ('A' for Active; 'I' for Inactive)
REMARK    1  A    between atoms: C_3  and  C_9
REMARK    2  A    between atoms: C_11  and  C_15
REMARK    3  A    between atoms: C_15  and  N_16
REMARK    4  A    between atoms: N_16  and  N_17
REMARK    5  A    between atoms: C_18  and  C_19
REMARK                            x       y       z     vdW  Elec       q    Type
REMARK                         _______ _______ _______ _____ _____    ______ ____
ROOT
ATOM      1  C   UNL A   1     -24.431   1.456  26.150  0.00  0.00    +0.001 A 
ATOM      2  C   UNL A   1     -24.084   1.166  27.289  0.00  0.00    -0.003 A 
ATOM      3  C   UNL A   1     -22.746   1.296  27.852  0.00  0.00    +0.001 A 
ATOM      4  C   UNL A   1     -21.722   1.802  27.019  0.00  0.00    -0.003 A 
ATOM      5  C   UNL A   1     -22.090   2.217  25.725  0.00  0.00    -0.000 A 
ATOM      6  C   UNL A   1     -23.403   2.066  25.216  0.00  0.00    +0.000 A 
ENDROOT
BRANCH   1   9
ATOM      7 CL   UNL A   1     -25.569  -0.696  24.833  0.00  0.00    -0.082 Cl
ATOM      8  C   UNL A   1     -26.251   0.318  24.826  0.00  0.00    +0.060 A 
ATOM      9  C   UNL A   1     -25.741   1.415  25.452  0.00  0.00    +0.011 A 
ATOM     10  C   UNL A   1     -26.447   2.740  25.501  0.00  0.00    +0.003 A 
ATOM     11  C   UNL A   1     -27.691   2.746  24.844  0.00  0.00    +0.030 A 
ATOM     12  C   UNL A   1     -28.193   1.678  24.277  0.00  0.00    +0.141 A 
ATOM     13  C   UNL A   1     -27.521   0.464  24.281  0.00  0.00    +0.041 A 
ATOM     14  F   UNL A   1     -29.400   1.714  23.720  0.00  0.00    -0.204 F 
ENDBRANCH   1   9
BRANCH   3  15
ATOM     15  C   UNL A   1     -22.331   0.923  29.185  0.00  0.00    +0.162 C 
BRANCH  15  16
ATOM     16  N   UNL A   1     -23.016   0.326  29.903  0.00  0.00    -0.139 NA
BRANCH  16  17
ATOM     17  N   UNL A   1     -23.157  -0.990  29.719  0.00  0.00    -0.162 NA
ATOM     18  C   UNL A   1     -24.551  -1.447  29.503  0.00  0.00    +0.119 C 
BRANCH  18  19
ATOM     19  C   UNL A   1     -24.741  -2.839  29.324  0.00  0.00    +0.021 A 
ATOM     20  C   UNL A   1     -23.947  -3.608  28.738  0.00  0.00    +0.002 A 
ATOM     21  C   UNL A   1     -24.176  -5.037  28.633  0.00  0.00    +0.000 A 
ATOM     22  C   UNL A   1     -25.397  -5.480  29.078  0.00  0.00    +0.000 A 
ATOM     23  C   UNL A   1     -25.990  -3.437  29.831  0.00  0.00    +0.002 A 
ATOM     24  C   UNL A   1     -26.286  -4.741  29.733  0.00  0.00    +0.000 A 
ENDBRANCH  18  19
ENDBRANCH  16  17
ENDBRANCH  15  16
ENDBRANCH   3  15
TORSDOF 5
ENDMDL
ENDMDL
