REMARK  Name = No_28-gen_results/8p0m/2024-11-26-14-13-15/
REMARK  9 active torsions:
REMARK  status: ('A' for Active; 'I' for Inactive)
REMARK    1  A    between atoms: P_1  and  O_2
REMARK    2  A    between atoms: P_1  and  O_3
REMARK    3  A    between atoms: P_1  and  O_5
REMARK    4  A    between atoms: O_2  and  C_6
REMARK    5  A    between atoms: O_5  and  C_16
REMARK    6  A    between atoms: C_8  and  C_12
REMARK    7  A    between atoms: C_10  and  C_22
REMARK    8  A    between atoms: C_16  and  C_17
REMARK    9  A    between atoms: C_22  and  C_23
REMARK                            x       y       z     vdW  Elec       q    Type
REMARK                         _______ _______ _______ _____ _____    ______ ____
ROOT
ATOM      1  C   UNL A   1     -25.939   0.258  28.602  0.00  0.00    +0.149 A 
ATOM      2  C   UNL A   1     -25.216   1.130  27.685  0.00  0.00    +0.041 A 
ATOM      3  C   UNL A   1     -23.814   1.189  27.973  0.00  0.00    +0.074 A 
ATOM      4  C   UNL A   1     -23.402   1.099  29.040  0.00  0.00    -0.000 A 
ATOM      5  C   UNL A   1     -24.042   0.365  30.106  0.00  0.00    -0.018 A 
ATOM      6  C   UNL A   1     -25.375   0.080  29.859  0.00  0.00    +0.033 A 
ENDROOT
BRANCH   3   7
ATOM      7  C   UNL A   1     -23.200   2.283  27.065  0.00  0.00    +0.419 C 
ATOM      8  F   UNL A   1     -21.913   2.125  27.006  0.00  0.00    -0.166 F 
ATOM      9  F   UNL A   1     -23.388   3.556  27.473  0.00  0.00    -0.166 F 
ATOM     10  F   UNL A   1     -23.552   2.261  25.775  0.00  0.00    -0.166 F 
ENDBRANCH   3   7
BRANCH   1  11
ATOM     11  O   UNL A   1     -27.240   0.061  28.428  0.00  0.00    -0.401 OA
BRANCH  11  12
ATOM     12  P   UNL A   1     -27.951  -0.579  29.040  0.00  0.00    +0.567 P 
ATOM     13  O   UNL A   1     -28.184  -0.028  30.520  0.00  0.00    -0.213 OA
BRANCH  12  14
ATOM     14  O   UNL A   1     -27.244  -1.982  29.377  0.00  0.00    -0.073 OA
ATOM     15  F   UNL A   1     -28.020  -2.909  29.751  0.00  0.00    -0.036 F 
ENDBRANCH  12  14
BRANCH  12  16
ATOM     16  O   UNL A   1     -29.399  -0.915  28.649  0.00  0.00    -0.224 OA
BRANCH  16  17
ATOM     17  C   UNL A   1     -29.989   0.003  27.748  0.00  0.00    +0.382 C 
ATOM     18  O   UNL A   1     -29.149   0.658  26.923  0.00  0.00    -0.176 OA
BRANCH  17  19
ATOM     19  C   UNL A   1     -31.155  -0.584  27.119  0.00  0.00    +0.424 C 
ATOM     20  O   UNL A   1     -31.599  -1.535  27.509  0.00  0.00    -0.240 OA
ATOM     21  O   UNL A   1     -31.606  -0.001  26.016  0.00  0.00    -0.240 OA
ENDBRANCH  17  19
ENDBRANCH  16  17
ENDBRANCH  12  16
ENDBRANCH  11  12
ENDBRANCH   1  11
BRANCH   5  22
ATOM     22  C   UNL A   1     -23.393   0.141  31.402  0.00  0.00    +0.039 C 
BRANCH  22  23
ATOM     23  C   UNL A   1     -23.990  -1.006  32.182  0.00  0.00    +0.072 C 
ATOM     24 BR   UNL A   1     -24.802  -0.375  33.046  0.00  0.00    -0.080 Br
ENDBRANCH  22  23
ENDBRANCH   5  22
TORSDOF 9
