MODEL 2800
MODEL 1
REMARK VINA RESULT:    -4.354      0.000      0.000
REMARK INTER + INTRA:          -4.354
REMARK INTER:                  -4.354
REMARK INTRA:                   0.000
REMARK UNBOUND:                 0.000
REMARK  Name = No_2800-gen_results/8p0m/2024-11-26-14-13-15/
REMARK  0 active torsions:
REMARK  status: ('A' for Active; 'I' for Inactive)
REMARK                            x       y       z     vdW  Elec       q    Type
REMARK                         _______ _______ _______ _____ _____    ______ ____
ROOT
ATOM      1  C   UNL A   1     -24.945  -5.426  29.040  0.00  0.00    +0.000 A 
ATOM      2  C   UNL A   1     -24.209  -4.753  28.699  0.00  0.00    +0.000 A 
ATOM      3  C   UNL A   1     -26.131  -4.764  29.596  0.00  0.00    +0.000 A 
ATOM      4  C   UNL A   1     -26.182  -3.449  29.814  0.00  0.00    +0.000 A 
ATOM      5  C   UNL A   1     -24.035  -3.327  28.839  0.00  0.00    +0.000 A 
ATOM      6  C   UNL A   1     -25.137  -2.734  29.380  0.00  0.00    +0.000 A 
ENDROOT
TORSDOF 0
ENDMDL
ENDMDL
