MODEL 2801
MODEL 1
REMARK VINA RESULT:    -4.277      0.000      0.000
REMARK INTER + INTRA:          -4.277
REMARK INTER:                  -4.277
REMARK INTRA:                   0.000
REMARK UNBOUND:                 0.000
REMARK  Name = No_2801-gen_results/8p0m/2024-11-26-14-13-15/
REMARK  0 active torsions:
REMARK  status: ('A' for Active; 'I' for Inactive)
REMARK                            x       y       z     vdW  Elec       q    Type
REMARK                         _______ _______ _______ _____ _____    ______ ____
ROOT
ATOM      1  C   UNL A   1     -26.064  -4.826  29.661  0.00  0.00    +0.000 A 
ATOM      2  C   UNL A   1     -26.187  -3.626  29.732  0.00  0.00    +0.000 A 
ATOM      3  C   UNL A   1     -25.211  -2.732  29.336  0.00  0.00    +0.000 A 
ATOM      4  C   UNL A   1     -24.012  -3.259  28.778  0.00  0.00    +0.000 A 
ATOM      5  C   UNL A   1     -23.992  -4.595  28.563  0.00  0.00    +0.000 A 
ATOM      6  C   UNL A   1     -24.991  -5.370  28.938  0.00  0.00    +0.000 A 
ENDROOT
TORSDOF 0
ENDMDL
ENDMDL
