MODEL 2802
MODEL 1
REMARK VINA RESULT:    -4.246      0.000      0.000
REMARK INTER + INTRA:          -4.246
REMARK INTER:                  -4.246
REMARK INTRA:                   0.000
REMARK UNBOUND:                 0.000
REMARK  Name = No_2802-gen_results/8p0m/2024-11-26-14-13-15/
REMARK  0 active torsions:
REMARK  status: ('A' for Active; 'I' for Inactive)
REMARK                            x       y       z     vdW  Elec       q    Type
REMARK                         _______ _______ _______ _____ _____    ______ ____
ROOT
ATOM      1  C   UNL A   1     -24.973  -5.327  28.940  0.00  0.00    +0.000 A 
ATOM      2  C   UNL A   1     -24.154  -4.691  28.753  0.00  0.00    +0.000 A 
ATOM      3  C   UNL A   1     -26.133  -4.726  29.618  0.00  0.00    +0.000 A 
ATOM      4  C   UNL A   1     -26.179  -3.323  29.869  0.00  0.00    +0.000 A 
ATOM      5  C   UNL A   1     -23.971  -3.218  28.859  0.00  0.00    +0.000 A 
ATOM      6  C   UNL A   1     -25.023  -2.625  29.492  0.00  0.00    +0.000 A 
ENDROOT
TORSDOF 0
ENDMDL
ENDMDL
