REMARK  Name = No_2803-gen_results/8p0m/2024-11-26-14-13-15/
REMARK  4 active torsions:
REMARK  status: ('A' for Active; 'I' for Inactive)
REMARK    1  A    between atoms: C_2  and  O_7
REMARK    2  A    between atoms: O_7  and  C_8
REMARK    3  A    between atoms: C_9  and  C_10
REMARK    4  A    between atoms: C_10  and  C_11
REMARK                            x       y       z     vdW  Elec       q    Type
REMARK                         _______ _______ _______ _____ _____    ______ ____
ROOT
ATOM      1  O   UNL A   1     -29.927  -0.726  29.877  0.00  0.00    -0.451 OA
ENDROOT
BRANCH   1   3
ATOM      2  C   UNL A   1     -28.016  -0.814  28.878  0.00  0.00    +0.037 A 
ATOM      3  C   UNL A   1     -28.469  -0.785  29.829  0.00  0.00    +0.145 A 
ATOM      4  C   UNL A   1     -26.546  -0.876  28.850  0.00  0.00    +0.003 A 
ATOM      5  C   UNL A   1     -25.804  -1.032  30.057  0.00  0.00    +0.000 A 
ATOM      6  C   UNL A   1     -27.944  -0.987  31.207  0.00  0.00    +0.037 A 
ATOM      7  C   UNL A   1     -26.582  -1.039  31.223  0.00  0.00    +0.003 A 
ENDBRANCH   1   3
BRANCH   1   8
ATOM      8  C   UNL A   1     -30.505  -0.024  28.962  0.00  0.00    +0.175 C 
ATOM      9  C   UNL A   1     -31.377  -0.399  28.117  0.00  0.00    +0.019 C 
BRANCH   9  10
ATOM     10  C   UNL A   1     -31.710  -0.050  27.194  0.00  0.00    +0.055 C 
BRANCH  10  11
ATOM     11  C   UNL A   1     -32.583  -0.721  26.143  0.00  0.00    -0.026 C 
ATOM     12  C   UNL A   1     -32.951  -2.042  26.417  0.00  0.00    -0.030 C 
ATOM     13  C   UNL A   1     -32.488  -2.615  27.595  0.00  0.00    +0.030 C 
ENDBRANCH  10  11
ENDBRANCH   9  10
ENDBRANCH   1   8
TORSDOF 4
