MODEL 2803
MODEL 1
REMARK VINA RESULT:    -5.680      0.000      0.000
REMARK INTER + INTRA:          -7.341
REMARK INTER:                  -7.008
REMARK INTRA:                  -0.333
REMARK UNBOUND:                -0.333
REMARK  Name = No_2803-gen_results/8p0m/2024-11-26-14-13-15/
REMARK  4 active torsions:
REMARK  status: ('A' for Active; 'I' for Inactive)
REMARK    1  A    between atoms: C_2  and  O_7
REMARK    2  A    between atoms: O_7  and  C_8
REMARK    3  A    between atoms: C_9  and  C_10
REMARK    4  A    between atoms: C_10  and  C_11
REMARK                            x       y       z     vdW  Elec       q    Type
REMARK                         _______ _______ _______ _____ _____    ______ ____
ROOT
ATOM      1  O   UNL A   1     -24.380  -1.274  29.638  0.00  0.00    -0.451 OA
ENDROOT
BRANCH   1   3
ATOM      2  C   UNL A   1     -23.859  -3.234  28.900  0.00  0.00    +0.037 A 
ATOM      3  C   UNL A   1     -24.601  -2.702  29.425  0.00  0.00    +0.145 A 
ATOM      4  C   UNL A   1     -24.100  -4.671  28.693  0.00  0.00    +0.003 A 
ATOM      5  C   UNL A   1     -25.344  -5.258  29.068  0.00  0.00    +0.000 A 
ATOM      6  C   UNL A   1     -25.980  -3.052  29.863  0.00  0.00    +0.037 A 
ATOM      7  C   UNL A   1     -26.238  -4.380  29.696  0.00  0.00    +0.003 A 
ENDBRANCH   1   3
BRANCH   1   8
ATOM      8  C   UNL A   1     -24.172  -0.561  28.583  0.00  0.00    +0.175 C 
ATOM      9  C   UNL A   1     -23.208   0.234  28.350  0.00  0.00    +0.019 C 
BRANCH   9  10
ATOM     10  C   UNL A   1     -23.055   1.042  27.711  0.00  0.00    +0.055 C 
BRANCH  10  11
ATOM     11  C   UNL A   1     -23.978   2.194  27.339  0.00  0.00    -0.026 C 
ATOM     12  C   UNL A   1     -23.761   2.759  26.079  0.00  0.00    -0.030 C 
ATOM     13  C   UNL A   1     -22.736   2.237  25.299  0.00  0.00    +0.030 C 
ENDBRANCH  10  11
ENDBRANCH   9  10
ENDBRANCH   1   8
TORSDOF 4
ENDMDL
ENDMDL
