REMARK  Name = No_2804-gen_results/8p0m/2024-11-26-14-13-15/
REMARK  3 active torsions:
REMARK  status: ('A' for Active; 'I' for Inactive)
REMARK    1  A    between atoms: C_2  and  C_10
REMARK    2  A    between atoms: C_5  and  C_7
REMARK    3  A    between atoms: C_10  and  C_11
REMARK                            x       y       z     vdW  Elec       q    Type
REMARK                         _______ _______ _______ _____ _____    ______ ____
ROOT
ATOM      1  C   UNL A   1     -28.016  -0.814  28.878  0.00  0.00    +0.003 A 
ATOM      2  C   UNL A   1     -27.064  -0.119  28.608  0.00  0.00    -0.018 A 
ATOM      3  C   UNL A   1     -26.876   1.133  28.913  0.00  0.00    -0.004 A 
ATOM      4  C   UNL A   1     -27.901   1.807  29.644  0.00  0.00    -0.000 A 
ATOM      5  C   UNL A   1     -29.052  -0.227  29.712  0.00  0.00    +0.080 A 
ATOM      6  C   UNL A   1     -28.963   1.083  30.043  0.00  0.00    +0.007 A 
ENDROOT
BRANCH   5   7
ATOM      7  C   UNL A   1     -30.174  -1.109  30.119  0.00  0.00    +0.388 C 
ATOM      8  O   UNL A   1     -31.156  -1.112  29.622  0.00  0.00    -0.241 OA
ATOM      9  O   UNL A   1     -29.873  -2.007  31.118  0.00  0.00    -0.241 OA
ENDBRANCH   5   7
BRANCH   2  10
ATOM     10  C   UNL A   1     -25.892  -0.886  27.910  0.00  0.00    +0.053 C 
BRANCH  10  11
ATOM     11  C   UNL A   1     -24.539  -0.727  28.650  0.00  0.00    -0.018 A 
ATOM     12  C   UNL A   1     -24.083  -1.783  29.454  0.00  0.00    -0.004 A 
ATOM     13  C   UNL A   1     -23.703   0.345  28.354  0.00  0.00    -0.004 A 
ATOM     14  C   UNL A   1     -22.363   0.296  28.972  0.00  0.00    -0.000 A 
ATOM     15  C   UNL A   1     -21.959  -0.713  29.735  0.00  0.00    -0.000 A 
ATOM     16  C   UNL A   1     -22.792  -1.758  29.986  0.00  0.00    -0.000 A 
ENDBRANCH  10  11
ENDBRANCH   2  10
TORSDOF 3
