REMARK  Name = No_2805-gen_results/8p0m/2024-11-26-14-13-15/
REMARK  3 active torsions:
REMARK  status: ('A' for Active; 'I' for Inactive)
REMARK    1  A    between atoms: C_2  and  C_8
REMARK    2  A    between atoms: C_9  and  C_10
REMARK    3  A    between atoms: C_11  and  C_12
REMARK                            x       y       z     vdW  Elec       q    Type
REMARK                         _______ _______ _______ _____ _____    ______ ____
ROOT
ATOM      1  C   UNL A   1     -28.016  -0.814  28.878  0.00  0.00    +0.009 C 
ATOM      2  C   UNL A   1     -27.064  -0.119  28.608  0.00  0.00    +0.044 C 
ATOM      3  C   UNL A   1     -25.792  -0.430  29.076  0.00  0.00    -0.027 C 
ATOM      4  C   UNL A   1     -25.270  -0.049  30.012  0.00  0.00    -0.030 C 
ATOM      5  C   UNL A   1     -27.885  -1.668  30.112  0.00  0.00    +0.001 C 
ATOM      6  C   UNL A   1     -26.925  -1.604  31.180  0.00  0.00    +0.005 C 
ATOM      7  C   UNL A   1     -25.620  -1.159  31.039  0.00  0.00    +0.026 C 
ENDROOT
BRANCH   2   8
ATOM      8  C   UNL A   1     -27.168   0.742  27.383  0.00  0.00    -0.022 C 
ATOM      9  C   UNL A   1     -28.164   1.237  27.056  0.00  0.00    -0.004 C 
BRANCH   9  10
ATOM     10  C   UNL A   1     -28.300   2.067  25.834  0.00  0.00    -0.000 C 
ATOM     11  C   UNL A   1     -29.521   2.631  25.380  0.00  0.00    -0.000 C 
BRANCH  11  12
ATOM     12  C   UNL A   1     -30.623   2.460  26.169  0.00  0.00    -0.005 C 
ATOM     13  C   UNL A   1     -30.557   1.725  27.296  0.00  0.00    -0.026 C 
ATOM     14  C   UNL A   1     -29.442   1.141  27.744  0.00  0.00    +0.031 C 
ENDBRANCH  11  12
ENDBRANCH   9  10
ENDBRANCH   2   8
TORSDOF 3
