MODEL 2805
MODEL 1
REMARK VINA RESULT:    -6.925      0.000      0.000
REMARK INTER + INTRA:          -8.709
REMARK INTER:                  -8.140
REMARK INTRA:                  -0.569
REMARK UNBOUND:                -0.569
REMARK  Name = No_2805-gen_results/8p0m/2024-11-26-14-13-15/
REMARK  3 active torsions:
REMARK  status: ('A' for Active; 'I' for Inactive)
REMARK    1  A    between atoms: C_2  and  C_8
REMARK    2  A    between atoms: C_9  and  C_10
REMARK    3  A    between atoms: C_11  and  C_12
REMARK                            x       y       z     vdW  Elec       q    Type
REMARK                         _______ _______ _______ _____ _____    ______ ____
ROOT
ATOM      1  C   UNL A   1     -25.223  -2.110  29.872  0.00  0.00    +0.009 C 
ATOM      2  C   UNL A   1     -24.204  -2.494  29.346  0.00  0.00    +0.044 C 
ATOM      3  C   UNL A   1     -24.207  -3.585  28.485  0.00  0.00    -0.027 C 
ATOM      4  C   UNL A   1     -23.994  -4.676  28.725  0.00  0.00    -0.030 C 
ATOM      5  C   UNL A   1     -26.331  -3.124  29.988  0.00  0.00    +0.001 C 
ATOM      6  C   UNL A   1     -26.296  -4.552  29.822  0.00  0.00    +0.005 C 
ATOM      7  C   UNL A   1     -25.423  -5.224  28.982  0.00  0.00    +0.026 C 
ENDROOT
BRANCH   2   8
ATOM      8  C   UNL A   1     -23.084  -1.503  29.218  0.00  0.00    -0.022 C 
ATOM      9  C   UNL A   1     -23.188  -0.526  28.603  0.00  0.00    -0.004 C 
BRANCH   9  10
ATOM     10  C   UNL A   1     -22.086   0.454  28.435  0.00  0.00    -0.000 C 
ATOM     11  C   UNL A   1     -22.191   1.658  27.691  0.00  0.00    -0.000 C 
BRANCH  11  12
ATOM     12  C   UNL A   1     -23.414   1.966  27.165  0.00  0.00    -0.005 C 
ATOM     13  C   UNL A   1     -23.537   2.328  25.873  0.00  0.00    -0.026 C 
ATOM     14  C   UNL A   1     -22.517   2.390  25.013  0.00  0.00    +0.031 C 
ENDBRANCH  11  12
ENDBRANCH   9  10
ENDBRANCH   2   8
TORSDOF 3
ENDMDL
ENDMDL
