MODEL 2806
MODEL 1
REMARK VINA RESULT:    -6.626      0.000      0.000
REMARK INTER + INTRA:          -6.626
REMARK INTER:                  -6.626
REMARK INTRA:                   0.000
REMARK UNBOUND:                 0.000
REMARK  Name = No_2806-gen_results/8p0m/2024-11-26-14-13-15/
REMARK  0 active torsions:
REMARK  status: ('A' for Active; 'I' for Inactive)
REMARK                            x       y       z     vdW  Elec       q    Type
REMARK                         _______ _______ _______ _____ _____    ______ ____
ROOT
ATOM      1  C   UNL A   1     -27.581 -12.355  32.203  0.00  0.00    -0.004 C 
ATOM      2  C   UNL A   1     -28.303 -11.713  31.475  0.00  0.00    -0.021 C 
ATOM      3  C   UNL A   1     -28.478 -11.994  30.121  0.00  0.00    +0.052 C 
ATOM      4  C   UNL A   1     -29.325 -11.260  29.160  0.00  0.00    -0.021 A 
ATOM      5  C   UNL A   1     -30.207 -10.289  29.724  0.00  0.00    -0.021 A 
ATOM      6  C   UNL A   1     -31.065  -9.584  28.881  0.00  0.00    -0.004 A 
ATOM      7  C   UNL A   1     -31.133  -9.978  27.520  0.00  0.00    -0.000 A 
ATOM      8  C   UNL A   1     -30.306 -10.919  26.982  0.00  0.00    -0.000 A 
ATOM      9  C   UNL A   1     -29.403 -11.626  27.833  0.00  0.00    -0.004 A 
ATOM     10  C   UNL A   1     -27.172 -11.832  33.469  0.00  0.00    -0.000 C 
ATOM     11  C   UNL A   1     -27.934 -10.802  34.001  0.00  0.00    -0.000 C 
ATOM     12  C   UNL A   1     -28.892 -10.187  33.250  0.00  0.00    -0.004 C 
ATOM     13  C   UNL A   1     -29.103 -10.534  31.927  0.00  0.00    -0.021 C 
ATOM     14  C   UNL A   1     -30.022  -9.899  31.069  0.00  0.00    +0.052 C 
ENDROOT
TORSDOF 0
ENDMDL
ENDMDL
