REMARK  Name = No_2806-gen_results/8p0m/2024-11-26-14-13-15/
REMARK  0 active torsions:
REMARK  status: ('A' for Active; 'I' for Inactive)
REMARK                            x       y       z     vdW  Elec       q    Type
REMARK                         _______ _______ _______ _____ _____    ______ ____
ROOT
ATOM      1  C   UNL A   1     -28.016  -0.814  28.878  0.00  0.00    -0.004 C 
ATOM      2  C   UNL A   1     -27.064  -0.119  28.608  0.00  0.00    -0.021 C 
ATOM      3  C   UNL A   1     -25.765  -0.390  29.036  0.00  0.00    +0.052 C 
ATOM      4  C   UNL A   1     -24.552   0.406  28.765  0.00  0.00    -0.021 A 
ATOM      5  C   UNL A   1     -24.696   1.448  27.799  0.00  0.00    -0.021 A 
ATOM      6  C   UNL A   1     -23.582   2.217  27.463  0.00  0.00    -0.004 A 
ATOM      7  C   UNL A   1     -22.321   1.824  27.981  0.00  0.00    -0.000 A 
ATOM      8  C   UNL A   1     -22.178   0.817  28.888  0.00  0.00    -0.000 A 
ATOM      9  C   UNL A   1     -23.318   0.042  29.260  0.00  0.00    -0.004 A 
ATOM     10  C   UNL A   1     -29.348  -0.321  28.717  0.00  0.00    -0.000 C 
ATOM     11  C   UNL A   1     -29.518   0.770  27.877  0.00  0.00    -0.000 C 
ATOM     12  C   UNL A   1     -28.439   1.458  27.404  0.00  0.00    -0.004 C 
ATOM     13  C   UNL A   1     -27.150   1.123  27.781  0.00  0.00    -0.021 C 
ATOM     14  C   UNL A   1     -25.994   1.828  27.392  0.00  0.00    +0.052 C 
ENDROOT
TORSDOF 0
