REMARK  Name = No_2807-gen_results/8p0m/2024-11-26-14-13-15/
REMARK  6 active torsions:
REMARK  status: ('A' for Active; 'I' for Inactive)
REMARK    1  A    between atoms: C_6  and  C_8
REMARK    2  A    between atoms: C_9  and  O_17
REMARK    3  A    between atoms: C_13  and  C_14
REMARK    4  A    between atoms: O_17  and  C_18
REMARK    5  A    between atoms: C_19  and  C_20
REMARK    6  A    between atoms: C_20  and  C_22
REMARK                            x       y       z     vdW  Elec       q    Type
REMARK                         _______ _______ _______ _____ _____    ______ ____
ROOT
ATOM      1  C   UNL A   1     -30.029   1.691  30.875  0.00  0.00    +0.035 A 
ATOM      2  C   UNL A   1     -31.086   1.948  30.694  0.00  0.00    +0.145 A 
ATOM      3  C   UNL A   1     -32.016   2.598  31.596  0.00  0.00    +0.044 A 
ATOM      4  C   UNL A   1     -29.458   2.021  32.278  0.00  0.00    +0.003 A 
ATOM      5  C   UNL A   1     -30.289   2.658  33.194  0.00  0.00    +0.007 A 
ATOM      6  C   UNL A   1     -31.559   2.942  32.843  0.00  0.00    +0.083 A 
ENDROOT
BRANCH   1  12
ATOM      7  C   UNL A   1     -28.016  -0.814  28.878  0.00  0.00    +0.011 A 
ATOM      8  C   UNL A   1     -27.064  -0.119  28.608  0.00  0.00    +0.058 A 
ATOM      9  C   UNL A   1     -26.876   1.133  28.913  0.00  0.00    +0.011 A 
ATOM     10  C   UNL A   1     -27.901   1.807  29.644  0.00  0.00    +0.001 A 
ATOM     11  C   UNL A   1     -29.046  -0.232  29.718  0.00  0.00    +0.001 A 
ATOM     12  C   UNL A   1     -28.940   1.052  30.060  0.00  0.00    +0.003 A 
ATOM     13 CL   UNL A   1     -25.721  -0.823  27.689  0.00  0.00    -0.082 Cl
ENDBRANCH   1  12
BRANCH   6  14
ATOM     14  C   UNL A   1     -32.460   3.615  33.800  0.00  0.00    +0.388 C 
ATOM     15  O   UNL A   1     -32.091   4.119  34.809  0.00  0.00    -0.241 OA
ATOM     16  O   UNL A   1     -33.735   3.611  33.426  0.00  0.00    -0.241 OA
ENDBRANCH   6  14
BRANCH   2  17
ATOM     17  O   UNL A   1     -31.625   1.632  29.456  0.00  0.00    -0.451 OA
BRANCH  17  18
ATOM     18  C   UNL A   1     -32.539   0.709  29.266  0.00  0.00    +0.175 C 
ATOM     19  C   UNL A   1     -32.554   0.271  27.991  0.00  0.00    +0.022 C 
BRANCH  19  20
ATOM     20  C   UNL A   1     -31.802   0.867  27.023  0.00  0.00    +0.090 C 
ATOM     21  C   UNL A   1     -31.562   2.090  26.979  0.00  0.00    +0.013 C 
BRANCH  20  22
ATOM     22  C   UNL A   1     -31.189   0.000  25.955  0.00  0.00    +0.211 C 
ATOM     23  O   UNL A   1     -31.463  -1.136  25.873  0.00  0.00    -0.288 OA
ENDBRANCH  20  22
ENDBRANCH  19  20
ENDBRANCH  17  18
ENDBRANCH   2  17
TORSDOF 6
