MODEL 2808
MODEL 1
REMARK VINA RESULT:    -6.207      0.000      0.000
REMARK INTER + INTRA:          -6.766
REMARK INTER:                  -6.569
REMARK INTRA:                  -0.196
REMARK UNBOUND:                -0.196
REMARK  Name = No_2808-gen_results/8p0m/2024-11-26-14-13-15/
REMARK  1 active torsions:
REMARK  status: ('A' for Active; 'I' for Inactive)
REMARK    1  A    between atoms: C_2  and  C_3
REMARK                            x       y       z     vdW  Elec       q    Type
REMARK                         _______ _______ _______ _____ _____    ______ ____
ROOT
ATOM      1  N   UNL A   1     -22.776  -1.184  29.714  0.00  0.00    -0.172 NA
ATOM      2  C   UNL A   1     -23.542  -1.748  29.239  0.00  0.00    +0.194 C 
ATOM      3  N   UNL A   1     -24.057  -0.795  28.157  0.00  0.00    -0.166 NA
ATOM      4  C   UNL A   1     -23.321   0.427  27.970  0.00  0.00    +0.342 C 
ATOM      5  C   UNL A   1     -21.679  -0.557  29.038  0.00  0.00    +0.208 C 
ATOM      6  N   UNL A   1     -22.088   0.437  28.261  0.00  0.00    -0.168 NA
ATOM      7  O   UNL A   1     -23.767   1.207  26.992  0.00  0.00    -0.249 OA
ENDROOT
BRANCH   2   8
ATOM      8  C   UNL A   1     -24.114  -2.574  29.225  0.00  0.00    +0.014 A 
ATOM      9  C   UNL A   1     -25.418  -2.453  29.839  0.00  0.00    -0.001 A 
ATOM     10  C   UNL A   1     -26.395  -3.475  29.941  0.00  0.00    -0.000 A 
ATOM     11  C   UNL A   1     -26.060  -4.744  29.517  0.00  0.00    -0.000 A 
ATOM     12  C   UNL A   1     -24.863  -4.991  28.935  0.00  0.00    -0.000 A 
ATOM     13  C   UNL A   1     -23.912  -4.008  28.847  0.00  0.00    -0.001 A 
ENDBRANCH   2   8
TORSDOF 1
ENDMDL
ENDMDL
