REMARK  Name = No_2808-gen_results/8p0m/2024-11-26-14-13-15/
REMARK  1 active torsions:
REMARK  status: ('A' for Active; 'I' for Inactive)
REMARK    1  A    between atoms: C_2  and  C_3
REMARK                            x       y       z     vdW  Elec       q    Type
REMARK                         _______ _______ _______ _____ _____    ______ ____
ROOT
ATOM      1  N   UNL A   1     -28.054  -1.050  28.725  0.00  0.00    -0.172 NA
ATOM      2  C   UNL A   1     -27.746  -0.073  29.010  0.00  0.00    +0.194 C 
ATOM      3  N   UNL A   1     -28.698   0.273  30.158  0.00  0.00    -0.166 NA
ATOM      4  C   UNL A   1     -29.560  -0.782  30.621  0.00  0.00    +0.342 C 
ATOM      5  C   UNL A   1     -28.184  -2.163  29.618  0.00  0.00    +0.208 C 
ATOM      6  N   UNL A   1     -29.170  -1.980  30.486  0.00  0.00    -0.168 NA
ATOM      7  O   UNL A   1     -30.338  -0.461  31.648  0.00  0.00    -0.249 OA
ENDROOT
BRANCH   2   8
ATOM      8  C   UNL A   1     -27.174   0.733  28.825  0.00  0.00    +0.014 A 
ATOM      9  C   UNL A   1     -26.346   0.664  27.641  0.00  0.00    -0.001 A 
ATOM     10  C   UNL A   1     -25.462   1.671  27.177  0.00  0.00    -0.000 A 
ATOM     11  C   UNL A   1     -25.274   2.789  27.963  0.00  0.00    -0.000 A 
ATOM     12  C   UNL A   1     -25.981   2.966  29.103  0.00  0.00    -0.000 A 
ATOM     13  C   UNL A   1     -26.827   1.989  29.561  0.00  0.00    -0.001 A 
ENDBRANCH   2   8
TORSDOF 1
