MODEL 2809
MODEL 1
REMARK VINA RESULT:    -5.098      0.000      0.000
REMARK INTER + INTRA:          -5.553
REMARK INTER:                  -5.396
REMARK INTRA:                  -0.157
REMARK UNBOUND:                -0.157
REMARK  Name = No_2809-gen_results/8p0m/2024-11-26-14-13-15/
REMARK  1 active torsions:
REMARK  status: ('A' for Active; 'I' for Inactive)
REMARK    1  A    between atoms: C_3  and  C_4
REMARK                            x       y       z     vdW  Elec       q    Type
REMARK                         _______ _______ _______ _____ _____    ______ ____
ROOT
ATOM      1  C   UNL A   1     -26.524  -3.535  29.925  0.00  0.00    -0.000 A 
ATOM      2  C   UNL A   1     -25.861  -2.580  29.591  0.00  0.00    -0.000 A 
ATOM      3  C   UNL A   1     -24.659  -2.671  28.969  0.00  0.00    -0.000 A 
ATOM      4  C   UNL A   1     -26.049  -4.895  29.609  0.00  0.00    -0.000 A 
ATOM      5  C   UNL A   1     -24.869  -5.074  29.026  0.00  0.00    -0.000 A 
ATOM      6  C   UNL A   1     -24.125  -3.961  28.661  0.00  0.00    -0.000 A 
ENDROOT
BRANCH   3   7
ATOM      7  C   UNL A   1     -23.837  -1.513  28.553  0.00  0.00    -0.005 C 
ATOM      8  C   UNL A   1     -22.650  -1.253  29.315  0.00  0.00    -0.026 C 
ATOM      9  C   UNL A   1     -21.822  -0.158  29.022  0.00  0.00    +0.031 C 
ENDBRANCH   3   7
TORSDOF 1
ENDMDL
ENDMDL
