MODEL 280
MODEL 1
REMARK VINA RESULT:    -8.531      0.000      0.000
REMARK INTER + INTRA:         -12.675
REMARK INTER:                 -10.526
REMARK INTRA:                  -2.150
REMARK UNBOUND:                -2.150
REMARK  Name = No_280-gen_results/8p0m/2024-11-26-14-13-15/
REMARK  4 active torsions:
REMARK  status: ('A' for Active; 'I' for Inactive)
REMARK    1  A    between atoms: C_5  and  C_6
REMARK    2  A    between atoms: C_10  and  C_11
REMARK    3  A    between atoms: C_11  and  C_12
REMARK    4  A    between atoms: C_11  and  C_18
REMARK                            x       y       z     vdW  Elec       q    Type
REMARK                         _______ _______ _______ _____ _____    ______ ____
ROOT
ATOM      1  C   UNL A   1      -6.257   0.846  35.452  0.00  0.00    +0.061 A 
ATOM      2  C   UNL A   1      -7.360   0.455  35.147  0.00  0.00    -0.007 A 
ATOM      3  C   UNL A   1      -7.602  -0.776  34.571  0.00  0.00    -0.003 A 
ATOM      4  C   UNL A   1      -6.494  -1.645  34.362  0.00  0.00    +0.006 A 
ATOM      5  C   UNL A   1      -5.311  -1.233  34.874  0.00  0.00    +0.081 A 
ATOM      6  C   UNL A   1      -5.214  -0.037  35.439  0.00  0.00    +0.022 A 
ATOM      7  C   UNL A   1      -8.488   1.517  35.383  0.00  0.00    +0.034 C 
ATOM      8  C   UNL A   1      -8.237   2.864  35.047  0.00  0.00    +0.030 C 
ATOM      9  C   UNL A   1      -8.255   3.235  33.644  0.00  0.00    +0.067 C 
ATOM     10  C   UNL A   1      -7.484   4.343  33.112  0.00  0.00    +0.151 C 
ATOM     11  C   UNL A   1      -6.362   4.691  33.833  0.00  0.00    +0.066 C 
ATOM     12  C   UNL A   1      -6.013   4.113  35.107  0.00  0.00    +0.029 C 
ATOM     13  C   UNL A   1      -6.704   3.082  35.499  0.00  0.00    +0.093 C 
ATOM     14  N   UNL A   1      -6.206   1.819  35.524  0.00  0.00    -0.240 NA
ATOM     15  C   UNL A   1      -9.085   3.886  35.892  0.00  0.00    +0.003 C 
ATOM     16  O   UNL A   1      -7.754   4.876  31.967  0.00  0.00    -0.296 OA
ENDROOT
BRANCH   5  17
ATOM     17  C   UNL A   1      -4.245  -2.139  34.748  0.00  0.00    +0.388 C 
ATOM     18  O   UNL A   1      -3.530  -2.267  35.642  0.00  0.00    -0.241 OA
ATOM     19  O   UNL A   1      -3.794  -2.457  33.507  0.00  0.00    -0.241 OA
ENDBRANCH   5  17
BRANCH   7  20
ATOM     20  C   UNL A   1      -9.747   1.195  35.713  0.00  0.00    +0.049 C 
BRANCH  20  21
ATOM     21  C   UNL A   1      -9.981   0.366  36.947  0.00  0.00    -0.017 A 
ATOM     22  C   UNL A   1     -10.729  -0.622  37.025  0.00  0.00    +0.007 A 
ATOM     23  C   UNL A   1     -11.013  -1.317  38.239  0.00  0.00    +0.057 A 
ATOM     24  C   UNL A   1     -10.342  -0.878  39.392  0.00  0.00    +0.011 A 
ATOM     25  C   UNL A   1      -9.335   0.921  38.176  0.00  0.00    -0.004 A 
ATOM     26  C   UNL A   1      -9.568   0.254  39.393  0.00  0.00    +0.001 A 
ATOM     27 CL   UNL A   1     -12.054  -2.675  38.329  0.00  0.00    -0.082 Cl
ENDBRANCH  20  21
BRANCH  20  28
ATOM     28  C   UNL A   1     -10.856   1.150  34.894  0.00  0.00    -0.018 A 
ATOM     29  C   UNL A   1     -11.028   1.175  33.850  0.00  0.00    -0.004 A 
ATOM     30  C   UNL A   1     -12.360   1.170  33.133  0.00  0.00    -0.000 A 
ATOM     31  C   UNL A   1     -13.337   1.940  33.660  0.00  0.00    -0.000 A 
ATOM     32  C   UNL A   1     -13.158   2.400  35.055  0.00  0.00    -0.000 A 
ATOM     33  C   UNL A   1     -11.850   2.157  35.635  0.00  0.00    -0.004 A 
ENDBRANCH  20  28
ENDBRANCH   7  20
TORSDOF 4
ENDMDL
ENDMDL
