REMARK  Name = No_281-gen_results/8p0m/2024-11-26-14-13-15/
REMARK  4 active torsions:
REMARK  status: ('A' for Active; 'I' for Inactive)
REMARK    1  A    between atoms: C_3  and  C_4
REMARK    2  A    between atoms: C_7  and  C_13
REMARK    3  A    between atoms: N_14  and  C_15
REMARK    4  A    between atoms: C_15  and  C_16
REMARK                            x       y       z     vdW  Elec       q    Type
REMARK                         _______ _______ _______ _____ _____    ______ ____
ROOT
ATOM      1  C   UNL A   1     -28.016  -0.814  28.878  0.00  0.00    +0.002 A 
ATOM      2  C   UNL A   1     -27.064  -0.119  28.608  0.00  0.00    +0.000 A 
ATOM      3  C   UNL A   1     -25.765  -0.390  29.036  0.00  0.00    +0.000 A 
ATOM      4  C   UNL A   1     -27.829  -1.929  29.855  0.00  0.00    +0.019 A 
ATOM      5  C   UNL A   1     -26.588  -2.327  30.268  0.00  0.00    +0.002 A 
ATOM      6  C   UNL A   1     -25.456  -1.543  29.915  0.00  0.00    +0.000 A 
ENDROOT
BRANCH   3   7
ATOM      7  C   UNL A   1     -24.552   0.406  28.765  0.00  0.00    +0.000 A 
ATOM      8  C   UNL A   1     -23.230   0.118  29.258  0.00  0.00    +0.000 A 
ATOM      9  C   UNL A   1     -22.139   0.943  28.922  0.00  0.00    +0.000 A 
ATOM     10  C   UNL A   1     -22.230   1.909  27.872  0.00  0.00    +0.000 A 
ATOM     11  C   UNL A   1     -24.283   1.224  27.563  0.00  0.00    +0.000 A 
ATOM     12  C   UNL A   1     -23.347   2.035  27.267  0.00  0.00    +0.000 A 
ENDBRANCH   3   7
BRANCH   4  13
ATOM     13  C   UNL A   1     -28.981  -2.768  30.260  0.00  0.00    +0.093 C 
ATOM     14  N   UNL A   1     -28.834  -4.075  30.466  0.00  0.00    -0.264 NA
BRANCH  14  15
ATOM     15  C   UNL A   1     -29.929  -4.905  30.730  0.00  0.00    +0.152 C 
BRANCH  15  16
ATOM     16  C   UNL A   1     -30.764  -5.056  29.680  0.00  0.00    +0.002 A 
ATOM     17  C   UNL A   1     -30.809  -4.508  28.712  0.00  0.00    -0.002 A 
ATOM     18  C   UNL A   1     -31.749  -4.715  27.581  0.00  0.00    -0.000 A 
ATOM     19  C   UNL A   1     -32.513  -5.875  27.668  0.00  0.00    -0.000 A 
ATOM     20  C   UNL A   1     -32.441  -6.680  28.804  0.00  0.00    -0.000 A 
ATOM     21  C   UNL A   1     -31.583  -6.330  29.826  0.00  0.00    -0.002 A 
ENDBRANCH  15  16
ENDBRANCH  14  15
ENDBRANCH   4  13
TORSDOF 4
