REMARK  Name = No_2811-gen_results/8p0m/2024-11-26-14-13-15/
REMARK  7 active torsions:
REMARK  status: ('A' for Active; 'I' for Inactive)
REMARK    1  A    between atoms: C_1  and  C_2
REMARK    2  A    between atoms: C_5  and  C_9
REMARK    3  A    between atoms: N_8  and  C_14
REMARK    4  A    between atoms: C_14  and  C_15
REMARK    5  A    between atoms: C_15  and  O_16
REMARK    6  A    between atoms: O_16  and  C_17
REMARK    7  A    between atoms: C_17  and  C_18
REMARK                            x       y       z     vdW  Elec       q    Type
REMARK                         _______ _______ _______ _____ _____    ______ ____
ROOT
ATOM      1  C   UNL A   1     -28.016  -0.814  28.878  0.00  0.00    +0.249 C 
ATOM      2  N   UNL A   1     -27.982  -1.611  30.103  0.00  0.00    -0.272 N 
ATOM      3  O   UNL A   1     -29.211  -0.589  28.514  0.00  0.00    -0.270 OA
ATOM      4  C   UNL A   1     -26.742  -1.959  30.786  0.00  0.00    +0.115 C 
ENDROOT
BRANCH   1   5
ATOM      5  C   UNL A   1     -27.064  -0.119  28.608  0.00  0.00    +0.054 A 
ATOM      6  C   UNL A   1     -26.929   1.171  29.008  0.00  0.00    +0.005 A 
ATOM      7  C   UNL A   1     -25.770   2.034  28.688  0.00  0.00    +0.007 A 
ATOM      8  C   UNL A   1     -24.714   1.443  27.919  0.00  0.00    +0.080 A 
ATOM      9  C   UNL A   1     -24.859   0.078  27.584  0.00  0.00    +0.007 A 
ATOM     10  C   UNL A   1     -25.965  -0.661  27.916  0.00  0.00    +0.005 A 
BRANCH   8  11
ATOM     11  C   UNL A   1     -23.535   2.170  27.555  0.00  0.00    +0.388 C 
ATOM     12  O   UNL A   1     -23.419   3.010  26.997  0.00  0.00    -0.241 OA
ATOM     13  O   UNL A   1     -22.348   1.486  27.979  0.00  0.00    -0.241 OA
ENDBRANCH   8  11
ENDBRANCH   1   5
BRANCH   2  14
ATOM     14  C   UNL A   1     -29.105  -2.419  30.538  0.00  0.00    +0.126 C 
BRANCH  14  15
ATOM     15  C   UNL A   1     -29.562  -2.118  31.823  0.00  0.00    +0.164 C 
BRANCH  15  16
ATOM     16  O   UNL A   1     -29.407  -3.150  32.547  0.00  0.00    -0.347 OA
BRANCH  16  17
ATOM     17  C   UNL A   1     -30.559  -3.713  33.064  0.00  0.00    +0.169 C 
BRANCH  17  18
ATOM     18  C   UNL A   1     -30.715  -4.889  32.663  0.00  0.00    +0.007 A 
ATOM     19  C   UNL A   1     -31.735  -5.188  32.111  0.00  0.00    -0.002 A 
ATOM     20  C   UNL A   1     -31.953  -6.479  31.335  0.00  0.00    -0.000 A 
ATOM     21  C   UNL A   1     -31.118  -6.830  30.682  0.00  0.00    -0.000 A 
ATOM     22  C   UNL A   1     -29.675  -6.529  31.062  0.00  0.00    -0.000 A 
ATOM     23  C   UNL A   1     -29.525  -5.170  31.578  0.00  0.00    -0.002 A 
ENDBRANCH  17  18
ENDBRANCH  16  17
ENDBRANCH  15  16
ENDBRANCH  14  15
ENDBRANCH   2  14
TORSDOF 7
