MODEL 2812
MODEL 1
REMARK VINA RESULT:    -4.256      0.000      0.000
REMARK INTER + INTRA:          -4.256
REMARK INTER:                  -4.256
REMARK INTRA:                   0.000
REMARK UNBOUND:                 0.000
REMARK  Name = No_2812-gen_results/8p0m/2024-11-26-14-13-15/
REMARK  0 active torsions:
REMARK  status: ('A' for Active; 'I' for Inactive)
REMARK                            x       y       z     vdW  Elec       q    Type
REMARK                         _______ _______ _______ _____ _____    ______ ____
ROOT
ATOM      1  C   UNL A   1     -24.037  -3.282  28.863  0.00  0.00    +0.000 A 
ATOM      2  C   UNL A   1     -24.019  -4.463  28.606  0.00  0.00    +0.000 A 
ATOM      3  C   UNL A   1     -25.017  -5.343  28.980  0.00  0.00    +0.000 A 
ATOM      4  C   UNL A   1     -26.144  -4.817  29.671  0.00  0.00    +0.000 A 
ATOM      5  C   UNL A   1     -26.198  -3.469  29.784  0.00  0.00    +0.000 A 
ATOM      6  C   UNL A   1     -25.213  -2.701  29.360  0.00  0.00    +0.000 A 
ENDROOT
TORSDOF 0
ENDMDL
ENDMDL
