MODEL 2813
MODEL 1
REMARK VINA RESULT:    -6.705      0.000      0.000
REMARK INTER + INTRA:          -8.500
REMARK INTER:                  -7.881
REMARK INTRA:                  -0.618
REMARK UNBOUND:                -0.618
REMARK  Name = No_2813-gen_results/8p0m/2024-11-26-14-13-15/
REMARK  3 active torsions:
REMARK  status: ('A' for Active; 'I' for Inactive)
REMARK    1  A    between atoms: C_3  and  C_7
REMARK    2  A    between atoms: C_7  and  C_8
REMARK    3  A    between atoms: C_7  and  C_14
REMARK                            x       y       z     vdW  Elec       q    Type
REMARK                         _______ _______ _______ _____ _____    ______ ____
ROOT
ATOM      1  C   UNL A   1     -23.529  -1.039  29.224  0.00  0.00    +0.077 C 
ENDROOT
BRANCH   1   4
ATOM      2  C   UNL A   1     -26.351  -3.287  29.976  0.00  0.00    -0.000 A 
ATOM      3  C   UNL A   1     -25.677  -2.284  29.922  0.00  0.00    -0.004 A 
ATOM      4  C   UNL A   1     -24.413  -2.236  29.336  0.00  0.00    -0.016 A 
ATOM      5  C   UNL A   1     -23.831  -3.456  28.810  0.00  0.00    -0.004 A 
ATOM      6  C   UNL A   1     -24.634  -4.591  28.912  0.00  0.00    -0.000 A 
ATOM      7  C   UNL A   1     -25.817  -4.549  29.493  0.00  0.00    -0.000 A 
ENDBRANCH   1   4
BRANCH   1   8
ATOM      8  C   UNL A   1     -23.646  -0.183  28.254  0.00  0.00    -0.016 A 
ATOM      9  C   UNL A   1     -24.403   0.079  27.388  0.00  0.00    -0.004 A 
ATOM     10  C   UNL A   1     -24.238   1.064  26.376  0.00  0.00    -0.000 A 
ATOM     11  C   UNL A   1     -23.079   1.860  26.444  0.00  0.00    -0.000 A 
ATOM     12  C   UNL A   1     -22.380   0.779  28.276  0.00  0.00    -0.004 A 
ATOM     13  C   UNL A   1     -22.187   1.743  27.422  0.00  0.00    -0.000 A 
ENDBRANCH   1   8
BRANCH   1  14
ATOM     14  C   UNL A   1     -22.593  -0.868  30.403  0.00  0.00    +0.191 C 
ATOM     15  O   UNL A   1     -23.028  -0.665  31.512  0.00  0.00    -0.220 OA
ENDBRANCH   1  14
TORSDOF 3
ENDMDL
ENDMDL
