REMARK  Name = No_2813-gen_results/8p0m/2024-11-26-14-13-15/
REMARK  3 active torsions:
REMARK  status: ('A' for Active; 'I' for Inactive)
REMARK    1  A    between atoms: C_3  and  C_7
REMARK    2  A    between atoms: C_7  and  C_8
REMARK    3  A    between atoms: C_7  and  C_14
REMARK                            x       y       z     vdW  Elec       q    Type
REMARK                         _______ _______ _______ _____ _____    ______ ____
ROOT
ATOM      1  C   UNL A   1     -24.544   0.413  28.738  0.00  0.00    +0.077 C 
ENDROOT
BRANCH   1   4
ATOM      2  C   UNL A   1     -28.016  -0.814  28.878  0.00  0.00    -0.000 A 
ATOM      3  C   UNL A   1     -27.064  -0.119  28.608  0.00  0.00    -0.004 A 
ATOM      4  C   UNL A   1     -25.765  -0.390  29.036  0.00  0.00    -0.016 A 
ATOM      5  C   UNL A   1     -25.530  -1.530  29.901  0.00  0.00    -0.004 A 
ATOM      6  C   UNL A   1     -26.658  -2.292  30.203  0.00  0.00    -0.000 A 
ATOM      7  C   UNL A   1     -27.855  -1.956  29.763  0.00  0.00    -0.000 A 
ENDBRANCH   1   4
BRANCH   1   8
ATOM      8  C   UNL A   1     -24.473   1.206  27.711  0.00  0.00    -0.016 A 
ATOM      9  C   UNL A   1     -25.184   1.647  26.879  0.00  0.00    -0.004 A 
ATOM     10  C   UNL A   1     -24.810   2.470  25.782  0.00  0.00    -0.000 A 
ATOM     11  C   UNL A   1     -23.459   2.857  25.707  0.00  0.00    -0.000 A 
ATOM     12  C   UNL A   1     -22.973   1.714  27.570  0.00  0.00    -0.004 A 
ATOM     13  C   UNL A   1     -22.565   2.517  26.629  0.00  0.00    -0.000 A 
ENDBRANCH   1   8
BRANCH   1  14
ATOM     14  C   UNL A   1     -23.474   0.304  29.805  0.00  0.00    +0.191 C 
ATOM     15  O   UNL A   1     -23.493   1.027  30.773  0.00  0.00    -0.220 OA
ENDBRANCH   1  14
TORSDOF 3
