MODEL 2814
MODEL 1
REMARK VINA RESULT:    -6.958      0.000      0.000
REMARK INTER + INTRA:          -8.786
REMARK INTER:                  -8.179
REMARK INTRA:                  -0.607
REMARK UNBOUND:                -0.607
REMARK  Name = No_2814-gen_results/8p0m/2024-11-26-14-13-15/
REMARK  3 active torsions:
REMARK  status: ('A' for Active; 'I' for Inactive)
REMARK    1  A    between atoms: C_3  and  C_4
REMARK    2  A    between atoms: C_4  and  C_8
REMARK    3  A    between atoms: C_8  and  C_9
REMARK                            x       y       z     vdW  Elec       q    Type
REMARK                         _______ _______ _______ _____ _____    ______ ____
ROOT
ATOM      1  C   UNL A   1     -23.678  -0.816  29.163  0.00  0.00    +0.031 C 
ENDROOT
BRANCH   1   4
ATOM      2  C   UNL A   1     -22.292   1.112  28.020  0.00  0.00    -0.004 A 
ATOM      3  C   UNL A   1     -22.363   1.834  27.255  0.00  0.00    -0.000 A 
ATOM      4  C   UNL A   1     -23.461   0.159  28.123  0.00  0.00    -0.022 A 
ATOM      5  C   UNL A   1     -23.280   1.968  26.115  0.00  0.00    -0.000 A 
ATOM      6  C   UNL A   1     -24.360   1.112  26.124  0.00  0.00    -0.000 A 
ATOM      7  C   UNL A   1     -24.479   0.158  27.102  0.00  0.00    -0.004 A 
ENDBRANCH   1   4
BRANCH   1   8
ATOM      8  C   UNL A   1     -23.427  -2.156  28.929  0.00  0.00    +0.031 C 
BRANCH   8   9
ATOM      9  C   UNL A   1     -24.128  -3.080  29.336  0.00  0.00    -0.022 A 
ATOM     10  C   UNL A   1     -25.508  -2.810  29.824  0.00  0.00    -0.004 A 
ATOM     11  C   UNL A   1     -26.455  -3.099  29.962  0.00  0.00    -0.000 A 
ATOM     12  C   UNL A   1     -26.466  -4.532  29.717  0.00  0.00    -0.000 A 
ATOM     13  C   UNL A   1     -25.256  -5.181  29.149  0.00  0.00    -0.000 A 
ATOM     14  C   UNL A   1     -24.140  -4.402  28.908  0.00  0.00    -0.004 A 
ENDBRANCH   8   9
ENDBRANCH   1   8
TORSDOF 3
ENDMDL
ENDMDL
