MODEL 2815
MODEL 1
REMARK VINA RESULT:    -3.514      0.000      0.000
REMARK INTER + INTRA:          -3.790
REMARK INTER:                  -3.719
REMARK INTRA:                  -0.071
REMARK UNBOUND:                -0.071
REMARK  Name = No_2815-gen_results/8p0m/2024-11-26-14-13-15/
REMARK  1 active torsions:
REMARK  status: ('A' for Active; 'I' for Inactive)
REMARK    1  A    between atoms: C_3  and  C_4
REMARK                            x       y       z     vdW  Elec       q    Type
REMARK                         _______ _______ _______ _____ _____    ______ ____
ROOT
ATOM      1 CL   UNL A   1      -9.250 -10.537  17.436  0.00  0.00    -0.081 Cl
ATOM      2  C   UNL A   1      -9.931  -9.747  18.432  0.00  0.00    +0.068 C 
ATOM      3  C   UNL A   1      -9.568  -9.362  19.476  0.00  0.00    +0.012 C 
ENDROOT
BRANCH   3   4
ATOM      4  C   UNL A   1      -8.133  -9.631  19.926  0.00  0.00    +0.001 C 
ATOM      5  C   UNL A   1      -7.328  -8.447  19.818  0.00  0.00    +0.000 C 
ENDBRANCH   3   4
TORSDOF 1
ENDMDL
ENDMDL
