REMARK  Name = No_2816-gen_results/8p0m/2024-11-26-14-13-15/
REMARK  1 active torsions:
REMARK  status: ('A' for Active; 'I' for Inactive)
REMARK    1  A    between atoms: C_2  and  C_7
REMARK                            x       y       z     vdW  Elec       q    Type
REMARK                         _______ _______ _______ _____ _____    ______ ____
ROOT
ATOM      1  C   UNL A   1     -25.881  -0.626  27.794  0.00  0.00    +0.048 C 
ATOM      2  C   UNL A   1     -25.421   0.130  26.710  0.00  0.00    +0.030 C 
ATOM      3  C   UNL A   1     -25.033  -1.682  28.240  0.00  0.00    -0.022 C 
ATOM      4  C   UNL A   1     -23.863  -1.438  29.026  0.00  0.00    -0.005 C 
ATOM      5  C   UNL A   1     -23.272  -0.152  29.138  0.00  0.00    -0.009 C 
ATOM      6  C   UNL A   1     -21.877  -0.083  29.368  0.00  0.00    -0.026 C 
ATOM      7  C   UNL A   1     -21.105   0.001  28.397  0.00  0.00    +0.031 C 
ATOM      8  C   UNL A   1     -26.111   0.432  25.567  0.00  0.00    +0.005 C 
ATOM      9  C   UNL A   1     -24.184   0.930  26.787  0.00  0.00    -0.030 C 
ATOM     10  C   UNL A   1     -23.309   0.618  27.751  0.00  0.00    -0.026 C 
ATOM     11  C   UNL A   1     -21.892   1.033  27.483  0.00  0.00    +0.031 C 
ENDROOT
BRANCH   1  13
ATOM     12  C   UNL A   1     -28.016  -0.814  28.878  0.00  0.00    -0.004 A 
ATOM     13  C   UNL A   1     -27.064  -0.119  28.608  0.00  0.00    -0.018 A 
ATOM     14  C   UNL A   1     -26.929   1.171  29.008  0.00  0.00    -0.004 A 
ATOM     15  C   UNL A   1     -27.956   1.741  29.784  0.00  0.00    -0.000 A 
ATOM     16  C   UNL A   1     -29.057  -0.327  29.747  0.00  0.00    -0.000 A 
ATOM     17  C   UNL A   1     -28.983   0.972  30.152  0.00  0.00    -0.000 A 
ENDBRANCH   1  13
TORSDOF 1
