MODEL 2816
MODEL 1
REMARK VINA RESULT:    -8.355      0.000      0.000
REMARK INTER + INTRA:          -9.600
REMARK INTER:                  -8.844
REMARK INTRA:                  -0.757
REMARK UNBOUND:                -0.757
REMARK  Name = No_2816-gen_results/8p0m/2024-11-26-14-13-15/
REMARK  1 active torsions:
REMARK  status: ('A' for Active; 'I' for Inactive)
REMARK    1  A    between atoms: C_2  and  C_7
REMARK                            x       y       z     vdW  Elec       q    Type
REMARK                         _______ _______ _______ _____ _____    ______ ____
ROOT
ATOM      1  C   UNL A   1     -24.709  -1.141  29.446  0.00  0.00    +0.048 C 
ATOM      2  C   UNL A   1     -23.525  -0.595  29.953  0.00  0.00    +0.030 C 
ATOM      3  C   UNL A   1     -25.653  -0.221  28.903  0.00  0.00    -0.022 C 
ATOM      4  C   UNL A   1     -25.483   0.372  27.613  0.00  0.00    -0.005 C 
ATOM      5  C   UNL A   1     -24.240   0.368  26.928  0.00  0.00    -0.009 C 
ATOM      6  C   UNL A   1     -23.973   1.434  26.035  0.00  0.00    -0.026 C 
ATOM      7  C   UNL A   1     -23.373   2.440  26.452  0.00  0.00    +0.031 C 
ATOM      8  C   UNL A   1     -22.968  -0.837  31.180  0.00  0.00    +0.005 C 
ATOM      9  C   UNL A   1     -22.573   0.135  29.095  0.00  0.00    -0.030 C 
ATOM     10  C   UNL A   1     -23.033   0.608  27.930  0.00  0.00    -0.026 C 
ATOM     11  C   UNL A   1     -22.263   1.764  27.363  0.00  0.00    +0.031 C 
ENDROOT
BRANCH   1  13
ATOM     12  C   UNL A   1     -23.950  -3.271  28.636  0.00  0.00    -0.004 A 
ATOM     13  C   UNL A   1     -24.801  -2.645  29.223  0.00  0.00    -0.018 A 
ATOM     14  C   UNL A   1     -25.916  -3.202  29.762  0.00  0.00    -0.004 A 
ATOM     15  C   UNL A   1     -26.097  -4.592  29.634  0.00  0.00    -0.000 A 
ATOM     16  C   UNL A   1     -24.023  -4.707  28.550  0.00  0.00    -0.000 A 
ATOM     17  C   UNL A   1     -25.137  -5.312  29.050  0.00  0.00    -0.000 A 
ENDBRANCH   1  13
TORSDOF 1
ENDMDL
ENDMDL
