REMARK  Name = No_2817-gen_results/8p0m/2024-11-26-14-13-15/
REMARK  3 active torsions:
REMARK  status: ('A' for Active; 'I' for Inactive)
REMARK    1  A    between atoms: C_5  and  C_10
REMARK    2  A    between atoms: C_32  and  C_33
REMARK    3  A    between atoms: C_33  and  C_34
REMARK                            x       y       z     vdW  Elec       q    Type
REMARK                         _______ _______ _______ _____ _____    ______ ____
ROOT
ATOM      1  C   UNL A   1     -28.016  -0.814  28.878  0.00  0.00    +0.080 C 
ATOM      2  C   UNL A   1     -27.064  -0.119  28.608  0.00  0.00    -0.012 A 
ATOM      3  C   UNL A   1     -26.876   1.133  28.913  0.00  0.00    -0.024 A 
ATOM      4  C   UNL A   1     -25.688   1.952  28.567  0.00  0.00    -0.007 A 
ATOM      5  C   UNL A   1     -24.639   1.283  27.875  0.00  0.00    -0.005 A 
ATOM      6  C   UNL A   1     -24.818  -0.080  27.617  0.00  0.00    -0.003 A 
ATOM      7  C   UNL A   1     -25.931  -0.772  27.970  0.00  0.00    -0.004 A 
ATOM      8  N   UNL A   1     -29.141  -0.215  28.998  0.00  0.00    -0.273 NA
ATOM      9  C   UNL A   1     -30.138  -0.700  29.746  0.00  0.00    +0.058 C 
ATOM     10  C   UNL A   1     -29.982  -1.969  30.282  0.00  0.00    +0.016 C 
ATOM     11  C   UNL A   1     -28.740  -2.580  30.365  0.00  0.00    +0.003 C 
ATOM     12  C   UNL A   1     -27.709  -1.922  29.816  0.00  0.00    +0.021 C 
ATOM     13  C   UNL A   1     -29.170   1.054  28.395  0.00  0.00    +0.062 C 
ATOM     14  C   UNL A   1     -28.109   1.968  28.855  0.00  0.00    +0.042 C 
ATOM     15  C   UNL A   1     -30.554   1.756  28.663  0.00  0.00    +0.078 C 
ATOM     16  C   UNL A   1     -29.223   0.845  26.854  0.00  0.00    +0.030 C 
ATOM     17  C   UNL A   1     -29.580   1.688  25.947  0.00  0.00    +0.077 C 
ATOM     18  C   UNL A   1     -30.948   2.825  27.732  0.00  0.00    -0.091 C 
ATOM     19  C   UNL A   1     -30.809   2.459  26.329  0.00  0.00    -0.091 C 
ATOM     20  C   UNL A   1     -31.623   0.688  28.815  0.00  0.00    +0.014 C 
ATOM     21  C   UNL A   1     -30.919   0.164  30.462  0.00  0.00    +0.017 C 
ATOM     22  C   UNL A   1     -31.764  -0.360  27.951  0.00  0.00    +0.002 C 
ATOM     23  C   UNL A   1     -33.133  -0.332  27.412  0.00  0.00    +0.008 C 
ATOM     24  C   UNL A   1     -33.569  -1.206  27.192  0.00  0.00    +0.026 C 
ATOM     25  C   UNL A   1     -35.021  -1.213  26.728  0.00  0.00    -0.031 C 
ATOM     26  C   UNL A   1     -35.456  -0.216  26.594  0.00  0.00    -0.031 C 
ATOM     27  C   UNL A   1     -34.112   0.766  27.253  0.00  0.00    +0.022 C 
ATOM     28  C   UNL A   1     -32.859   1.497  29.450  0.00  0.00    +0.002 C 
ATOM     29  C   UNL A   1     -33.993   1.676  28.467  0.00  0.00    +0.008 C 
ENDROOT
BRANCH   5  30
ATOM     30  C   UNL A   1     -23.424   1.950  27.499  0.00  0.00    +0.114 C 
ATOM     31  N   UNL A   1     -22.283   2.221  27.980  0.00  0.00    -0.128 NA
ATOM     32  C   UNL A   1     -23.570   2.523  26.065  0.00  0.00    +0.025 C 
ENDBRANCH   5  30
BRANCH  29  33
ATOM     33  C   UNL A   1     -34.963   2.739  28.531  0.00  0.00    +0.026 C 
BRANCH  33  34
ATOM     34  C   UNL A   1     -34.708   3.934  28.174  0.00  0.00    -0.026 C 
ATOM     35  C   UNL A   1     -35.637   4.968  28.215  0.00  0.00    -0.005 C 
ENDBRANCH  33  34
ENDBRANCH  29  33
TORSDOF 3
