MODEL 2817
MODEL 1
REMARK VINA RESULT:    -8.142      0.000      0.000
REMARK INTER + INTRA:         -10.277
REMARK INTER:                  -9.570
REMARK INTRA:                  -0.706
REMARK UNBOUND:                -0.706
REMARK  Name = No_2817-gen_results/8p0m/2024-11-26-14-13-15/
REMARK  3 active torsions:
REMARK  status: ('A' for Active; 'I' for Inactive)
REMARK    1  A    between atoms: C_5  and  C_10
REMARK    2  A    between atoms: C_32  and  C_33
REMARK    3  A    between atoms: C_33  and  C_34
REMARK                            x       y       z     vdW  Elec       q    Type
REMARK                         _______ _______ _______ _____ _____    ______ ____
ROOT
ATOM      1  C   UNL A   1      -9.074   0.775  37.855  0.00  0.00    +0.080 C 
ATOM      2  C   UNL A   1      -9.939   0.996  37.040  0.00  0.00    -0.012 A 
ATOM      3  C   UNL A   1     -11.120   1.506  37.245  0.00  0.00    -0.024 A 
ATOM      4  C   UNL A   1     -12.154   1.768  36.214  0.00  0.00    -0.007 A 
ATOM      5  C   UNL A   1     -11.795   1.473  34.869  0.00  0.00    -0.005 A 
ATOM      6  C   UNL A   1     -10.498   0.995  34.649  0.00  0.00    -0.003 A 
ATOM      7  C   UNL A   1      -9.597   0.786  35.641  0.00  0.00    -0.004 A 
ATOM      8  N   UNL A   1      -9.468   0.512  39.044  0.00  0.00    -0.273 NA
ATOM      9  C   UNL A   1      -8.706   0.733  40.120  0.00  0.00    +0.058 C 
ATOM     10  C   UNL A   1      -7.392   1.122  39.909  0.00  0.00    +0.016 C 
ATOM     11  C   UNL A   1      -6.963   1.616  38.686  0.00  0.00    +0.003 C 
ATOM     12  C   UNL A   1      -7.859   1.610  37.689  0.00  0.00    +0.021 C 
ATOM     13  C   UNL A   1     -10.814   0.112  39.116  0.00  0.00    +0.062 C 
ATOM     14  C   UNL A   1     -11.762   1.067  38.516  0.00  0.00    +0.042 C 
ATOM     15  C   UNL A   1     -11.241  -0.107  40.616  0.00  0.00    +0.078 C 
ATOM     16  C   UNL A   1     -10.908  -1.336  38.553  0.00  0.00    +0.030 C 
ATOM     17  C   UNL A   1     -11.853  -2.196  38.720  0.00  0.00    +0.077 C 
ATOM     18  C   UNL A   1     -12.404  -0.976  40.855  0.00  0.00    -0.091 C 
ATOM     19  C   UNL A   1     -12.347  -2.241  40.136  0.00  0.00    -0.091 C 
ATOM     20  C   UNL A   1     -10.020  -0.530  41.415  0.00  0.00    +0.014 C 
ATOM     21  C   UNL A   1      -9.289   1.181  41.273  0.00  0.00    +0.017 C 
ATOM     22  C   UNL A   1      -9.155  -1.503  41.004  0.00  0.00    +0.002 C 
ATOM     23  C   UNL A   1      -9.090  -2.534  42.052  0.00  0.00    +0.008 C 
ATOM     24  C   UNL A   1      -8.223  -3.018  42.182  0.00  0.00    +0.026 C 
ATOM     25  C   UNL A   1      -8.098  -4.018  43.325  0.00  0.00    -0.031 C 
ATOM     26  C   UNL A   1      -9.028  -4.188  43.880  0.00  0.00    -0.031 C 
ATOM     27  C   UNL A   1     -10.045  -2.930  43.111  0.00  0.00    +0.022 C 
ATOM     28  C   UNL A   1     -10.500  -0.343  42.938  0.00  0.00    +0.002 C 
ATOM     29  C   UNL A   1     -10.704  -1.665  43.642  0.00  0.00    +0.008 C 
ENDROOT
BRANCH   5  30
ATOM     30  C   UNL A   1     -12.692   1.699  33.770  0.00  0.00    +0.114 C 
ATOM     31  N   UNL A   1     -12.863   1.325  32.571  0.00  0.00    -0.128 NA
ATOM     32  C   UNL A   1     -13.772   2.731  34.187  0.00  0.00    +0.025 C 
ENDBRANCH   5  30
BRANCH  29  33
ATOM     33  C   UNL A   1     -11.581  -1.859  44.767  0.00  0.00    +0.026 C 
BRANCH  33  34
ATOM     34  C   UNL A   1     -11.158  -2.072  45.949  0.00  0.00    -0.026 C 
ATOM     35  C   UNL A   1     -10.028  -1.464  46.486  0.00  0.00    -0.005 C 
ENDBRANCH  33  34
ENDBRANCH  29  33
TORSDOF 3
ENDMDL
ENDMDL
