REMARK  Name = No_2818-gen_results/8p0m/2024-11-26-14-13-15/
REMARK  0 active torsions:
REMARK  status: ('A' for Active; 'I' for Inactive)
REMARK                            x       y       z     vdW  Elec       q    Type
REMARK                         _______ _______ _______ _____ _____    ______ ____
ROOT
ATOM      1  O   UNL A   1     -28.123  -1.335  28.487  0.00  0.00    -0.296 OA
ATOM      2  C   UNL A   1     -27.064  -0.824  28.869  0.00  0.00    +0.152 C 
ATOM      3  C   UNL A   1     -25.946  -1.040  28.849  0.00  0.00    +0.083 C 
ATOM      4  C   UNL A   1     -24.760  -0.156  29.164  0.00  0.00    +0.117 C 
ATOM      5  C   UNL A   1     -25.092   1.079  29.649  0.00  0.00    +0.168 C 
ATOM      6  C   UNL A   1     -26.409   1.438  29.707  0.00  0.00    +0.042 C 
ATOM      7  C   UNL A   1     -27.369   0.659  29.415  0.00  0.00    +0.067 C 
ATOM      8 CL   UNL A   1     -23.143  -0.643  29.096  0.00  0.00    -0.112 Cl
ATOM      9  O   UNL A   1     -23.985   1.855  29.958  0.00  0.00    -0.222 OA
ENDROOT
TORSDOF 0
