MODEL 2818
MODEL 1
REMARK VINA RESULT:    -4.443      0.000      0.000
REMARK INTER + INTRA:          -4.443
REMARK INTER:                  -4.443
REMARK INTRA:                   0.000
REMARK UNBOUND:                 0.000
REMARK  Name = No_2818-gen_results/8p0m/2024-11-26-14-13-15/
REMARK  0 active torsions:
REMARK  status: ('A' for Active; 'I' for Inactive)
REMARK                            x       y       z     vdW  Elec       q    Type
REMARK                         _______ _______ _______ _____ _____    ______ ____
ROOT
ATOM      1  O   UNL A   1     -26.735 -12.706  33.898  0.00  0.00    -0.296 OA
ATOM      2  C   UNL A   1     -27.359 -12.115  33.010  0.00  0.00    +0.152 C 
ATOM      3  C   UNL A   1     -27.604 -12.233  31.904  0.00  0.00    +0.083 C 
ATOM      4  C   UNL A   1     -28.607 -11.516  31.029  0.00  0.00    +0.117 C 
ATOM      5  C   UNL A   1     -29.260 -10.486  31.649  0.00  0.00    +0.168 C 
ATOM      6  C   UNL A   1     -29.041 -10.266  32.979  0.00  0.00    +0.042 C 
ATOM      7  C   UNL A   1     -28.194 -10.910  33.674  0.00  0.00    +0.067 C 
ATOM      8 CL   UNL A   1     -28.837 -11.806  29.380  0.00  0.00    -0.112 Cl
ATOM      9  O   UNL A   1     -30.150  -9.828  30.813  0.00  0.00    -0.222 OA
ENDROOT
TORSDOF 0
ENDMDL
ENDMDL
