MODEL 2819
MODEL 1
REMARK VINA RESULT:    -5.757      0.000      0.000
REMARK INTER + INTRA:          -6.718
REMARK INTER:                  -6.430
REMARK INTRA:                  -0.288
REMARK UNBOUND:                -0.288
REMARK  Name = No_2819-gen_results/8p0m/2024-11-26-14-13-15/
REMARK  2 active torsions:
REMARK  status: ('A' for Active; 'I' for Inactive)
REMARK    1  A    between atoms: C_2  and  C_11
REMARK    2  A    between atoms: C_3  and  C_7
REMARK                            x       y       z     vdW  Elec       q    Type
REMARK                         _______ _______ _______ _____ _____    ______ ____
ROOT
ATOM      1  C   UNL A   1     -28.188 -11.809  31.674  0.00  0.00    +0.010 A 
ATOM      2  C   UNL A   1     -28.191 -11.278  32.584  0.00  0.00    +0.080 A 
ATOM      3  C   UNL A   1     -29.128 -11.282  30.686  0.00  0.00    +0.072 A 
ATOM      4  C   UNL A   1     -29.914 -10.185  30.939  0.00  0.00    +0.004 A 
ATOM      5  C   UNL A   1     -28.891 -10.111  33.120  0.00  0.00    +0.007 A 
ATOM      6  C   UNL A   1     -29.804  -9.593  32.171  0.00  0.00    +0.000 A 
ENDROOT
BRANCH   3   7
ATOM      7  C   UNL A   1     -29.240 -11.874  29.321  0.00  0.00    +0.419 C 
ATOM      8  F   UNL A   1     -28.299 -11.684  28.690  0.00  0.00    -0.166 F 
ATOM      9  F   UNL A   1     -30.311 -11.321  28.614  0.00  0.00    -0.166 F 
ATOM     10  F   UNL A   1     -29.572 -13.227  29.416  0.00  0.00    -0.166 F 
ENDBRANCH   3   7
BRANCH   2  11
ATOM     11  C   UNL A   1     -27.110 -11.719  33.725  0.00  0.00    +0.388 C 
ATOM     12  O   UNL A   1     -26.859 -10.861  34.621  0.00  0.00    -0.241 OA
ATOM     13  O   UNL A   1     -26.740 -12.831  33.759  0.00  0.00    -0.241 OA
ENDBRANCH   2  11
TORSDOF 2
ENDMDL
ENDMDL
