MODEL 281
MODEL 1
REMARK VINA RESULT:    -7.072      0.000      0.000
REMARK INTER + INTRA:          -9.293
REMARK INTER:                  -8.725
REMARK INTRA:                  -0.567
REMARK UNBOUND:                -0.567
REMARK  Name = No_281-gen_results/8p0m/2024-11-26-14-13-15/
REMARK  4 active torsions:
REMARK  status: ('A' for Active; 'I' for Inactive)
REMARK    1  A    between atoms: C_3  and  C_4
REMARK    2  A    between atoms: C_7  and  C_13
REMARK    3  A    between atoms: N_14  and  C_15
REMARK    4  A    between atoms: C_15  and  C_16
REMARK                            x       y       z     vdW  Elec       q    Type
REMARK                         _______ _______ _______ _____ _____    ______ ____
ROOT
ATOM      1  C   UNL A   1      -6.687  -1.859  34.548  0.00  0.00    +0.002 A 
ATOM      2  C   UNL A   1      -5.541  -2.148  34.289  0.00  0.00    +0.000 A 
ATOM      3  C   UNL A   1      -4.454  -1.325  34.581  0.00  0.00    +0.000 A 
ATOM      4  C   UNL A   1      -6.977  -0.484  35.056  0.00  0.00    +0.019 A 
ATOM      5  C   UNL A   1      -5.981   0.365  35.452  0.00  0.00    +0.002 A 
ATOM      6  C   UNL A   1      -4.628   0.013  35.195  0.00  0.00    +0.000 A 
ENDROOT
BRANCH   3   7
ATOM      7  C   UNL A   1      -3.031  -1.591  34.292  0.00  0.00    +0.000 A 
ATOM      8  C   UNL A   1      -1.988  -1.747  35.272  0.00  0.00    +0.000 A 
ATOM      9  C   UNL A   1      -0.662  -2.014  34.880  0.00  0.00    +0.000 A 
ATOM     10  C   UNL A   1      -0.347  -2.419  33.546  0.00  0.00    +0.000 A 
ATOM     11  C   UNL A   1      -2.488  -2.308  33.118  0.00  0.00    +0.000 A 
ATOM     12  C   UNL A   1      -1.300  -2.497  32.700  0.00  0.00    +0.000 A 
ENDBRANCH   3   7
BRANCH   4  13
ATOM     13  C   UNL A   1      -8.372  -0.069  35.330  0.00  0.00    +0.093 C 
ATOM     14  N   UNL A   1      -8.971  -0.398  36.472  0.00  0.00    -0.264 NA
BRANCH  14  15
ATOM     15  C   UNL A   1     -10.323  -0.121  36.700  0.00  0.00    +0.152 C 
BRANCH  15  16
ATOM     16  C   UNL A   1     -10.882  -0.889  37.660  0.00  0.00    +0.002 A 
ATOM     17  C   UNL A   1     -11.464  -1.834  37.577  0.00  0.00    -0.002 A 
ATOM     18  C   UNL A   1     -12.058  -2.647  38.669  0.00  0.00    -0.000 A 
ATOM     19  C   UNL A   1     -11.644  -2.289  39.948  0.00  0.00    -0.000 A 
ATOM     20  C   UNL A   1     -10.826  -1.176  40.136  0.00  0.00    -0.000 A 
ATOM     21  C   UNL A   1     -10.408  -0.452  39.038  0.00  0.00    -0.002 A 
ENDBRANCH  15  16
ENDBRANCH  14  15
ENDBRANCH   4  13
TORSDOF 4
ENDMDL
ENDMDL
