REMARK  Name = No_282-gen_results/8p0m/2024-11-26-14-13-15/
REMARK  1 active torsions:
REMARK  status: ('A' for Active; 'I' for Inactive)
REMARK    1  A    between atoms: C_11  and  C_12
REMARK                            x       y       z     vdW  Elec       q    Type
REMARK                         _______ _______ _______ _____ _____    ______ ____
ROOT
ATOM      1  F   UNL A   1     -28.073  -1.254  28.532  0.00  0.00    -0.204 F 
ATOM      2  C   UNL A   1     -27.359  -0.379  28.722  0.00  0.00    +0.140 A 
ATOM      3  C   UNL A   1     -26.332  -0.644  29.452  0.00  0.00    +0.030 A 
ATOM      4  C   UNL A   1     -25.256   0.320  29.782  0.00  0.00    +0.002 A 
ATOM      5  C   UNL A   1     -25.424   1.627  29.203  0.00  0.00    +0.000 A 
ATOM      6  C   UNL A   1     -26.526   1.825  28.403  0.00  0.00    +0.006 A 
ATOM      7  C   UNL A   1     -27.451   0.860  28.136  0.00  0.00    +0.027 A 
ATOM      8  C   UNL A   1     -28.540   1.202  27.245  0.00  0.00    +0.002 A 
ATOM      9  C   UNL A   1     -28.442   2.010  26.254  0.00  0.00    +0.000 A 
ATOM     10  C   UNL A   1     -27.350   3.061  26.383  0.00  0.00    +0.004 A 
ATOM     11  C   UNL A   1     -26.372   2.915  27.368  0.00  0.00    +0.071 A 
ENDROOT
BRANCH  11  12
ATOM     12  C   UNL A   1     -25.290   3.921  27.492  0.00  0.00    +0.419 C 
ATOM     13  F   UNL A   1     -24.206   3.356  27.652  0.00  0.00    -0.166 F 
ATOM     14  F   UNL A   1     -25.527   4.665  28.660  0.00  0.00    -0.166 F 
ATOM     15  F   UNL A   1     -25.263   4.811  26.553  0.00  0.00    -0.166 F 
ENDBRANCH  11  12
TORSDOF 1
