REMARK  Name = No_2820-gen_results/8p0m/2024-11-26-14-13-15/
REMARK  1 active torsions:
REMARK  status: ('A' for Active; 'I' for Inactive)
REMARK    1  A    between atoms: C_5  and  C_7
REMARK                            x       y       z     vdW  Elec       q    Type
REMARK                         _______ _______ _______ _____ _____    ______ ____
ROOT
ATOM      1  C   UNL A   1     -28.016  -0.814  28.878  0.00  0.00    +0.018 A 
ATOM      2  C   UNL A   1     -27.064  -0.119  28.608  0.00  0.00    +0.064 A 
ATOM      3  C   UNL A   1     -26.972   0.714  27.506  0.00  0.00    +0.016 A 
ATOM      4  C   UNL A   1     -28.105   0.774  26.642  0.00  0.00    +0.008 A 
ATOM      5  C   UNL A   1     -29.201   0.104  27.053  0.00  0.00    +0.080 A 
ATOM      6  C   UNL A   1     -29.210  -0.603  28.185  0.00  0.00    +0.008 A 
ATOM      7  N   UNL A   1     -25.784  -0.206  29.382  0.00  0.00    -0.305 N 
ATOM      8  C   UNL A   1     -25.131   0.828  29.921  0.00  0.00    +0.064 A 
ATOM      9  C   UNL A   1     -23.847   0.566  30.465  0.00  0.00    +0.019 A 
ATOM     10  C   UNL A   1     -24.715  -1.186  29.109  0.00  0.00    +0.080 A 
ATOM     11  C   UNL A   1     -23.595  -0.846  29.968  0.00  0.00    +0.021 A 
ATOM     12  C   UNL A   1     -25.035   2.106  29.082  0.00  0.00    +0.016 A 
ATOM     13  C   UNL A   1     -24.343   2.973  29.372  0.00  0.00    +0.001 A 
ATOM     14  C   UNL A   1     -24.338   4.175  28.502  0.00  0.00    +0.000 A 
ATOM     15  C   UNL A   1     -25.292   4.147  27.403  0.00  0.00    +0.000 A 
ATOM     16  C   UNL A   1     -25.979   3.128  27.116  0.00  0.00    +0.000 A 
ATOM     17  C   UNL A   1     -25.943   2.085  27.961  0.00  0.00    +0.003 A 
ENDROOT
BRANCH   5  18
ATOM     18  C   UNL A   1     -30.375   0.223  26.167  0.00  0.00    +0.388 C 
ATOM     19  O   UNL A   1     -30.960   1.236  26.130  0.00  0.00    -0.241 OA
ATOM     20  O   UNL A   1     -30.923  -0.906  25.836  0.00  0.00    -0.241 OA
ENDBRANCH   5  18
TORSDOF 1
