MODEL 2821
MODEL 1
REMARK VINA RESULT:    -4.270      0.000      0.000
REMARK INTER + INTRA:          -4.270
REMARK INTER:                  -4.270
REMARK INTRA:                   0.000
REMARK UNBOUND:                 0.000
REMARK  Name = No_2821-gen_results/8p0m/2024-11-26-14-13-15/
REMARK  0 active torsions:
REMARK  status: ('A' for Active; 'I' for Inactive)
REMARK                            x       y       z     vdW  Elec       q    Type
REMARK                         _______ _______ _______ _____ _____    ______ ____
ROOT
ATOM      1  C   UNL A   1     -24.958  -5.401  28.941  0.00  0.00    +0.000 A 
ATOM      2  C   UNL A   1     -24.156  -4.764  28.694  0.00  0.00    +0.000 A 
ATOM      3  C   UNL A   1     -26.106  -4.782  29.621  0.00  0.00    +0.000 A 
ATOM      4  C   UNL A   1     -26.169  -3.369  29.797  0.00  0.00    +0.000 A 
ATOM      5  C   UNL A   1     -23.996  -3.284  28.714  0.00  0.00    +0.000 A 
ATOM      6  C   UNL A   1     -25.038  -2.674  29.347  0.00  0.00    +0.000 A 
ENDROOT
TORSDOF 0
ENDMDL
ENDMDL
