MODEL 2822
MODEL 1
REMARK VINA RESULT:    -4.642      0.000      0.000
REMARK INTER + INTRA:          -4.642
REMARK INTER:                  -4.642
REMARK INTRA:                   0.000
REMARK UNBOUND:                 0.000
REMARK  Name = No_2822-gen_results/8p0m/2024-11-26-14-13-15/
REMARK  0 active torsions:
REMARK  status: ('A' for Active; 'I' for Inactive)
REMARK                            x       y       z     vdW  Elec       q    Type
REMARK                         _______ _______ _______ _____ _____    ______ ____
ROOT
ATOM      1  C   UNL A   1     -10.159  -9.081  19.870  0.00  0.00    +0.002 A 
ATOM      2  C   UNL A   1      -9.259  -9.134  20.415  0.00  0.00    +0.000 A 
ATOM      3  C   UNL A   1     -10.155  -9.690  18.530  0.00  0.00    +0.030 A 
ATOM      4  C   UNL A   1      -9.025 -10.431  18.074  0.00  0.00    +0.140 A 
ATOM      5  C   UNL A   1      -7.946 -10.463  18.921  0.00  0.00    +0.030 A 
ATOM      6  C   UNL A   1      -7.995  -9.865  20.130  0.00  0.00    +0.002 A 
ATOM      7  F   UNL A   1      -9.017 -10.960  16.909  0.00  0.00    -0.204 F 
ENDROOT
TORSDOF 0
ENDMDL
ENDMDL
