REMARK  Name = No_2823-gen_results/8p0m/2024-11-26-14-13-15/
REMARK  3 active torsions:
REMARK  status: ('A' for Active; 'I' for Inactive)
REMARK    1  A    between atoms: C_4  and  C_11
REMARK    2  A    between atoms: C_12  and  C_27
REMARK    3  A    between atoms: C_17  and  C_24
REMARK                            x       y       z     vdW  Elec       q    Type
REMARK                         _______ _______ _______ _____ _____    ______ ____
ROOT
ATOM      1  C   UNL A   1     -28.016  -0.814  28.878  0.00  0.00    -0.000 A 
ATOM      2  C   UNL A   1     -28.469  -0.785  29.829  0.00  0.00    +0.049 A 
ATOM      3  C   UNL A   1     -26.546  -0.876  28.850  0.00  0.00    -0.022 A 
ATOM      4  C   UNL A   1     -25.804  -1.032  30.057  0.00  0.00    -0.003 A 
ATOM      5  C   UNL A   1     -27.944  -0.987  31.207  0.00  0.00    -0.016 A 
ATOM      6  C   UNL A   1     -26.582  -1.039  31.223  0.00  0.00    -0.004 A 
ATOM      7  C   UNL A   1     -30.061  -0.737  29.902  0.00  0.00    +0.249 C 
ATOM      8  O   UNL A   1     -30.552  -0.277  29.011  0.00  0.00    -0.270 OA
ATOM      9  N   UNL A   1     -30.743  -1.289  30.994  0.00  0.00    -0.277 N 
ATOM     10  C   UNL A   1     -32.171  -1.260  30.975  0.00  0.00    +0.105 C 
ATOM     11  C   UNL A   1     -32.702  -2.091  31.697  0.00  0.00    +0.123 C 
ATOM     12  C   UNL A   1     -32.005  -2.880  32.717  0.00  0.00    +0.015 C 
ATOM     13  C   UNL A   1     -30.595  -2.885  32.678  0.00  0.00    +0.021 C 
ATOM     14  C   UNL A   1     -29.979  -2.198  31.775  0.00  0.00    +0.080 C 
ATOM     15  C   UNL A   1     -28.546  -2.012  31.916  0.00  0.00    +0.046 C 
ATOM     16  C   UNL A   1     -25.741  -0.652  27.600  0.00  0.00    +0.031 C 
ENDROOT
BRANCH   4  17
ATOM     17  C   UNL A   1     -24.369  -1.088  30.088  0.00  0.00    +0.017 A 
ATOM     18  C   UNL A   1     -23.719   0.180  30.018  0.00  0.00    +0.081 A 
ATOM     19  C   UNL A   1     -22.471   0.302  29.324  0.00  0.00    +0.007 A 
ATOM     20  C   UNL A   1     -21.840  -0.966  29.020  0.00  0.00    +0.001 A 
ATOM     21  C   UNL A   1     -22.572  -2.104  28.981  0.00  0.00    +0.011 A 
ATOM     22  C   UNL A   1     -23.817  -2.222  29.519  0.00  0.00    +0.058 A 
ATOM     23 CL   UNL A   1     -24.616  -3.680  29.489  0.00  0.00    -0.082 Cl
BRANCH  18  24
ATOM     24  C   UNL A   1     -24.299   1.460  30.566  0.00  0.00    +0.388 C 
ATOM     25  O   UNL A   1     -24.653   2.417  29.849  0.00  0.00    -0.241 OA
ATOM     26  O   UNL A   1     -24.600   1.425  31.939  0.00  0.00    -0.241 OA
ENDBRANCH  18  24
ENDBRANCH   4  17
BRANCH  11  27
ATOM     27  C   UNL A   1     -34.219  -2.107  31.834  0.00  0.00    +0.366 C 
ATOM     28  O   UNL A   1     -34.882  -2.807  31.189  0.00  0.00    -0.246 OA
ATOM     29  O   UNL A   1     -34.789  -1.219  32.665  0.00  0.00    -0.246 OA
ENDBRANCH  11  27
TORSDOF 3
