MODEL 2823
MODEL 1
REMARK VINA RESULT:    -7.654      0.000      0.000
REMARK INTER + INTRA:          -9.659
REMARK INTER:                  -8.997
REMARK INTRA:                  -0.663
REMARK UNBOUND:                -0.663
REMARK  Name = No_2823-gen_results/8p0m/2024-11-26-14-13-15/
REMARK  3 active torsions:
REMARK  status: ('A' for Active; 'I' for Inactive)
REMARK    1  A    between atoms: C_4  and  C_11
REMARK    2  A    between atoms: C_12  and  C_27
REMARK    3  A    between atoms: C_17  and  C_24
REMARK                            x       y       z     vdW  Elec       q    Type
REMARK                         _______ _______ _______ _____ _____    ______ ____
ROOT
ATOM      1  C   UNL A   1     -17.377 -21.536   6.105  0.00  0.00    -0.000 A 
ATOM      2  C   UNL A   1     -18.109 -21.079   6.709  0.00  0.00    +0.049 A 
ATOM      3  C   UNL A   1     -16.809 -22.800   6.601  0.00  0.00    -0.022 A 
ATOM      4  C   UNL A   1     -17.340 -23.425   7.767  0.00  0.00    -0.003 A 
ATOM      5  C   UNL A   1     -18.862 -21.537   7.908  0.00  0.00    -0.016 A 
ATOM      6  C   UNL A   1     -18.357 -22.702   8.404  0.00  0.00    -0.004 A 
ATOM      7  C   UNL A   1     -18.763 -19.718   6.197  0.00  0.00    +0.249 C 
ATOM      8  O   UNL A   1     -18.110 -19.116   5.521  0.00  0.00    -0.270 OA
ATOM      9  N   UNL A   1     -20.074 -19.377   6.553  0.00  0.00    -0.277 N 
ATOM     10  C   UNL A   1     -20.620 -18.170   6.019  0.00  0.00    +0.105 C 
ATOM     11  C   UNL A   1     -21.841 -18.132   6.004  0.00  0.00    +0.123 C 
ATOM     12  C   UNL A   1     -22.716 -19.077   6.704  0.00  0.00    +0.015 C 
ATOM     13  C   UNL A   1     -22.127 -20.260   7.196  0.00  0.00    +0.021 C 
ATOM     14  C   UNL A   1     -20.862 -20.460   7.030  0.00  0.00    +0.080 C 
ATOM     15  C   UNL A   1     -20.239 -21.546   7.764  0.00  0.00    +0.046 C 
ATOM     16  C   UNL A   1     -15.580 -23.433   6.009  0.00  0.00    +0.031 C 
ENDROOT
BRANCH   4  17
ATOM     17  C   UNL A   1     -16.817 -24.652   8.299  0.00  0.00    +0.017 A 
ATOM     18  C   UNL A   1     -15.622 -24.511   9.066  0.00  0.00    +0.081 A 
ATOM     19  C   UNL A   1     -14.626 -25.540   9.026  0.00  0.00    +0.007 A 
ATOM     20  C   UNL A   1     -15.084 -26.780   8.434  0.00  0.00    +0.001 A 
ATOM     21  C   UNL A   1     -16.156 -26.791   7.608  0.00  0.00    +0.011 A 
ATOM     22  C   UNL A   1     -17.058 -25.774   7.525  0.00  0.00    +0.058 A 
ATOM     23 CL   UNL A   1     -18.387 -25.901   6.535  0.00  0.00    -0.082 Cl
BRANCH  18  24
ATOM     24  C   UNL A   1     -15.278 -23.289   9.880  0.00  0.00    +0.388 C 
ATOM     25  O   UNL A   1     -15.582 -23.155  11.082  0.00  0.00    -0.241 OA
ATOM     26  O   UNL A   1     -14.412 -22.385   9.240  0.00  0.00    -0.241 OA
ENDBRANCH  18  24
ENDBRANCH   4  17
BRANCH  11  27
ATOM     27  C   UNL A   1     -22.547 -16.864   5.541  0.00  0.00    +0.366 C 
ATOM     28  O   UNL A   1     -22.243 -16.319   4.563  0.00  0.00    -0.246 OA
ATOM     29  O   UNL A   1     -23.484 -16.332   6.343  0.00  0.00    -0.246 OA
ENDBRANCH  11  27
TORSDOF 3
ENDMDL
ENDMDL
