MODEL 2824
MODEL 1
REMARK VINA RESULT:    -6.589      0.000      0.000
REMARK INTER + INTRA:          -9.534
REMARK INTER:                  -8.515
REMARK INTRA:                  -1.019
REMARK UNBOUND:                -1.019
REMARK  Name = No_2824-gen_results/8p0m/2024-11-26-14-13-15/
REMARK  5 active torsions:
REMARK  status: ('A' for Active; 'I' for Inactive)
REMARK    1  A    between atoms: C_1  and  N_8
REMARK    2  A    between atoms: C_5  and  C_10
REMARK    3  A    between atoms: N_8  and  C_9
REMARK    4  A    between atoms: C_9  and  C_13
REMARK    5  A    between atoms: C_21  and  C_22
REMARK                            x       y       z     vdW  Elec       q    Type
REMARK                         _______ _______ _______ _____ _____    ______ ____
ROOT
ATOM      1  C   UNL A   1      -7.313   0.443   9.294  0.00  0.00    +0.069 A 
ATOM      2  C   UNL A   1      -7.988   1.443   9.374  0.00  0.00    +0.015 A 
ATOM      3  C   UNL A   1      -8.286   2.200   8.246  0.00  0.00    +0.002 A 
ATOM      4  C   UNL A   1      -9.095   3.452   8.214  0.00  0.00    +0.008 A 
ATOM      5  C   UNL A   1      -9.744   3.806   9.434  0.00  0.00    +0.098 A 
ATOM      6  C   UNL A   1      -9.476   2.991  10.552  0.00  0.00    +0.008 A 
ATOM      7  C   UNL A   1      -8.693   1.902  10.529  0.00  0.00    -0.003 A 
ATOM      8  C   UNL A   1      -8.513   1.139  11.792  0.00  0.00    -0.022 A 
ATOM      9  C   UNL A   1      -9.435   1.274  12.768  0.00  0.00    +0.031 C 
ATOM     10  C   UNL A   1      -7.430   0.305  11.979  0.00  0.00    -0.002 A 
ATOM     11  C   UNL A   1      -6.759  -0.138  10.741  0.00  0.00    +0.056 A 
ENDROOT
BRANCH   5  12
ATOM     12  C   UNL A   1     -10.567   4.992   9.411  0.00  0.00    +0.477 C 
ATOM     13  N   UNL A   1     -11.423   5.205   8.416  0.00  0.00    +0.205 NA
ATOM     14  N   UNL A   1     -10.653   5.703  10.563  0.00  0.00    +0.205 NA
ENDBRANCH   5  12
BRANCH  11  15
ATOM     15  C   UNL A   1      -6.047  -0.535  11.655  0.00  0.00    +0.333 C 
ATOM     16  O   UNL A   1      -4.714  -0.058  11.679  0.00  0.00    -0.179 OA
ATOM     17  F   UNL A   1      -6.134  -1.743  12.053  0.00  0.00    -0.196 F 
ENDBRANCH  11  15
BRANCH   1  18
ATOM     18  N   UNL A   1      -6.522   0.191   8.146  0.00  0.00    -0.201 NA
BRANCH  18  19
ATOM     19  C   UNL A   1      -5.789  -0.980   7.999  0.00  0.00    +0.339 C 
ATOM     20  O   UNL A   1      -6.298  -1.527   6.766  0.00  0.00    -0.190 OA
BRANCH  19  21
ATOM     21  C   UNL A   1      -4.454  -0.875   8.094  0.00  0.00    +0.445 C 
ATOM     22  F   UNL A   1      -3.950  -1.373   7.012  0.00  0.00    -0.166 F 
ATOM     23  F   UNL A   1      -4.114   0.443   8.242  0.00  0.00    -0.166 F 
ATOM     24  F   UNL A   1      -3.820  -1.491   9.032  0.00  0.00    -0.166 F 
ENDBRANCH  19  21
ENDBRANCH  18  19
ENDBRANCH   1  18
TORSDOF 5
ENDMDL
ENDMDL
