MODEL 2825
MODEL 1
REMARK VINA RESULT:    -5.709      0.000      0.000
REMARK INTER + INTRA:          -5.709
REMARK INTER:                  -5.709
REMARK INTRA:                   0.000
REMARK UNBOUND:                 0.000
REMARK  Name = No_2825-gen_results/8p0m/2024-11-26-14-13-15/
REMARK  0 active torsions:
REMARK  status: ('A' for Active; 'I' for Inactive)
REMARK                            x       y       z     vdW  Elec       q    Type
REMARK                         _______ _______ _______ _____ _____    ______ ____
ROOT
ATOM      1  O   UNL A   1     -22.501  -1.767  28.737  0.00  0.00    -0.270 OA
ATOM      2  C   UNL A   1     -23.531  -1.977  29.389  0.00  0.00    +0.249 C 
ATOM      3  C   UNL A   1     -24.276  -2.691  29.510  0.00  0.00    +0.050 A 
ATOM      4  N   UNL A   1     -23.976  -0.603  30.114  0.00  0.00    -0.274 N 
ATOM      5  C   UNL A   1     -24.109  -4.068  29.112  0.00  0.00    +0.004 A 
ATOM      6  C   UNL A   1     -25.112  -5.021  29.012  0.00  0.00    +0.000 A 
ATOM      7  C   UNL A   1     -26.418  -4.730  29.622  0.00  0.00    -0.000 A 
ATOM      8  C   UNL A   1     -26.635  -3.463  30.100  0.00  0.00    -0.004 A 
ATOM      9  C   UNL A   1     -25.711  -2.499  30.051  0.00  0.00    -0.016 A 
ATOM     10  C   UNL A   1     -24.996  -0.469  30.906  0.00  0.00    +0.098 C 
ATOM     11  C   UNL A   1     -26.004  -1.295  30.767  0.00  0.00    +0.048 C 
ATOM     12  C   UNL A   1     -22.774   0.294  30.039  0.00  0.00    +0.115 C 
ENDROOT
TORSDOF 0
ENDMDL
ENDMDL
