REMARK  Name = No_2826-gen_results/8p0m/2024-11-26-14-13-15/
REMARK  1 active torsions:
REMARK  status: ('A' for Active; 'I' for Inactive)
REMARK    1  A    between atoms: C_3  and  C_4
REMARK                            x       y       z     vdW  Elec       q    Type
REMARK                         _______ _______ _______ _____ _____    ______ ____
ROOT
ATOM      1  C   UNL A   1     -28.016  -0.814  28.878  0.00  0.00    -0.000 A 
ATOM      2  C   UNL A   1     -28.469  -0.785  29.829  0.00  0.00    -0.000 A 
ATOM      3  C   UNL A   1     -27.136   0.236  28.535  0.00  0.00    -0.000 A 
ATOM      4  C   UNL A   1     -28.369   0.196  30.924  0.00  0.00    -0.000 A 
ATOM      5  C   UNL A   1     -27.516   1.266  30.654  0.00  0.00    -0.000 A 
ATOM      6  C   UNL A   1     -26.841   1.294  29.476  0.00  0.00    -0.000 A 
ENDROOT
BRANCH   3   7
ATOM      7  C   UNL A   1     -26.335   0.290  27.284  0.00  0.00    -0.005 C 
ATOM      8  C   UNL A   1     -25.361   0.775  26.967  0.00  0.00    -0.026 C 
ATOM      9  C   UNL A   1     -24.830   1.767  28.017  0.00  0.00    +0.031 C 
ENDBRANCH   3   7
TORSDOF 1
