MODEL 2826
MODEL 1
REMARK VINA RESULT:    -5.001      0.000      0.000
REMARK INTER + INTRA:          -5.391
REMARK INTER:                  -5.293
REMARK INTRA:                  -0.098
REMARK UNBOUND:                -0.098
REMARK  Name = No_2826-gen_results/8p0m/2024-11-26-14-13-15/
REMARK  1 active torsions:
REMARK  status: ('A' for Active; 'I' for Inactive)
REMARK    1  A    between atoms: C_3  and  C_4
REMARK                            x       y       z     vdW  Elec       q    Type
REMARK                         _______ _______ _______ _____ _____    ______ ____
ROOT
ATOM      1  C   UNL A   1     -25.794  -2.591  29.739  0.00  0.00    -0.000 A 
ATOM      2  C   UNL A   1     -26.390  -3.452  29.860  0.00  0.00    -0.000 A 
ATOM      3  C   UNL A   1     -24.496  -2.758  29.209  0.00  0.00    -0.000 A 
ATOM      4  C   UNL A   1     -26.114  -4.872  29.581  0.00  0.00    -0.000 A 
ATOM      5  C   UNL A   1     -24.844  -5.114  29.056  0.00  0.00    -0.000 A 
ATOM      6  C   UNL A   1     -24.018  -4.064  28.812  0.00  0.00    -0.000 A 
ENDROOT
BRANCH   3   7
ATOM      7  C   UNL A   1     -23.572  -1.642  28.875  0.00  0.00    -0.005 C 
ATOM      8  C   UNL A   1     -22.898  -0.945  29.463  0.00  0.00    -0.026 C 
ATOM      9  C   UNL A   1     -23.130  -1.047  30.981  0.00  0.00    +0.031 C 
ENDBRANCH   3   7
TORSDOF 1
ENDMDL
ENDMDL
