REMARK  Name = No_2827-gen_results/8p0m/2024-11-26-14-13-15/
REMARK  8 active torsions:
REMARK  status: ('A' for Active; 'I' for Inactive)
REMARK    1  A    between atoms: C_1  and  O_28
REMARK    2  A    between atoms: C_15  and  C_17
REMARK    3  A    between atoms: C_17  and  C_18
REMARK    4  A    between atoms: C_22  and  C_24
REMARK    5  A    between atoms: C_24  and  O_26
REMARK    6  A    between atoms: O_26  and  C_34
REMARK    7  A    between atoms: O_28  and  C_29
REMARK    8  A    between atoms: C_29  and  C_30
REMARK                            x       y       z     vdW  Elec       q    Type
REMARK                         _______ _______ _______ _____ _____    ______ ____
ROOT
ATOM      1  C   UNL A   1     -28.016  -0.814  28.878  0.00  0.00    +0.159 A 
ATOM      2  C   UNL A   1     -27.064  -0.119  28.608  0.00  0.00    +0.038 A 
ATOM      3  C   UNL A   1     -25.765  -0.390  29.036  0.00  0.00    +0.003 A 
ATOM      4  C   UNL A   1     -25.530  -1.530  29.901  0.00  0.00    +0.001 A 
ATOM      5  C   UNL A   1     -26.689  -2.289  30.181  0.00  0.00    +0.015 A 
ATOM      6  C   UNL A   1     -27.873  -1.951  29.737  0.00  0.00    +0.092 A 
ATOM      7 CL   UNL A   1     -29.194  -2.923  30.219  0.00  0.00    -0.079 Cl
ATOM      8  C   UNL A   1     -24.533   0.419  28.725  0.00  0.00    +0.001 A 
ATOM      9  C   UNL A   1     -23.343   0.108  29.175  0.00  0.00    +0.019 A 
ATOM     10  C   UNL A   1     -23.196  -1.187  29.822  0.00  0.00    +0.002 A 
ATOM     11  C   UNL A   1     -24.259  -1.938  30.280  0.00  0.00    +0.000 A 
ATOM     12  C   UNL A   1     -22.115   0.798  28.773  0.00  0.00    +0.093 C 
ATOM     13  N   UNL A   1     -21.607   1.140  27.858  0.00  0.00    -0.264 NA
ATOM     14  C   UNL A   1     -22.461   1.613  26.879  0.00  0.00    +0.155 C 
ATOM     15  C   UNL A   1     -23.668   2.259  27.229  0.00  0.00    +0.041 C 
ATOM     16  C   UNL A   1     -24.730   1.463  27.707  0.00  0.00    +0.001 C 
ENDROOT
BRANCH  15  17
ATOM     17  C   UNL A   1     -24.087   3.572  26.696  0.00  0.00    +0.194 C 
ATOM     18  O   UNL A   1     -23.752   3.859  25.526  0.00  0.00    -0.287 OA
BRANCH  17  19
ATOM     19  C   UNL A   1     -24.846   4.455  27.500  0.00  0.00    +0.039 A 
ATOM     20  C   UNL A   1     -25.224   5.712  27.146  0.00  0.00    +0.003 A 
ATOM     21  C   UNL A   1     -26.012   6.537  27.908  0.00  0.00    +0.000 A 
ATOM     22  C   UNL A   1     -26.448   6.093  29.155  0.00  0.00    +0.006 A 
ATOM     23  C   UNL A   1     -26.113   4.805  29.553  0.00  0.00    +0.076 A 
ATOM     24  C   UNL A   1     -25.317   3.998  28.784  0.00  0.00    +0.010 A 
BRANCH  23  25
ATOM     25  C   UNL A   1     -26.602   4.283  30.895  0.00  0.00    +0.346 C 
ATOM     26  O   UNL A   1     -27.439   4.548  31.436  0.00  0.00    -0.244 OA
BRANCH  25  27
ATOM     27  O   UNL A   1     -25.709   3.338  31.348  0.00  0.00    -0.418 OA
BRANCH  27  28
ATOM     28  C   UNL A   1     -26.208   2.278  32.136  0.00  0.00    +0.183 C 
ATOM     29  C   UNL A   1     -25.594   1.975  33.112  0.00  0.00    +0.044 C 
ENDBRANCH  27  28
ENDBRANCH  25  27
ENDBRANCH  23  25
ENDBRANCH  17  19
ENDBRANCH  15  17
BRANCH   1  30
ATOM     30  O   UNL A   1     -29.307  -0.487  28.547  0.00  0.00    -0.416 OA
BRANCH  30  31
ATOM     31  C   UNL A   1     -30.104   0.191  29.438  0.00  0.00    +0.415 C 
ATOM     32  O   UNL A   1     -29.524   1.102  30.141  0.00  0.00    -0.238 OA
BRANCH  31  33
ATOM     33  C   UNL A   1     -31.360  -0.042  29.316  0.00  0.00    +0.409 C 
ATOM     34  O   UNL A   1     -32.090   0.110  30.221  0.00  0.00    -0.247 OA
ATOM     35  F   UNL A   1     -31.872  -0.466  28.232  0.00  0.00    -0.152 F 
ENDBRANCH  31  33
ENDBRANCH  30  31
ENDBRANCH   1  30
TORSDOF 8
