MODEL 2827
MODEL 1
REMARK VINA RESULT:    -7.531      0.000      0.000
REMARK INTER + INTRA:         -12.930
REMARK INTER:                 -11.054
REMARK INTRA:                  -1.876
REMARK UNBOUND:                -1.876
REMARK  Name = No_2827-gen_results/8p0m/2024-11-26-14-13-15/
REMARK  8 active torsions:
REMARK  status: ('A' for Active; 'I' for Inactive)
REMARK    1  A    between atoms: C_1  and  O_28
REMARK    2  A    between atoms: C_15  and  C_17
REMARK    3  A    between atoms: C_17  and  C_18
REMARK    4  A    between atoms: C_22  and  C_24
REMARK    5  A    between atoms: C_24  and  O_26
REMARK    6  A    between atoms: O_26  and  C_34
REMARK    7  A    between atoms: O_28  and  C_29
REMARK    8  A    between atoms: C_29  and  C_30
REMARK                            x       y       z     vdW  Elec       q    Type
REMARK                         _______ _______ _______ _____ _____    ______ ____
ROOT
ATOM      1  C   UNL A   1     -15.046   3.368  37.865  0.00  0.00    +0.159 A 
ATOM      2  C   UNL A   1     -14.094   2.758  37.436  0.00  0.00    +0.038 A 
ATOM      3  C   UNL A   1     -13.842   2.577  36.077  0.00  0.00    +0.003 A 
ATOM      4  C   UNL A   1     -14.791   3.091  35.108  0.00  0.00    +0.001 A 
ATOM      5  C   UNL A   1     -15.881   3.783  35.682  0.00  0.00    +0.015 A 
ATOM      6  C   UNL A   1     -16.037   3.897  36.977  0.00  0.00    +0.092 A 
ATOM      7 CL   UNL A   1     -17.444   4.697  37.526  0.00  0.00    -0.079 Cl
ATOM      8  C   UNL A   1     -12.671   1.846  35.473  0.00  0.00    +0.001 A 
ATOM      9  C   UNL A   1     -12.507   1.706  34.181  0.00  0.00    +0.019 A 
ATOM     10  C   UNL A   1     -13.388   2.474  33.314  0.00  0.00    +0.002 A 
ATOM     11  C   UNL A   1     -14.563   3.056  33.740  0.00  0.00    +0.000 A 
ATOM     12  C   UNL A   1     -11.310   1.122  33.572  0.00  0.00    +0.093 C 
ATOM     13  N   UNL A   1     -10.214   1.201  33.636  0.00  0.00    -0.264 NA
ATOM     14  C   UNL A   1      -9.734   1.410  34.915  0.00  0.00    +0.155 C 
ATOM     15  C   UNL A   1     -10.411   0.872  36.033  0.00  0.00    +0.041 C 
ATOM     16  C   UNL A   1     -11.617   1.484  36.434  0.00  0.00    +0.001 C 
ENDROOT
BRANCH  15  17
ATOM     17  C   UNL A   1      -9.755   0.075  37.091  0.00  0.00    +0.194 C 
ATOM     18  O   UNL A   1      -8.516   0.185  37.218  0.00  0.00    -0.287 OA
BRANCH  17  19
ATOM     19  C   UNL A   1     -10.525  -0.772  37.922  0.00  0.00    +0.039 A 
ATOM     20  C   UNL A   1     -11.283  -1.816  37.494  0.00  0.00    +0.003 A 
ATOM     21  C   UNL A   1     -11.977  -2.669  38.314  0.00  0.00    +0.000 A 
ATOM     22  C   UNL A   1     -11.947  -2.456  39.691  0.00  0.00    +0.006 A 
ATOM     23  C   UNL A   1     -11.165  -1.419  40.184  0.00  0.00    +0.076 A 
ATOM     24  C   UNL A   1     -10.486  -0.571  39.349  0.00  0.00    +0.010 A 
BRANCH  23  25
ATOM     25  C   UNL A   1     -11.089  -1.184  41.684  0.00  0.00    +0.346 C 
ATOM     26  O   UNL A   1     -11.764  -0.720  42.310  0.00  0.00    -0.244 OA
BRANCH  25  27
ATOM     27  O   UNL A   1      -9.899  -1.699  42.147  0.00  0.00    -0.418 OA
BRANCH  27  28
ATOM     28  C   UNL A   1      -9.906  -3.006  42.683  0.00  0.00    +0.183 C 
ATOM     29  C   UNL A   1      -8.996  -3.725  42.405  0.00  0.00    +0.044 C 
ENDBRANCH  27  28
ENDBRANCH  25  27
ENDBRANCH  23  25
ENDBRANCH  17  19
ENDBRANCH  15  17
BRANCH   1  30
ATOM     30  O   UNL A   1     -15.350   3.451  39.201  0.00  0.00    -0.416 OA
BRANCH  30  31
ATOM     31  C   UNL A   1     -14.349   3.492  40.141  0.00  0.00    +0.415 C 
ATOM     32  O   UNL A   1     -13.807   4.643  40.346  0.00  0.00    -0.238 OA
BRANCH  31  33
ATOM     33  C   UNL A   1     -14.217   2.416  40.828  0.00  0.00    +0.409 C 
ATOM     34  O   UNL A   1     -14.866   2.232  41.787  0.00  0.00    -0.247 OA
ATOM     35  F   UNL A   1     -13.372   1.515  40.526  0.00  0.00    -0.152 F 
ENDBRANCH  31  33
ENDBRANCH  30  31
ENDBRANCH   1  30
TORSDOF 8
ENDMDL
ENDMDL
