REMARK  Name = No_2828-gen_results/8p0m/2024-11-26-14-13-15/
REMARK  1 active torsions:
REMARK  status: ('A' for Active; 'I' for Inactive)
REMARK    1  A    between atoms: C_5  and  C_7
REMARK                            x       y       z     vdW  Elec       q    Type
REMARK                         _______ _______ _______ _____ _____    ______ ____
ROOT
ATOM      1  C   UNL A   1     -28.016  -0.814  28.878  0.00  0.00    +0.000 A 
ATOM      2  C   UNL A   1     -27.064  -0.119  28.608  0.00  0.00    +0.000 A 
ATOM      3  C   UNL A   1     -26.972   0.714  27.506  0.00  0.00    +0.000 A 
ATOM      4  C   UNL A   1     -28.105   0.774  26.642  0.00  0.00    +0.005 A 
ATOM      5  C   UNL A   1     -29.201   0.104  27.053  0.00  0.00    +0.057 A 
ATOM      6  C   UNL A   1     -29.210  -0.603  28.185  0.00  0.00    +0.005 A 
ATOM      7  C   UNL A   1     -25.680  -0.226  29.398  0.00  0.00    +0.000 A 
ATOM      8  C   UNL A   1     -24.544   0.164  28.906  0.00  0.00    +0.000 A 
ATOM      9  C   UNL A   1     -23.306   0.068  29.608  0.00  0.00    +0.000 A 
ATOM     10  C   UNL A   1     -22.060   0.576  29.083  0.00  0.00    +0.000 A 
ATOM     11  C   UNL A   1     -22.010   1.287  27.912  0.00  0.00    +0.000 A 
ATOM     12  C   UNL A   1     -23.220   1.571  27.235  0.00  0.00    +0.000 A 
ATOM     13  C   UNL A   1     -24.438   1.056  27.702  0.00  0.00    +0.000 A 
ATOM     14  C   UNL A   1     -25.685   1.294  27.017  0.00  0.00    +0.000 A 
ENDROOT
BRANCH   5  15
ATOM     15  C   UNL A   1     -30.482   0.144  26.345  0.00  0.00    +0.284 C 
ATOM     16  N   UNL A   1     -30.552  -0.050  25.130  0.00  0.00    -0.084 NA
ATOM     17  O   UNL A   1     -31.574   0.321  26.958  0.00  0.00    -0.267 OA
ENDBRANCH   5  15
TORSDOF 1
