MODEL 2828
MODEL 1
REMARK VINA RESULT:    -7.167      0.000      0.000
REMARK INTER + INTRA:          -7.662
REMARK INTER:                  -7.586
REMARK INTRA:                  -0.077
REMARK UNBOUND:                -0.077
REMARK  Name = No_2828-gen_results/8p0m/2024-11-26-14-13-15/
REMARK  1 active torsions:
REMARK  status: ('A' for Active; 'I' for Inactive)
REMARK    1  A    between atoms: C_5  and  C_7
REMARK                            x       y       z     vdW  Elec       q    Type
REMARK                         _______ _______ _______ _____ _____    ______ ____
ROOT
ATOM      1  C   UNL A   1     -29.821  -9.579  31.862  0.00  0.00    +0.000 A 
ATOM      2  C   UNL A   1     -29.843 -10.317  30.904  0.00  0.00    +0.000 A 
ATOM      3  C   UNL A   1     -29.035 -11.429  30.736  0.00  0.00    +0.000 A 
ATOM      4  C   UNL A   1     -28.128 -11.738  31.792  0.00  0.00    +0.005 A 
ATOM      5  C   UNL A   1     -28.235 -10.984  32.905  0.00  0.00    +0.057 A 
ATOM      6  C   UNL A   1     -29.115  -9.984  32.996  0.00  0.00    +0.005 A 
ATOM      7  C   UNL A   1     -30.688  -9.983  29.590  0.00  0.00    +0.000 A 
ATOM      8  C   UNL A   1     -30.428 -10.491  28.425  0.00  0.00    +0.000 A 
ATOM      9  C   UNL A   1     -31.179 -10.194  27.249  0.00  0.00    +0.000 A 
ATOM     10  C   UNL A   1     -30.930 -10.824  25.974  0.00  0.00    +0.000 A 
ATOM     11  C   UNL A   1     -30.018 -11.838  25.839  0.00  0.00    +0.000 A 
ATOM     12  C   UNL A   1     -29.346 -12.309  26.992  0.00  0.00    +0.000 A 
ATOM     13  C   UNL A   1     -29.540 -11.688  28.235  0.00  0.00    +0.000 A 
ATOM     14  C   UNL A   1     -28.845 -12.118  29.424  0.00  0.00    +0.000 A 
ENDROOT
BRANCH   5  15
ATOM     15  C   UNL A   1     -27.458 -11.230  34.122  0.00  0.00    +0.284 C 
ATOM     16  N   UNL A   1     -27.112 -10.307  34.862  0.00  0.00    -0.084 NA
ATOM     17  O   UNL A   1     -27.161 -12.402  34.494  0.00  0.00    -0.267 OA
ENDBRANCH   5  15
TORSDOF 1
ENDMDL
ENDMDL
