MODEL 2829
MODEL 1
REMARK VINA RESULT:    -5.491      0.000      0.000
REMARK INTER + INTRA:          -5.491
REMARK INTER:                  -5.491
REMARK INTRA:                   0.000
REMARK UNBOUND:                 0.000
REMARK  Name = No_2829-gen_results/8p0m/2024-11-26-14-13-15/
REMARK  0 active torsions:
REMARK  status: ('A' for Active; 'I' for Inactive)
REMARK                            x       y       z     vdW  Elec       q    Type
REMARK                         _______ _______ _______ _____ _____    ______ ____
ROOT
ATOM      1  C   UNL A   1     -25.052  -5.297  29.045  0.00  0.00    +0.002 A 
ATOM      2  C   UNL A   1     -26.060  -4.822  29.514  0.00  0.00    +0.000 A 
ATOM      3  C   UNL A   1     -26.216  -3.501  29.896  0.00  0.00    +0.002 A 
ATOM      4  C   UNL A   1     -25.105  -2.631  29.691  0.00  0.00    +0.018 A 
ATOM      5  C   UNL A   1     -24.053  -3.157  29.030  0.00  0.00    +0.081 A 
ATOM      6  C   UNL A   1     -24.041  -4.429  28.626  0.00  0.00    +0.019 A 
ATOM      7  N   UNL A   1     -23.081  -2.114  28.918  0.00  0.00    -0.244 NA
ATOM      8  C   UNL A   1     -22.971  -1.104  29.609  0.00  0.00    +0.099 A 
ATOM      9  C   UNL A   1     -24.157  -0.551  30.232  0.00  0.00    +0.021 A 
ATOM     10  C   UNL A   1     -25.257  -1.352  30.302  0.00  0.00    +0.003 A 
ENDROOT
TORSDOF 0
ENDMDL
ENDMDL
