MODEL 282
MODEL 1
REMARK VINA RESULT:    -6.356      0.000      0.000
REMARK INTER + INTRA:          -6.769
REMARK INTER:                  -6.728
REMARK INTRA:                  -0.041
REMARK UNBOUND:                -0.041
REMARK  Name = No_282-gen_results/8p0m/2024-11-26-14-13-15/
REMARK  1 active torsions:
REMARK  status: ('A' for Active; 'I' for Inactive)
REMARK    1  A    between atoms: C_11  and  C_12
REMARK                            x       y       z     vdW  Elec       q    Type
REMARK                         _______ _______ _______ _____ _____    ______ ____
ROOT
ATOM      1  F   UNL A   1     -22.934   2.254  25.801  0.00  0.00    -0.204 F 
ATOM      2  C   UNL A   1     -23.639   1.471  26.249  0.00  0.00    +0.140 A 
ATOM      3  C   UNL A   1     -24.685   1.196  25.549  0.00  0.00    +0.030 A 
ATOM      4  C   UNL A   1     -25.702   0.181  25.910  0.00  0.00    +0.002 A 
ATOM      5  C   UNL A   1     -25.437  -0.524  27.136  0.00  0.00    +0.000 A 
ATOM      6  C   UNL A   1     -24.281  -0.203  27.810  0.00  0.00    +0.006 A 
ATOM      7  C   UNL A   1     -23.389   0.733  27.380  0.00  0.00    +0.027 A 
ATOM      8  C   UNL A   1     -22.195   0.938  28.174  0.00  0.00    +0.002 A 
ATOM      9  C   UNL A   1     -21.591   0.016  28.829  0.00  0.00    +0.000 A 
ATOM     10  C   UNL A   1     -22.466  -1.153  29.256  0.00  0.00    +0.004 A 
ATOM     11  C   UNL A   1     -23.732  -1.303  28.689  0.00  0.00    +0.071 A 
ENDROOT
BRANCH  11  12
ATOM     12  C   UNL A   1     -24.587  -2.449  29.080  0.00  0.00    +0.419 C 
ATOM     13  F   UNL A   1     -25.547  -2.051  29.744  0.00  0.00    -0.166 F 
ATOM     14  F   UNL A   1     -23.834  -3.278  29.929  0.00  0.00    -0.166 F 
ATOM     15  F   UNL A   1     -24.933  -3.229  28.107  0.00  0.00    -0.166 F 
ENDBRANCH  11  12
TORSDOF 1
ENDMDL
ENDMDL
