REMARK  Name = No_283-gen_results/8p0m/2024-11-26-14-13-15/
REMARK  3 active torsions:
REMARK  status: ('A' for Active; 'I' for Inactive)
REMARK    1  A    between atoms: C_3  and  C_7
REMARK    2  A    between atoms: C_7  and  C_8
REMARK    3  A    between atoms: C_7  and  C_14
REMARK                            x       y       z     vdW  Elec       q    Type
REMARK                         _______ _______ _______ _____ _____    ______ ____
ROOT
ATOM      1  C   UNL A   1     -24.549   0.410  28.734  0.00  0.00    +0.045 C 
ENDROOT
BRANCH   1   4
ATOM      2  C   UNL A   1     -28.016  -0.814  28.878  0.00  0.00    -0.000 A 
ATOM      3  C   UNL A   1     -27.064  -0.119  28.608  0.00  0.00    -0.004 A 
ATOM      4  C   UNL A   1     -25.765  -0.390  29.036  0.00  0.00    -0.018 A 
ATOM      5  C   UNL A   1     -25.530  -1.530  29.901  0.00  0.00    -0.004 A 
ATOM      6  C   UNL A   1     -26.689  -2.289  30.181  0.00  0.00    -0.000 A 
ATOM      7  C   UNL A   1     -27.873  -1.951  29.737  0.00  0.00    -0.000 A 
ENDBRANCH   1   4
BRANCH   1   8
ATOM      8  C   UNL A   1     -24.479   1.187  27.684  0.00  0.00    -0.018 C 
ATOM      9  C   UNL A   1     -25.176   1.531  26.799  0.00  0.00    -0.004 C 
ATOM     10  C   UNL A   1     -24.786   2.360  25.709  0.00  0.00    -0.000 C 
ATOM     11  C   UNL A   1     -25.218   3.178  25.146  0.00  0.00    -0.000 C 
ATOM     12  C   UNL A   1     -23.054   1.608  27.457  0.00  0.00    -0.004 C 
ATOM     13  C   UNL A   1     -23.207   2.594  26.096  0.00  0.00    -0.000 C 
ENDBRANCH   1   8
BRANCH   1  14
ATOM     14  C   UNL A   1     -23.527   0.361  29.854  0.00  0.00    +0.009 C 
ATOM     15  C   UNL A   1     -22.492  -0.590  29.586  0.00  0.00    +0.001 C 
ENDBRANCH   1  14
TORSDOF 3
