MODEL 2830
MODEL 1
REMARK VINA RESULT:    -6.577      0.000      0.000
REMARK INTER + INTRA:          -7.309
REMARK INTER:                  -6.962
REMARK INTRA:                  -0.348
REMARK UNBOUND:                -0.348
REMARK  Name = No_2830-gen_results/8p0m/2024-11-26-14-13-15/
REMARK  1 active torsions:
REMARK  status: ('A' for Active; 'I' for Inactive)
REMARK    1  A    between atoms: C_2  and  C_7
REMARK                            x       y       z     vdW  Elec       q    Type
REMARK                         _______ _______ _______ _____ _____    ______ ____
ROOT
ATOM      1  C   UNL A   1     -25.606  -2.520  29.570  0.00  0.00    +0.000 A 
ATOM      2  C   UNL A   1     -24.493  -2.560  29.100  0.00  0.00    +0.000 A 
ATOM      3  C   UNL A   1     -23.919  -3.767  28.715  0.00  0.00    +0.000 A 
ATOM      4  C   UNL A   1     -24.616  -5.013  28.908  0.00  0.00    +0.000 A 
ATOM      5  C   UNL A   1     -25.887  -4.877  29.479  0.00  0.00    +0.000 A 
ATOM      6  C   UNL A   1     -26.378  -3.713  29.841  0.00  0.00    +0.000 A 
ENDROOT
BRANCH   2   7
ATOM      7  C   UNL A   1     -23.621  -1.380  28.856  0.00  0.00    +0.000 A 
ATOM      8  C   UNL A   1     -22.470  -1.168  29.206  0.00  0.00    +0.000 A 
ATOM      9  C   UNL A   1     -21.654  -0.015  28.805  0.00  0.00    +0.000 A 
ATOM     10  C   UNL A   1     -22.274   0.938  27.970  0.00  0.00    +0.000 A 
ATOM     11  C   UNL A   1     -24.188  -0.355  27.947  0.00  0.00    +0.000 A 
ATOM     12  C   UNL A   1     -23.524   0.717  27.567  0.00  0.00    +0.000 A 
ENDBRANCH   2   7
TORSDOF 1
ENDMDL
ENDMDL
