MODEL 2831
MODEL 1
REMARK VINA RESULT:    -6.453      0.000      0.000
REMARK INTER + INTRA:          -7.659
REMARK INTER:                  -7.207
REMARK INTRA:                  -0.452
REMARK UNBOUND:                -0.452
REMARK  Name = No_2831-gen_results/8p0m/2024-11-26-14-13-15/
REMARK  2 active torsions:
REMARK  status: ('A' for Active; 'I' for Inactive)
REMARK    1  A    between atoms: C_8  and  C_10
REMARK    2  A    between atoms: C_12  and  C_14
REMARK                            x       y       z     vdW  Elec       q    Type
REMARK                         _______ _______ _______ _____ _____    ______ ____
ROOT
ATOM      1  C   UNL A   1     -25.854  -2.671  29.885  0.00  0.00    +0.137 A 
ATOM      2  N   UNL A   1     -26.389  -3.628  30.062  0.00  0.00    -0.239 NA
ATOM      3  C   UNL A   1     -24.590  -2.702  29.074  0.00  0.00    +0.024 A 
ATOM      4  C   UNL A   1     -26.068  -4.891  29.639  0.00  0.00    +0.099 A 
ATOM      5  C   UNL A   1     -24.959  -4.931  28.900  0.00  0.00    +0.021 A 
ATOM      6  C   UNL A   1     -24.183  -3.879  28.628  0.00  0.00    +0.003 A 
ENDROOT
BRANCH   1  14
ATOM      7  N   UNL A   1     -25.403   1.170  31.223  0.00  0.00    -0.190 NA
ATOM      8  C   UNL A   1     -25.689   0.426  31.978  0.00  0.00    +0.246 A 
ATOM      9  C   UNL A   1     -25.418   2.533  31.615  0.00  0.00    +0.203 A 
ATOM     10  N   UNL A   1     -25.670   2.756  32.940  0.00  0.00    -0.202 NA
ATOM     11  N   UNL A   1     -25.678  -0.976  31.566  0.00  0.00    -0.138 NA
ATOM     12  N   UNL A   1     -26.056   0.518  33.346  0.00  0.00    -0.190 NA
ATOM     13  C   UNL A   1     -26.052   1.788  33.772  0.00  0.00    +0.203 A 
ATOM     14  C   UNL A   1     -26.251  -1.295  30.428  0.00  0.00    +0.289 C 
ATOM     15  O   UNL A   1     -26.953  -0.608  29.815  0.00  0.00    -0.266 OA
ENDBRANCH   1  14
BRANCH   3  16
ATOM     16  C   UNL A   1     -23.800  -1.515  28.863  0.00  0.00    +0.021 A 
ATOM     17  C   UNL A   1     -22.670  -1.230  29.474  0.00  0.00    +0.003 A 
ATOM     18  C   UNL A   1     -24.280  -0.598  27.791  0.00  0.00    +0.099 A 
ATOM     19  N   UNL A   1     -23.548   0.501  27.553  0.00  0.00    -0.242 NA
ATOM     20  C   UNL A   1     -21.982  -0.005  29.290  0.00  0.00    +0.021 A 
ATOM     21  C   UNL A   1     -22.467   0.831  28.241  0.00  0.00    +0.099 A 
ENDBRANCH   3  16
TORSDOF 2
ENDMDL
ENDMDL
