REMARK  Name = No_2831-gen_results/8p0m/2024-11-26-14-13-15/
REMARK  2 active torsions:
REMARK  status: ('A' for Active; 'I' for Inactive)
REMARK    1  A    between atoms: C_8  and  C_10
REMARK    2  A    between atoms: C_12  and  C_14
REMARK                            x       y       z     vdW  Elec       q    Type
REMARK                         _______ _______ _______ _____ _____    ______ ____
ROOT
ATOM      1  C   UNL A   1     -31.795   0.187  27.620  0.00  0.00    +0.137 A 
ATOM      2  N   UNL A   1     -32.671   0.101  28.298  0.00  0.00    -0.239 NA
ATOM      3  C   UNL A   1     -32.037   0.158  26.138  0.00  0.00    +0.024 A 
ATOM      4  C   UNL A   1     -33.998  -0.032  27.986  0.00  0.00    +0.099 A 
ATOM      5  C   UNL A   1     -34.230  -0.039  26.673  0.00  0.00    +0.021 A 
ATOM      6  C   UNL A   1     -33.287   0.018  25.729  0.00  0.00    +0.003 A 
ENDROOT
BRANCH   1  14
ATOM      7  N   UNL A   1     -28.054  -1.050  28.725  0.00  0.00    -0.190 NA
ATOM      8  C   UNL A   1     -28.654  -0.567  29.508  0.00  0.00    +0.246 A 
ATOM      9  C   UNL A   1     -26.695  -1.322  29.024  0.00  0.00    +0.203 A 
ATOM     10  N   UNL A   1     -26.317  -1.062  30.312  0.00  0.00    -0.202 NA
ATOM     11  N   UNL A   1     -30.052  -0.283  29.192  0.00  0.00    -0.138 NA
ATOM     12  N   UNL A   1     -28.375  -0.164  30.840  0.00  0.00    -0.190 NA
ATOM     13  C   UNL A   1     -27.107  -0.433  31.180  0.00  0.00    +0.203 A 
ATOM     14  C   UNL A   1     -30.327   0.291  28.043  0.00  0.00    +0.289 C 
ATOM     15  O   UNL A   1     -29.553   0.790  27.341  0.00  0.00    -0.266 OA
ENDBRANCH   1  14
BRANCH   3  16
ATOM     16  C   UNL A   1     -30.947   0.190  25.195  0.00  0.00    +0.021 A 
ATOM     17  C   UNL A   1     -30.201   1.239  24.925  0.00  0.00    +0.003 A 
ATOM     18  C   UNL A   1     -30.602  -1.112  24.558  0.00  0.00    +0.099 A 
ATOM     19  N   UNL A   1     -29.572  -1.118  23.698  0.00  0.00    -0.242 NA
ATOM     20  C   UNL A   1     -29.199   1.235  23.923  0.00  0.00    +0.021 A 
ATOM     21  C   UNL A   1     -28.890  -0.037  23.355  0.00  0.00    +0.099 A 
ENDBRANCH   3  16
TORSDOF 2
