MODEL 2832
MODEL 1
REMARK VINA RESULT:    -6.567      0.000      0.000
REMARK INTER + INTRA:          -6.820
REMARK INTER:                  -6.951
REMARK INTRA:                   0.131
REMARK UNBOUND:                 0.131
REMARK  Name = No_2832-gen_results/8p0m/2024-11-26-14-13-15/
REMARK  2 active torsions:
REMARK  status: ('A' for Active; 'I' for Inactive)
REMARK    1  A    between atoms: C_3  and  C_10
REMARK    2  A    between atoms: C_5  and  C_6
REMARK                            x       y       z     vdW  Elec       q    Type
REMARK                         _______ _______ _______ _____ _____    ______ ____
ROOT
ATOM      1  C   UNL A   1     -29.724  -9.791  32.068  0.00  0.00    -0.029 C 
ATOM      2  C   UNL A   1     -29.938 -10.148  30.933  0.00  0.00    -0.008 C 
ATOM      3  C   UNL A   1     -29.261 -11.160  30.274  0.00  0.00    +0.173 C 
ATOM      4  C   UNL A   1     -28.253 -11.851  31.010  0.00  0.00    +0.039 C 
ATOM      5  C   UNL A   1     -28.144 -11.544  32.313  0.00  0.00    +0.110 C 
ATOM      6  C   UNL A   1     -28.831 -10.535  32.846  0.00  0.00    +0.037 C 
ATOM      7 CL   UNL A   1     -29.331 -11.857  29.447  0.00  0.00    -0.103 Cl
ENDROOT
BRANCH   3   8
ATOM      8  C   UNL A   1     -29.471 -11.420  28.780  0.00  0.00    +0.413 C 
ATOM      9  F   UNL A   1     -29.893 -10.439  28.244  0.00  0.00    -0.168 F 
ATOM     10  F   UNL A   1     -30.448 -12.349  28.682  0.00  0.00    -0.168 F 
ATOM     11  F   UNL A   1     -28.402 -11.923  28.197  0.00  0.00    -0.168 F 
ENDBRANCH   3   8
BRANCH   5  12
ATOM     12  C   UNL A   1     -27.195 -12.300  33.050  0.00  0.00    +0.365 C 
ATOM     13  O   UNL A   1     -26.385 -12.903  32.519  0.00  0.00    -0.246 OA
ATOM     14  O   UNL A   1     -27.289 -12.431  34.381  0.00  0.00    -0.246 OA
ENDBRANCH   5  12
TORSDOF 2
ENDMDL
ENDMDL
