REMARK  Name = No_2832-gen_results/8p0m/2024-11-26-14-13-15/
REMARK  2 active torsions:
REMARK  status: ('A' for Active; 'I' for Inactive)
REMARK    1  A    between atoms: C_3  and  C_10
REMARK    2  A    between atoms: C_5  and  C_6
REMARK                            x       y       z     vdW  Elec       q    Type
REMARK                         _______ _______ _______ _____ _____    ______ ____
ROOT
ATOM      1  C   UNL A   1     -28.016  -0.814  28.878  0.00  0.00    -0.029 C 
ATOM      2  C   UNL A   1     -27.064  -0.119  28.608  0.00  0.00    -0.008 C 
ATOM      3  C   UNL A   1     -26.972   0.714  27.506  0.00  0.00    +0.173 C 
ATOM      4  C   UNL A   1     -28.105   0.774  26.642  0.00  0.00    +0.039 C 
ATOM      5  C   UNL A   1     -29.204   0.118  27.048  0.00  0.00    +0.110 C 
ATOM      6  C   UNL A   1     -29.182  -0.676  28.117  0.00  0.00    +0.037 C 
ATOM      7 CL   UNL A   1     -26.452   1.580  27.113  0.00  0.00    -0.103 Cl
ENDROOT
BRANCH   3   8
ATOM      8  C   UNL A   1     -25.660   1.415  27.143  0.00  0.00    +0.413 C 
ATOM      9  F   UNL A   1     -24.746   0.648  27.215  0.00  0.00    -0.168 F 
ATOM     10  F   UNL A   1     -25.441   2.346  28.098  0.00  0.00    -0.168 F 
ATOM     11  F   UNL A   1     -25.726   2.052  25.992  0.00  0.00    -0.168 F 
ENDBRANCH   3   8
BRANCH   5  12
ATOM     12  C   UNL A   1     -30.349   0.257  26.220  0.00  0.00    +0.365 C 
ATOM     13  O   UNL A   1     -31.339  -0.235  26.500  0.00  0.00    -0.246 OA
ATOM     14  O   UNL A   1     -30.278   0.865  25.027  0.00  0.00    -0.246 OA
ENDBRANCH   5  12
TORSDOF 2
