REMARK  Name = No_2833-gen_results/8p0m/2024-11-26-14-13-15/
REMARK  8 active torsions:
REMARK  status: ('A' for Active; 'I' for Inactive)
REMARK    1  A    between atoms: C_1  and  C_2
REMARK    2  A    between atoms: C_1  and  C_8
REMARK    3  A    between atoms: C_5  and  C_12
REMARK    4  A    between atoms: N_13  and  C_15
REMARK    5  A    between atoms: C_15  and  C_16
REMARK    6  A    between atoms: C_16  and  C_17
REMARK    7  A    between atoms: C_18  and  C_19
REMARK    8  A    between atoms: C_20  and  C_21
REMARK                            x       y       z     vdW  Elec       q    Type
REMARK                         _______ _______ _______ _____ _____    ______ ____
ROOT
ATOM      1  C   UNL A   1     -23.502   2.135  27.567  0.00  0.00    +0.265 C 
ATOM      2  N   UNL A   1     -22.312   1.660  27.508  0.00  0.00    -0.201 NA
ATOM      3  O   UNL A   1     -23.705   3.141  26.716  0.00  0.00    -0.268 OA
ENDROOT
BRANCH   1   7
ATOM      4  C   UNL A   1     -27.064  -0.119  28.608  0.00  0.00    -0.014 A 
ATOM      5  C   UNL A   1     -26.929   1.171  29.008  0.00  0.00    -0.004 A 
ATOM      6  C   UNL A   1     -25.770   2.034  28.688  0.00  0.00    +0.004 A 
ATOM      7  C   UNL A   1     -24.714   1.443  27.919  0.00  0.00    +0.055 A 
ATOM      8  C   UNL A   1     -24.859   0.078  27.584  0.00  0.00    +0.004 A 
ATOM      9  C   UNL A   1     -25.965  -0.661  27.916  0.00  0.00    -0.004 A 
BRANCH   4  10
ATOM     10  C   UNL A   1     -28.016  -0.814  28.878  0.00  0.00    +0.130 C 
BRANCH  10  11
ATOM     11  C   UNL A   1     -28.651  -0.609  30.254  0.00  0.00    +0.402 C 
ATOM     12  F   UNL A   1     -28.081  -0.949  31.179  0.00  0.00    -0.170 F 
ATOM     13  F   UNL A   1     -28.932   0.728  30.354  0.00  0.00    -0.170 F 
ATOM     14  F   UNL A   1     -29.856  -1.325  30.282  0.00  0.00    -0.170 F 
ENDBRANCH  10  11
ENDBRANCH   4  10
ENDBRANCH   1   7
BRANCH   2  15
ATOM     15  C   UNL A   1     -21.838   0.757  28.514  0.00  0.00    +0.120 C 
BRANCH  15  16
ATOM     16  C   UNL A   1     -21.739  -0.387  28.524  0.00  0.00    +0.050 C 
BRANCH  16  17
ATOM     17  C   UNL A   1     -22.559  -1.170  29.443  0.00  0.00    -0.024 C 
ATOM     18  C   UNL A   1     -22.968  -0.604  30.711  0.00  0.00    -0.004 C 
BRANCH  18  19
ATOM     19  C   UNL A   1     -23.698  -1.321  31.632  0.00  0.00    -0.000 C 
ATOM     20  C   UNL A   1     -25.042  -0.921  31.848  0.00  0.00    -0.000 C 
BRANCH  20  21
ATOM     21  C   UNL A   1     -25.243   0.380  32.599  0.00  0.00    -0.000 A 
ATOM     22  C   UNL A   1     -24.765   1.482  31.752  0.00  0.00    -0.000 A 
ATOM     23  C   UNL A   1     -25.135   2.802  32.366  0.00  0.00    +0.000 A 
ATOM     24  C   UNL A   1     -25.968   2.922  33.428  0.00  0.00    +0.000 A 
ATOM     25  C   UNL A   1     -26.554   1.754  33.986  0.00  0.00    +0.000 A 
ATOM     26  C   UNL A   1     -26.236   0.503  33.526  0.00  0.00    -0.000 A 
ENDBRANCH  20  21
ENDBRANCH  18  19
ENDBRANCH  16  17
ENDBRANCH  15  16
ENDBRANCH   2  15
TORSDOF 8
