MODEL 2834
MODEL 1
REMARK VINA RESULT:    -7.646      0.000      0.000
REMARK INTER + INTRA:         -12.472
REMARK INTER:                 -11.222
REMARK INTRA:                  -1.249
REMARK UNBOUND:                -1.249
REMARK  Name = No_2834-gen_results/8p0m/2024-11-26-14-13-15/
REMARK  8 active torsions:
REMARK  status: ('A' for Active; 'I' for Inactive)
REMARK    1  A    between atoms: C_2  and  C_7
REMARK    2  A    between atoms: C_6  and  C_13
REMARK    3  A    between atoms: C_11  and  C_17
REMARK    4  A    between atoms: N_14  and  C_16
REMARK    5  A    between atoms: N_18  and  C_26
REMARK    6  A    between atoms: C_26  and  C_27
REMARK    7  A    between atoms: C_28  and  C_29
REMARK    8  A    between atoms: C_29  and  N_30
REMARK                            x       y       z     vdW  Elec       q    Type
REMARK                         _______ _______ _______ _____ _____    ______ ____
ROOT
ATOM      1  C   UNL A   1     -25.625  -2.737  29.504  0.00  0.00    +0.005 A 
ATOM      2  C   UNL A   1     -24.485  -2.830  29.113  0.00  0.00    +0.000 A 
ATOM      3  C   UNL A   1     -23.931  -4.068  28.803  0.00  0.00    +0.000 A 
ATOM      4  C   UNL A   1     -24.684  -5.282  28.982  0.00  0.00    +0.000 A 
ATOM      5  C   UNL A   1     -25.986  -5.084  29.461  0.00  0.00    +0.005 A 
ATOM      6  C   UNL A   1     -26.457  -3.894  29.755  0.00  0.00    +0.055 A 
ENDROOT
BRANCH   2   7
ATOM      7  C   UNL A   1     -23.556  -1.689  28.896  0.00  0.00    +0.000 A 
ATOM      8  C   UNL A   1     -22.647  -1.460  29.305  0.00  0.00    +0.000 A 
ATOM      9  C   UNL A   1     -21.771  -0.242  29.134  0.00  0.00    +0.000 A 
ATOM     10  C   UNL A   1     -22.265   0.783  28.350  0.00  0.00    +0.005 A 
ATOM     11  C   UNL A   1     -23.535   0.645  27.786  0.00  0.00    +0.058 A 
ATOM     12  C   UNL A   1     -24.225  -0.515  27.982  0.00  0.00    +0.005 A 
BRANCH  11  13
ATOM     13  C   UNL A   1     -24.074   1.711  26.960  0.00  0.00    +0.275 C 
ATOM     14  N   UNL A   1     -24.447   1.699  25.924  0.00  0.00    -0.229 NA
ATOM     15  O   UNL A   1     -23.789   3.010  27.447  0.00  0.00    -0.266 OA
BRANCH  14  16
ATOM     16  C   UNL A   1     -24.607   0.737  24.899  0.00  0.00    +0.155 C 
BRANCH  16  17
ATOM     17  C   UNL A   1     -26.012   0.103  24.983  0.00  0.00    -0.003 C 
ATOM     18  C   UNL A   1     -27.138   0.734  25.381  0.00  0.00    -0.003 C 
BRANCH  18  19
ATOM     19  C   UNL A   1     -28.354   0.383  24.968  0.00  0.00    +0.151 C 
BRANCH  19  20
ATOM     20  N   UNL A   1     -28.307  -0.076  23.761  0.00  0.00    -0.263 NA
ATOM     21  C   UNL A   1     -29.266  -1.125  23.656  0.00  0.00    +0.114 C 
ENDBRANCH  19  20
ENDBRANCH  18  19
ENDBRANCH  16  17
ENDBRANCH  14  16
ENDBRANCH  11  13
ENDBRANCH   2   7
BRANCH   6  22
ATOM     22  C   UNL A   1     -27.815  -3.831  30.346  0.00  0.00    +0.269 C 
ATOM     23  N   UNL A   1     -28.327  -4.795  30.865  0.00  0.00    -0.175 NA
ATOM     24  O   UNL A   1     -28.440  -2.711  30.316  0.00  0.00    -0.268 OA
BRANCH  23  25
ATOM     25  C   UNL A   1     -29.644  -4.800  31.551  0.00  0.00    +0.074 A 
ATOM     26  C   UNL A   1     -30.657  -4.928  31.052  0.00  0.00    +0.018 A 
ATOM     27  C   UNL A   1     -29.444  -4.611  32.983  0.00  0.00    +0.018 A 
ATOM     28  C   UNL A   1     -31.926  -4.876  31.772  0.00  0.00    +0.013 A 
ATOM     29  C   UNL A   1     -30.646  -4.545  33.741  0.00  0.00    +0.013 A 
ATOM     30  C   UNL A   1     -31.848  -4.726  33.105  0.00  0.00    +0.058 A 
ATOM     31 CL   UNL A   1     -33.262  -4.675  34.068  0.00  0.00    -0.082 Cl
ENDBRANCH  23  25
ENDBRANCH   6  22
TORSDOF 8
ENDMDL
ENDMDL
