REMARK  Name = No_2835-gen_results/8p0m/2024-11-26-14-13-15/
REMARK  2 active torsions:
REMARK  status: ('A' for Active; 'I' for Inactive)
REMARK    1  A    between atoms: C_3  and  C_7
REMARK    2  A    between atoms: N_8  and  C_9
REMARK                            x       y       z     vdW  Elec       q    Type
REMARK                         _______ _______ _______ _____ _____    ______ ____
ROOT
ATOM      1  C   UNL A   1     -27.448   0.380  26.712  0.00  0.00    +0.269 C 
ATOM      2  N   UNL A   1     -26.087   0.216  26.741  0.00  0.00    -0.175 NA
ATOM      3  O   UNL A   1     -27.988   0.643  25.697  0.00  0.00    -0.268 OA
ENDROOT
BRANCH   1   6
ATOM      4  C   UNL A   1     -28.016  -0.814  28.878  0.00  0.00    +0.005 A 
ATOM      5  C   UNL A   1     -28.469  -0.785  29.829  0.00  0.00    +0.003 A 
ATOM      6  C   UNL A   1     -28.196   0.348  28.055  0.00  0.00    +0.058 A 
ATOM      7  C   UNL A   1     -29.019   1.350  28.378  0.00  0.00    +0.034 A 
ATOM      8  C   UNL A   1     -29.411   0.180  30.378  0.00  0.00    +0.030 A 
ATOM      9  C   UNL A   1     -29.606   1.250  29.619  0.00  0.00    +0.140 A 
ATOM     10  F   UNL A   1     -30.430   2.272  29.989  0.00  0.00    -0.204 F 
ENDBRANCH   1   6
BRANCH   2  11
ATOM     11  C   UNL A   1     -25.228   1.092  27.334  0.00  0.00    +0.076 A 
ATOM     12  C   UNL A   1     -23.878   0.688  27.610  0.00  0.00    +0.046 A 
ATOM     13  C   UNL A   1     -22.818   1.589  27.638  0.00  0.00    +0.141 A 
ATOM     14  C   UNL A   1     -25.508   2.461  27.456  0.00  0.00    +0.017 A 
ATOM     15  C   UNL A   1     -24.516   3.425  27.732  0.00  0.00    +0.004 A 
ATOM     16  C   UNL A   1     -23.186   3.021  27.817  0.00  0.00    +0.030 A 
ATOM     17  F   UNL A   1     -21.609   1.271  27.912  0.00  0.00    -0.204 F 
ENDBRANCH   2  11
TORSDOF 2
