MODEL 2835
MODEL 1
REMARK VINA RESULT:    -7.572      0.000      0.000
REMARK INTER + INTRA:          -8.455
REMARK INTER:                  -8.457
REMARK INTRA:                   0.003
REMARK UNBOUND:                 0.003
REMARK  Name = No_2835-gen_results/8p0m/2024-11-26-14-13-15/
REMARK  2 active torsions:
REMARK  status: ('A' for Active; 'I' for Inactive)
REMARK    1  A    between atoms: C_3  and  C_7
REMARK    2  A    between atoms: N_8  and  C_9
REMARK                            x       y       z     vdW  Elec       q    Type
REMARK                         _______ _______ _______ _____ _____    ______ ____
ROOT
ATOM      1  C   UNL A   1     -23.205  -0.341  29.518  0.00  0.00    +0.269 C 
ATOM      2  N   UNL A   1     -23.181  -1.709  29.600  0.00  0.00    -0.175 NA
ATOM      3  O   UNL A   1     -23.092   0.310  30.494  0.00  0.00    -0.268 OA
ENDROOT
BRANCH   1   6
ATOM      4  C   UNL A   1     -22.738   1.417  27.748  0.00  0.00    +0.005 A 
ATOM      5  C   UNL A   1     -22.911   1.781  26.774  0.00  0.00    +0.003 A 
ATOM      6  C   UNL A   1     -23.521   0.283  28.148  0.00  0.00    +0.058 A 
ATOM      7  C   UNL A   1     -24.532  -0.200  27.419  0.00  0.00    +0.034 A 
ATOM      8  C   UNL A   1     -23.958   1.429  25.825  0.00  0.00    +0.030 A 
ATOM      9  C   UNL A   1     -24.705   0.396  26.190  0.00  0.00    +0.140 A 
ATOM     10  F   UNL A   1     -25.712  -0.094  25.411  0.00  0.00    -0.204 F 
ENDBRANCH   1   6
BRANCH   2  11
ATOM     11  C   UNL A   1     -24.272  -2.502  29.399  0.00  0.00    +0.076 A 
ATOM     12  C   UNL A   1     -24.108  -3.801  28.811  0.00  0.00    +0.046 A 
ATOM     13  C   UNL A   1     -24.962  -4.863  29.092  0.00  0.00    +0.141 A 
ATOM     14  C   UNL A   1     -25.521  -2.230  29.975  0.00  0.00    +0.017 A 
ATOM     15  C   UNL A   1     -26.545  -3.195  30.077  0.00  0.00    +0.004 A 
ATOM     16  C   UNL A   1     -26.290  -4.498  29.658  0.00  0.00    +0.030 A 
ATOM     17  F   UNL A   1     -24.866  -6.024  28.562  0.00  0.00    -0.204 F 
ENDBRANCH   2  11
TORSDOF 2
ENDMDL
ENDMDL
