REMARK  Name = No_2836-gen_results/8p0m/2024-11-26-14-13-15/
REMARK  1 active torsions:
REMARK  status: ('A' for Active; 'I' for Inactive)
REMARK    1  A    between atoms: C_5  and  C_7
REMARK                            x       y       z     vdW  Elec       q    Type
REMARK                         _______ _______ _______ _____ _____    ______ ____
ROOT
ATOM      1  C   UNL A   1     -28.016  -0.814  28.878  0.00  0.00    +0.136 A 
ATOM      2  C   UNL A   1     -27.064  -0.119  28.608  0.00  0.00    +0.020 A 
ATOM      3  C   UNL A   1     -26.972   0.714  27.506  0.00  0.00    -0.001 A 
ATOM      4  C   UNL A   1     -28.105   0.774  26.642  0.00  0.00    +0.001 A 
ATOM      5  C   UNL A   1     -29.201   0.104  27.053  0.00  0.00    +0.021 A 
ATOM      6  C   UNL A   1     -29.210  -0.603  28.185  0.00  0.00    +0.038 A 
ATOM      7  O   UNL A   1     -27.887  -1.566  30.064  0.00  0.00    -0.471 OA
ATOM      8  C   UNL A   1     -26.979  -2.547  30.016  0.00  0.00    +0.232 C 
ATOM      9  C   UNL A   1     -25.613  -2.155  29.926  0.00  0.00    +0.017 C 
ATOM     10  C   UNL A   1     -25.007  -1.677  28.726  0.00  0.00    -0.018 C 
ATOM     11  C   UNL A   1     -25.658  -0.418  28.283  0.00  0.00    +0.069 C 
ATOM     12  C   UNL A   1     -24.789   0.453  27.542  0.00  0.00    -0.018 C 
ATOM     13  C   UNL A   1     -25.788   1.405  26.874  0.00  0.00    -0.004 C 
ENDROOT
BRANCH   5  14
ATOM     14  C   UNL A   1     -30.370   0.226  26.160  0.00  0.00    +0.081 A 
ATOM     15  N   UNL A   1     -30.299   0.234  24.938  0.00  0.00    -0.244 NA
ATOM     16  C   UNL A   1     -31.688   0.100  26.761  0.00  0.00    +0.019 A 
ATOM     17  C   UNL A   1     -32.764   0.084  25.870  0.00  0.00    +0.003 A 
ATOM     18  C   UNL A   1     -31.304   0.250  24.046  0.00  0.00    +0.099 A 
ATOM     19  C   UNL A   1     -32.581   0.183  24.553  0.00  0.00    +0.021 A 
ENDBRANCH   5  14
TORSDOF 1
