MODEL 2836
MODEL 1
REMARK VINA RESULT:    -7.656      0.000      0.000
REMARK INTER + INTRA:          -8.436
REMARK INTER:                  -8.104
REMARK INTRA:                  -0.332
REMARK UNBOUND:                -0.332
REMARK  Name = No_2836-gen_results/8p0m/2024-11-26-14-13-15/
REMARK  1 active torsions:
REMARK  status: ('A' for Active; 'I' for Inactive)
REMARK    1  A    between atoms: C_5  and  C_7
REMARK                            x       y       z     vdW  Elec       q    Type
REMARK                         _______ _______ _______ _____ _____    ______ ____
ROOT
ATOM      1  C   UNL A   1     -26.209  -1.717  30.095  0.00  0.00    +0.136 A 
ATOM      2  C   UNL A   1     -25.693  -2.810  30.057  0.00  0.00    +0.020 A 
ATOM      3  C   UNL A   1     -24.668  -3.178  29.202  0.00  0.00    -0.001 A 
ATOM      4  C   UNL A   1     -24.166  -2.175  28.321  0.00  0.00    +0.001 A 
ATOM      5  C   UNL A   1     -24.660  -0.932  28.494  0.00  0.00    +0.021 A 
ATOM      6  C   UNL A   1     -25.590  -0.667  29.414  0.00  0.00    +0.038 A 
ATOM      7  O   UNL A   1     -27.224  -1.572  31.063  0.00  0.00    -0.471 OA
ATOM      8  C   UNL A   1     -28.340  -2.269  30.822  0.00  0.00    +0.232 C 
ATOM      9  C   UNL A   1     -28.242  -3.687  30.904  0.00  0.00    +0.017 C 
ATOM     10  C   UNL A   1     -27.643  -4.497  29.894  0.00  0.00    -0.018 C 
ATOM     11  C   UNL A   1     -26.205  -4.156  29.743  0.00  0.00    +0.069 C 
ATOM     12  C   UNL A   1     -25.396  -5.251  29.288  0.00  0.00    -0.018 C 
ATOM     13  C   UNL A   1     -24.122  -4.534  28.825  0.00  0.00    -0.004 C 
ENDROOT
BRANCH   5  14
ATOM     14  C   UNL A   1     -24.085   0.091  27.599  0.00  0.00    +0.081 A 
ATOM     15  N   UNL A   1     -24.650   0.522  26.602  0.00  0.00    -0.244 NA
ATOM     16  C   UNL A   1     -22.890   0.783  28.052  0.00  0.00    +0.019 A 
ATOM     17  C   UNL A   1     -22.453   1.836  27.245  0.00  0.00    +0.003 A 
ATOM     18  C   UNL A   1     -24.252   1.509  25.781  0.00  0.00    +0.099 A 
ATOM     19  C   UNL A   1     -23.098   2.173  26.128  0.00  0.00    +0.021 A 
ENDBRANCH   5  14
TORSDOF 1
ENDMDL
ENDMDL
