MODEL 2837
MODEL 1
REMARK VINA RESULT:    -6.545      0.000      0.000
REMARK INTER + INTRA:          -7.811
REMARK INTER:                  -7.310
REMARK INTRA:                  -0.501
REMARK UNBOUND:                -0.501
REMARK  Name = No_2837-gen_results/8p0m/2024-11-26-14-13-15/
REMARK  2 active torsions:
REMARK  status: ('A' for Active; 'I' for Inactive)
REMARK    1  A    between atoms: C_3  and  N_7
REMARK    2  A    between atoms: N_7  and  C_8
REMARK                            x       y       z     vdW  Elec       q    Type
REMARK                         _______ _______ _______ _____ _____    ______ ____
ROOT
ATOM      1  N   UNL A   1     -24.517  -1.389  29.669  0.00  0.00    -0.285 N 
ATOM      2  C   UNL A   1     -23.747  -1.323  30.921  0.00  0.00    +0.117 C 
ENDROOT
BRANCH   1   5
ATOM      3  C   UNL A   1     -22.563   0.997  27.830  0.00  0.00    +0.001 A 
ATOM      4  C   UNL A   1     -22.896   0.239  28.711  0.00  0.00    +0.015 A 
ATOM      5  C   UNL A   1     -24.081  -0.496  28.688  0.00  0.00    +0.052 A 
ATOM      6  C   UNL A   1     -25.005  -0.313  27.586  0.00  0.00    +0.015 A 
ATOM      7  C   UNL A   1     -24.553   0.594  26.601  0.00  0.00    +0.001 A 
ATOM      8  C   UNL A   1     -23.423   1.246  26.712  0.00  0.00    +0.000 A 
ENDBRANCH   1   5
BRANCH   1   9
ATOM      9  C   UNL A   1     -24.919  -2.589  29.438  0.00  0.00    +0.052 A 
ATOM     10  C   UNL A   1     -25.781  -3.166  29.791  0.00  0.00    +0.015 A 
ATOM     11  C   UNL A   1     -26.052  -4.614  29.617  0.00  0.00    +0.001 A 
ATOM     12  C   UNL A   1     -25.056  -5.300  28.949  0.00  0.00    +0.000 A 
ATOM     13  C   UNL A   1     -23.942  -3.597  28.865  0.00  0.00    +0.015 A 
ATOM     14  C   UNL A   1     -24.120  -4.776  28.626  0.00  0.00    +0.001 A 
ENDBRANCH   1   9
TORSDOF 2
ENDMDL
ENDMDL
