REMARK  Name = No_2838-gen_results/8p0m/2024-11-26-14-13-15/
REMARK  2 active torsions:
REMARK  status: ('A' for Active; 'I' for Inactive)
REMARK    1  A    between atoms: C_2  and  C_3
REMARK    2  A    between atoms: C_7  and  C_28
REMARK                            x       y       z     vdW  Elec       q    Type
REMARK                         _______ _______ _______ _____ _____    ______ ____
ROOT
ATOM      1  C   UNL A   1     -26.402  -0.062  28.622  0.00  0.00    +0.062 C 
ATOM      2  C   UNL A   1     -26.781   1.073  27.852  0.00  0.00    -0.014 C 
ATOM      3  C   UNL A   1     -28.070   1.255  27.692  0.00  0.00    +0.033 C 
ATOM      4  C   UNL A   1     -28.742   1.989  28.132  0.00  0.00    +0.047 C 
ATOM      5  C   UNL A   1     -28.200   2.817  29.219  0.00  0.00    -0.026 C 
ATOM      6  C   UNL A   1     -27.007   3.437  28.947  0.00  0.00    -0.022 C 
ATOM      7  C   UNL A   1     -25.745   2.896  28.561  0.00  0.00    +0.072 C 
ATOM      8  C   UNL A   1     -25.618   1.720  28.111  0.00  0.00    +0.114 C 
ATOM      9  C   UNL A   1     -24.828  -0.186  28.840  0.00  0.00    +0.000 C 
ATOM     10  C   UNL A   1     -24.677   1.872  26.866  0.00  0.00    +0.031 C 
ATOM     11  C   UNL A   1     -23.458   1.065  27.217  0.00  0.00    +0.029 C 
ATOM     12  C   UNL A   1     -23.619  -0.138  27.997  0.00  0.00    -0.026 C 
ATOM     13  C   UNL A   1     -24.200   3.275  26.696  0.00  0.00    +0.004 C 
ATOM     14  C   UNL A   1     -24.989   4.008  27.706  0.00  0.00    +0.013 C 
ATOM     15  C   UNL A   1     -25.207   1.363  25.521  0.00  0.00    +0.003 C 
ATOM     16  C   UNL A   1     -24.841   2.903  30.017  0.00  0.00    +0.149 C 
ATOM     17  O   UNL A   1     -25.383   1.646  29.418  0.00  0.00    -0.354 OA
ATOM     18  C   UNL A   1     -27.099   4.988  29.054  0.00  0.00    -0.008 A 
ATOM     19  C   UNL A   1     -27.525   5.471  30.142  0.00  0.00    -0.001 A 
ATOM     20  C   UNL A   1     -27.468   6.459  30.590  0.00  0.00    -0.000 A 
ATOM     21  C   UNL A   1     -26.938   7.583  29.766  0.00  0.00    -0.000 A 
ATOM     22  C   UNL A   1     -26.415   7.223  28.531  0.00  0.00    -0.004 A 
ATOM     23  C   UNL A   1     -26.425   5.833  28.208  0.00  0.00    -0.022 A 
ATOM     24  C   UNL A   1     -25.754   5.265  27.391  0.00  0.00    +0.027 C 
ENDROOT
BRANCH   1  26
ATOM     25  O   UNL A   1     -28.123  -1.335  28.487  0.00  0.00    -0.254 OA
ATOM     26  C   UNL A   1     -27.064  -0.824  28.869  0.00  0.00    +0.333 C 
ATOM     27  F   UNL A   1     -26.475  -1.757  29.971  0.00  0.00    -0.159 F 
ENDBRANCH   1  26
BRANCH   4  28
ATOM     28  C   UNL A   1     -30.209   2.311  27.922  0.00  0.00    -0.026 C 
ATOM     29  C   UNL A   1     -30.973   2.960  28.730  0.00  0.00    -0.030 C 
ATOM     30  C   UNL A   1     -32.035   3.264  28.826  0.00  0.00    +0.030 C 
ENDBRANCH   4  28
TORSDOF 2
