MODEL 2838
MODEL 1
REMARK VINA RESULT:    -8.266      0.000      0.000
REMARK INTER + INTRA:          -9.983
REMARK INTER:                  -9.233
REMARK INTRA:                  -0.751
REMARK UNBOUND:                -0.751
REMARK  Name = No_2838-gen_results/8p0m/2024-11-26-14-13-15/
REMARK  2 active torsions:
REMARK  status: ('A' for Active; 'I' for Inactive)
REMARK    1  A    between atoms: C_2  and  C_3
REMARK    2  A    between atoms: C_7  and  C_28
REMARK                            x       y       z     vdW  Elec       q    Type
REMARK                         _______ _______ _______ _____ _____    ______ ____
ROOT
ATOM      1  C   UNL A   1     -22.801   0.274  28.489  0.00  0.00    +0.062 C 
ATOM      2  C   UNL A   1     -24.015  -0.339  28.072  0.00  0.00    -0.014 C 
ATOM      3  C   UNL A   1     -24.188  -1.585  28.445  0.00  0.00    +0.033 C 
ATOM      4  C   UNL A   1     -24.847  -2.014  29.197  0.00  0.00    +0.047 C 
ATOM      5  C   UNL A   1     -25.543  -1.072  30.085  0.00  0.00    -0.026 C 
ATOM      6  C   UNL A   1     -26.218  -0.058  29.453  0.00  0.00    -0.022 C 
ATOM      7  C   UNL A   1     -25.757   0.942  28.547  0.00  0.00    +0.072 C 
ATOM      8  C   UNL A   1     -24.649   0.852  27.941  0.00  0.00    +0.114 C 
ATOM      9  C   UNL A   1     -22.684   1.806  28.067  0.00  0.00    +0.000 C 
ATOM     10  C   UNL A   1     -24.977   1.245  26.459  0.00  0.00    +0.031 C 
ATOM     11  C   UNL A   1     -24.158   2.482  26.210  0.00  0.00    +0.029 C 
ATOM     12  C   UNL A   1     -22.864   2.599  26.836  0.00  0.00    -0.026 C 
ATOM     13  C   UNL A   1     -26.400   1.661  26.293  0.00  0.00    +0.004 C 
ATOM     14  C   UNL A   1     -26.983   1.342  27.612  0.00  0.00    +0.013 C 
ATOM     15  C   UNL A   1     -24.629   0.224  25.370  0.00  0.00    +0.003 C 
ATOM     16  C   UNL A   1     -25.600   2.336  29.531  0.00  0.00    +0.149 C 
ATOM     17  O   UNL A   1     -24.417   1.570  29.036  0.00  0.00    -0.354 OA
ATOM     18  C   UNL A   1     -27.741  -0.057  29.779  0.00  0.00    -0.008 A 
ATOM     19  C   UNL A   1     -28.074  -0.018  30.998  0.00  0.00    -0.001 A 
ATOM     20  C   UNL A   1     -28.999   0.236  31.508  0.00  0.00    -0.000 A 
ATOM     21  C   UNL A   1     -30.229   0.440  30.690  0.00  0.00    -0.000 A 
ATOM     22  C   UNL A   1     -30.038   0.437  29.315  0.00  0.00    -0.004 A 
ATOM     23  C   UNL A   1     -28.699   0.263  28.851  0.00  0.00    -0.022 A 
ATOM     24  C   UNL A   1     -28.253   0.552  27.775  0.00  0.00    +0.027 C 
ENDROOT
BRANCH   1  26
ATOM     25  O   UNL A   1     -20.918  -0.753  28.530  0.00  0.00    -0.254 OA
ATOM     26  C   UNL A   1     -22.000  -0.264  28.875  0.00  0.00    +0.333 C 
ATOM     27  F   UNL A   1     -22.068  -0.351  30.431  0.00  0.00    -0.159 F 
ENDBRANCH   1  26
BRANCH   4  28
ATOM     28  C   UNL A   1     -25.161  -3.439  29.610  0.00  0.00    -0.026 C 
ATOM     29  C   UNL A   1     -24.776  -4.512  29.011  0.00  0.00    -0.030 C 
ATOM     30  C   UNL A   1     -24.910  -5.611  29.079  0.00  0.00    +0.030 C 
ENDBRANCH   4  28
TORSDOF 2
ENDMDL
ENDMDL
