MODEL 2839
MODEL 1
REMARK VINA RESULT:    -5.151      0.000      0.000
REMARK INTER + INTRA:          -6.879
REMARK INTER:                  -6.656
REMARK INTRA:                  -0.223
REMARK UNBOUND:                -0.223
REMARK  Name = No_2839-gen_results/8p0m/2024-11-26-14-13-15/
REMARK  5 active torsions:
REMARK  status: ('A' for Active; 'I' for Inactive)
REMARK    1  A    between atoms: C_1  and  C_2
REMARK    2  A    between atoms: C_1  and  C_8
REMARK    3  A    between atoms: C_5  and  C_11
REMARK    4  A    between atoms: N_9  and  C_14
REMARK    5  A    between atoms: C_14  and  C_15
REMARK                            x       y       z     vdW  Elec       q    Type
REMARK                         _______ _______ _______ _____ _____    ______ ____
ROOT
ATOM      1  C   UNL A   1     -17.461 -22.022   5.514  0.00  0.00    -0.013 A 
ATOM      2  C   UNL A   1     -18.763 -22.210   5.180  0.00  0.00    -0.004 A 
ATOM      3  C   UNL A   1     -19.840 -21.219   5.400  0.00  0.00    +0.004 A 
ATOM      4  C   UNL A   1     -19.467 -19.986   6.030  0.00  0.00    +0.059 A 
ATOM      5  C   UNL A   1     -18.117 -19.858   6.427  0.00  0.00    +0.004 A 
ATOM      6  C   UNL A   1     -17.172 -20.822   6.190  0.00  0.00    -0.004 A 
ENDROOT
BRANCH   4   7
ATOM      7  C   UNL A   1     -20.417 -18.960   6.321  0.00  0.00    +0.297 C 
ATOM      8  N   UNL A   1     -21.372 -19.013   7.162  0.00  0.00    -0.102 NA
ATOM      9  O   UNL A   1     -20.157 -17.792   5.772  0.00  0.00    -0.264 OA
ENDBRANCH   4   7
BRANCH   1  10
ATOM     10  C   UNL A   1     -16.591 -22.842   5.331  0.00  0.00    +0.113 C 
BRANCH  10  11
ATOM     11  C   UNL A   1     -16.285 -23.864   6.450  0.00  0.00    +0.246 C 
ATOM     12  N   UNL A   1     -15.604 -23.536   7.335  0.00  0.00    -0.197 NA
ATOM     13  O   UNL A   1     -16.683 -25.068   6.275  0.00  0.00    -0.273 OA
BRANCH  12  14
ATOM     14  C   UNL A   1     -15.070 -24.564   8.422  0.00  0.00    +0.187 C 
BRANCH  14  15
ATOM     15  C   UNL A   1     -15.481 -23.822   9.692  0.00  0.00    +0.231 C 
ATOM     16  O   UNL A   1     -14.759 -22.862   9.999  0.00  0.00    -0.286 OA
ENDBRANCH  14  15
ENDBRANCH  12  14
ENDBRANCH  10  11
ENDBRANCH   1  10
TORSDOF 5
ENDMDL
ENDMDL
