REMARK  Name = No_2839-gen_results/8p0m/2024-11-26-14-13-15/
REMARK  5 active torsions:
REMARK  status: ('A' for Active; 'I' for Inactive)
REMARK    1  A    between atoms: C_1  and  C_2
REMARK    2  A    between atoms: C_1  and  C_8
REMARK    3  A    between atoms: C_5  and  C_11
REMARK    4  A    between atoms: N_9  and  C_14
REMARK    5  A    between atoms: C_14  and  C_15
REMARK                            x       y       z     vdW  Elec       q    Type
REMARK                         _______ _______ _______ _____ _____    ______ ____
ROOT
ATOM      1  C   UNL A   1     -27.064  -0.119  28.608  0.00  0.00    -0.013 A 
ATOM      2  C   UNL A   1     -26.929   1.171  29.008  0.00  0.00    -0.004 A 
ATOM      3  C   UNL A   1     -25.770   2.034  28.688  0.00  0.00    +0.004 A 
ATOM      4  C   UNL A   1     -24.714   1.443  27.919  0.00  0.00    +0.059 A 
ATOM      5  C   UNL A   1     -24.859   0.078  27.584  0.00  0.00    +0.004 A 
ATOM      6  C   UNL A   1     -25.965  -0.661  27.916  0.00  0.00    -0.004 A 
ENDROOT
BRANCH   4   7
ATOM      7  C   UNL A   1     -23.531   2.162  27.568  0.00  0.00    +0.297 C 
ATOM      8  N   UNL A   1     -22.408   1.671  27.221  0.00  0.00    -0.102 NA
ATOM      9  O   UNL A   1     -23.692   3.462  27.436  0.00  0.00    -0.264 OA
ENDBRANCH   4   7
BRANCH   1  10
ATOM     10  C   UNL A   1     -28.016  -0.814  28.878  0.00  0.00    +0.113 C 
BRANCH  10  11
ATOM     11  C   UNL A   1     -28.042  -1.543  30.242  0.00  0.00    +0.246 C 
ATOM     12  N   UNL A   1     -27.049  -1.648  30.839  0.00  0.00    -0.197 NA
ATOM     13  O   UNL A   1     -29.134  -2.119  30.582  0.00  0.00    -0.273 OA
BRANCH  12  14
ATOM     14  C   UNL A   1     -26.932  -2.547  32.143  0.00  0.00    +0.187 C 
BRANCH  14  15
ATOM     15  C   UNL A   1     -27.767  -1.704  33.104  0.00  0.00    +0.231 C 
ATOM     16  O   UNL A   1     -27.129  -0.869  33.763  0.00  0.00    -0.286 OA
ENDBRANCH  14  15
ENDBRANCH  12  14
ENDBRANCH  10  11
ENDBRANCH   1  10
TORSDOF 5
