MODEL 283
MODEL 1
REMARK VINA RESULT:    -7.057      0.000      0.000
REMARK INTER + INTRA:          -9.191
REMARK INTER:                  -8.295
REMARK INTRA:                  -0.897
REMARK UNBOUND:                -0.897
REMARK  Name = No_283-gen_results/8p0m/2024-11-26-14-13-15/
REMARK  3 active torsions:
REMARK  status: ('A' for Active; 'I' for Inactive)
REMARK    1  A    between atoms: C_3  and  C_7
REMARK    2  A    between atoms: C_7  and  C_8
REMARK    3  A    between atoms: C_7  and  C_14
REMARK                            x       y       z     vdW  Elec       q    Type
REMARK                         _______ _______ _______ _____ _____    ______ ____
ROOT
ATOM      1  C   UNL A   1     -23.669  -0.956  30.150  0.00  0.00    +0.045 C 
ENDROOT
BRANCH   1   4
ATOM      2  C   UNL A   1     -20.917   0.452  28.154  0.00  0.00    -0.000 A 
ATOM      3  C   UNL A   1     -21.505  -0.228  28.963  0.00  0.00    -0.004 A 
ATOM      4  C   UNL A   1     -22.879  -0.146  29.185  0.00  0.00    -0.018 A 
ATOM      5  C   UNL A   1     -23.654   0.842  28.460  0.00  0.00    -0.004 A 
ATOM      6  C   UNL A   1     -22.899   1.605  27.541  0.00  0.00    -0.000 A 
ATOM      7  C   UNL A   1     -21.605   1.460  27.406  0.00  0.00    -0.000 A 
ENDBRANCH   1   4
BRANCH   1   8
ATOM      8  C   UNL A   1     -24.192  -2.107  29.817  0.00  0.00    -0.018 C 
ATOM      9  C   UNL A   1     -23.900  -3.051  29.176  0.00  0.00    -0.004 C 
ATOM     10  C   UNL A   1     -24.740  -4.172  28.917  0.00  0.00    -0.000 C 
ATOM     11  C   UNL A   1     -24.627  -5.247  28.867  0.00  0.00    -0.000 C 
ATOM     12  C   UNL A   1     -25.639  -2.145  30.223  0.00  0.00    -0.004 C 
ATOM     13  C   UNL A   1     -26.089  -3.692  29.722  0.00  0.00    -0.000 C 
ENDBRANCH   1   8
BRANCH   1  14
ATOM     14  C   UNL A   1     -23.622  -0.392  31.558  0.00  0.00    +0.009 C 
ATOM     15  C   UNL A   1     -22.939  -1.270  32.458  0.00  0.00    +0.001 C 
ENDBRANCH   1  14
TORSDOF 3
ENDMDL
ENDMDL
