REMARK  Name = No_284-gen_results/8p0m/2024-11-26-14-13-15/
REMARK  2 active torsions:
REMARK  status: ('A' for Active; 'I' for Inactive)
REMARK    1  A    between atoms: C_2  and  C_7
REMARK    2  A    between atoms: C_9  and  C_10
REMARK                            x       y       z     vdW  Elec       q    Type
REMARK                         _______ _______ _______ _____ _____    ______ ____
ROOT
ATOM      1  C   UNL A   1     -25.891  -0.626  27.786  0.00  0.00    +0.003 A 
ATOM      2  C   UNL A   1     -25.463   0.112  26.681  0.00  0.00    -0.004 A 
ATOM      3  C   UNL A   1     -24.610  -0.958  28.594  0.00  0.00    +0.042 A 
ATOM      4  C   UNL A   1     -23.556  -0.101  28.771  0.00  0.00    +0.003 A 
ATOM      5  C   UNL A   1     -23.298   0.937  27.818  0.00  0.00    -0.004 A 
ATOM      6  C   UNL A   1     -24.335   1.067  26.788  0.00  0.00    -0.022 A 
ATOM      7  C   UNL A   1     -24.168   2.187  25.834  0.00  0.00    +0.031 C 
ENDROOT
BRANCH   1   9
ATOM      8  C   UNL A   1     -28.016  -0.814  28.878  0.00  0.00    +0.000 A 
ATOM      9  C   UNL A   1     -27.064  -0.119  28.608  0.00  0.00    +0.000 A 
ATOM     10  C   UNL A   1     -26.929   1.171  29.008  0.00  0.00    +0.000 A 
ATOM     11  C   UNL A   1     -27.956   1.741  29.784  0.00  0.00    +0.000 A 
ATOM     12  C   UNL A   1     -29.057  -0.327  29.747  0.00  0.00    +0.000 A 
ATOM     13  C   UNL A   1     -28.983   0.972  30.152  0.00  0.00    +0.000 A 
ENDBRANCH   1   9
BRANCH   3  14
ATOM     14  C   UNL A   1     -24.583  -2.207  29.239  0.00  0.00    +0.234 C 
ATOM     15  O   UNL A   1     -24.968  -3.080  28.908  0.00  0.00    -0.283 OA
ENDBRANCH   3  14
TORSDOF 2
