MODEL 2840
MODEL 1
REMARK VINA RESULT:    -3.687      0.000      0.000
REMARK INTER + INTRA:          -4.676
REMARK INTER:                  -4.550
REMARK INTRA:                  -0.127
REMARK UNBOUND:                -0.127
REMARK  Name = No_2840-gen_results/8p0m/2024-11-26-14-13-15/
REMARK  4 active torsions:
REMARK  status: ('A' for Active; 'I' for Inactive)
REMARK    1  A    between atoms: C_2  and  C_3
REMARK    2  A    between atoms: C_3  and  C_4
REMARK    3  A    between atoms: C_4  and  C_5
REMARK    4  A    between atoms: C_5  and  C_6
REMARK                            x       y       z     vdW  Elec       q    Type
REMARK                         _______ _______ _______ _____ _____    ______ ____
ROOT
ATOM      1  C   UNL A   1     -23.959  -2.291  29.687  0.00  0.00    +0.009 C 
ENDROOT
BRANCH   1   2
ATOM      2  C   UNL A   1     -24.434  -3.225  28.695  0.00  0.00    +0.026 C 
BRANCH   2   4
ATOM      3  C   UNL A   1     -24.907  -5.441  29.111  0.00  0.00    -0.005 C 
ATOM      4  C   UNL A   1     -24.179  -4.586  28.662  0.00  0.00    -0.026 C 
ENDBRANCH   2   4
ENDBRANCH   1   2
BRANCH   1   5
ATOM      5  C   UNL A   1     -23.033  -1.297  29.291  0.00  0.00    +0.026 C 
BRANCH   5   6
ATOM      6  C   UNL A   1     -23.500  -0.241  28.465  0.00  0.00    -0.026 C 
ATOM      7  C   UNL A   1     -22.622   0.712  28.050  0.00  0.00    -0.005 C 
ENDBRANCH   5   6
ENDBRANCH   1   5
TORSDOF 4
ENDMDL
ENDMDL
