REMARK  Name = No_2840-gen_results/8p0m/2024-11-26-14-13-15/
REMARK  4 active torsions:
REMARK  status: ('A' for Active; 'I' for Inactive)
REMARK    1  A    between atoms: C_2  and  C_3
REMARK    2  A    between atoms: C_3  and  C_4
REMARK    3  A    between atoms: C_4  and  C_5
REMARK    4  A    between atoms: C_5  and  C_6
REMARK                            x       y       z     vdW  Elec       q    Type
REMARK                         _______ _______ _______ _____ _____    ______ ____
ROOT
ATOM      1  C   UNL A   1     -25.820   1.491  27.116  0.00  0.00    +0.009 C 
ENDROOT
BRANCH   1   2
ATOM      2  C   UNL A   1     -26.972   0.714  27.506  0.00  0.00    +0.026 C 
BRANCH   2   4
ATOM      3  C   UNL A   1     -28.016  -0.814  28.878  0.00  0.00    -0.005 C 
ATOM      4  C   UNL A   1     -27.064  -0.119  28.608  0.00  0.00    -0.026 C 
ENDBRANCH   2   4
ENDBRANCH   1   2
BRANCH   1   5
ATOM      5  C   UNL A   1     -24.656   1.424  27.918  0.00  0.00    +0.026 C 
BRANCH   5   6
ATOM      6  C   UNL A   1     -24.685   0.590  29.066  0.00  0.00    -0.026 C 
ATOM      7  C   UNL A   1     -25.810  -0.127  29.334  0.00  0.00    -0.005 C 
ENDBRANCH   5   6
ENDBRANCH   1   5
TORSDOF 4
