MODEL 2841
MODEL 1
REMARK VINA RESULT:    -6.582      0.000      0.000
REMARK INTER + INTRA:          -7.789
REMARK INTER:                  -7.351
REMARK INTRA:                  -0.437
REMARK UNBOUND:                -0.437
REMARK  Name = No_2841-gen_results/8p0m/2024-11-26-14-13-15/
REMARK  2 active torsions:
REMARK  status: ('A' for Active; 'I' for Inactive)
REMARK    1  A    between atoms: C_2  and  C_5
REMARK    2  A    between atoms: C_3  and  C_4
REMARK                            x       y       z     vdW  Elec       q    Type
REMARK                         _______ _______ _______ _____ _____    ______ ____
ROOT
ATOM      1  C   UNL A   1     -23.275  -0.591  28.551  0.00  0.00    +0.003 A 
ATOM      2  C   UNL A   1     -22.969   0.333  28.956  0.00  0.00    +0.080 A 
ATOM      3  C   UNL A   1     -23.823  -1.548  29.432  0.00  0.00    -0.014 A 
ATOM      4  C   UNL A   1     -23.096   0.747  30.441  0.00  0.00    +0.007 A 
ATOM      5  C   UNL A   1     -23.574  -0.104  31.327  0.00  0.00    -0.000 A 
ATOM      6  C   UNL A   1     -24.045  -1.286  30.877  0.00  0.00    -0.004 A 
ENDROOT
BRANCH   3   7
ATOM      7  C   UNL A   1     -24.401  -2.851  29.009  0.00  0.00    +0.066 C 
ATOM      8  C   UNL A   1     -23.993  -3.691  28.511  0.00  0.00    -0.018 C 
ATOM      9  C   UNL A   1     -24.324  -4.915  28.875  0.00  0.00    -0.004 C 
ATOM     10  C   UNL A   1     -25.455  -5.133  29.286  0.00  0.00    -0.004 C 
ATOM     11  C   UNL A   1     -25.774  -3.408  29.547  0.00  0.00    -0.018 C 
ENDBRANCH   3   7
BRANCH   2  12
ATOM     12  C   UNL A   1     -22.436   1.491  28.088  0.00  0.00    +0.388 C 
ATOM     13  O   UNL A   1     -21.645   1.456  27.411  0.00  0.00    -0.241 OA
ATOM     14  O   UNL A   1     -23.292   2.500  27.901  0.00  0.00    -0.241 OA
ENDBRANCH   2  12
TORSDOF 2
ENDMDL
ENDMDL
