REMARK  Name = No_2841-gen_results/8p0m/2024-11-26-14-13-15/
REMARK  2 active torsions:
REMARK  status: ('A' for Active; 'I' for Inactive)
REMARK    1  A    between atoms: C_2  and  C_5
REMARK    2  A    between atoms: C_3  and  C_4
REMARK                            x       y       z     vdW  Elec       q    Type
REMARK                         _______ _______ _______ _____ _____    ______ ____
ROOT
ATOM      1  C   UNL A   1     -28.016  -0.814  28.878  0.00  0.00    +0.003 A 
ATOM      2  C   UNL A   1     -28.469  -0.785  29.829  0.00  0.00    +0.080 A 
ATOM      3  C   UNL A   1     -27.136   0.236  28.535  0.00  0.00    -0.014 A 
ATOM      4  C   UNL A   1     -28.230   0.301  30.904  0.00  0.00    +0.007 A 
ATOM      5  C   UNL A   1     -27.441   1.325  30.646  0.00  0.00    -0.000 A 
ATOM      6  C   UNL A   1     -26.775   1.329  29.473  0.00  0.00    -0.004 A 
ENDROOT
BRANCH   3   7
ATOM      7  C   UNL A   1     -26.335   0.290  27.284  0.00  0.00    +0.066 C 
ATOM      8  C   UNL A   1     -26.408  -0.221  26.360  0.00  0.00    -0.018 C 
ATOM      9  C   UNL A   1     -26.190   0.411  25.223  0.00  0.00    -0.004 C 
ATOM     10  C   UNL A   1     -25.357   1.306  25.185  0.00  0.00    -0.004 C 
ATOM     11  C   UNL A   1     -25.320   1.450  26.952  0.00  0.00    -0.018 C 
ENDBRANCH   3   7
BRANCH   2  12
ATOM     12  C   UNL A   1     -29.381  -1.913  30.355  0.00  0.00    +0.388 C 
ATOM     13  O   UNL A   1     -29.120  -2.908  30.515  0.00  0.00    -0.241 OA
ATOM     14  O   UNL A   1     -30.465  -1.501  31.019  0.00  0.00    -0.241 OA
ENDBRANCH   2  12
TORSDOF 2
