REMARK  Name = No_2842-gen_results/8p0m/2024-11-26-14-13-15/
REMARK  6 active torsions:
REMARK  status: ('A' for Active; 'I' for Inactive)
REMARK    1  A    between atoms: C_2  and  C_7
REMARK    2  A    between atoms: C_4  and  C_29
REMARK    3  A    between atoms: N_9  and  C_10
REMARK    4  A    between atoms: C_13  and  C_16
REMARK    5  A    between atoms: C_20  and  C_22
REMARK    6  A    between atoms: C_29  and  C_30
REMARK                            x       y       z     vdW  Elec       q    Type
REMARK                         _______ _______ _______ _____ _____    ______ ____
ROOT
ATOM      1  C   UNL A   1     -32.175  -1.468  30.889  0.00  0.00    +0.074 A 
ATOM      2  C   UNL A   1     -32.783  -2.041  31.447  0.00  0.00    +0.017 A 
ATOM      3  C   UNL A   1     -34.295  -2.069  31.428  0.00  0.00    +0.001 A 
ATOM      4  C   UNL A   1     -34.844  -1.201  30.464  0.00  0.00    +0.000 A 
ATOM      5  C   UNL A   1     -34.005  -0.463  29.672  0.00  0.00    +0.001 A 
ATOM      6  C   UNL A   1     -32.678  -0.469  29.843  0.00  0.00    +0.017 A 
ENDROOT
BRANCH   4   7
ATOM      7  C   UNL A   1     -36.325  -1.162  30.348  0.00  0.00    +0.000 A 
ATOM      8  C   UNL A   1     -37.038  -2.072  30.457  0.00  0.00    +0.000 A 
ATOM      9  C   UNL A   1     -38.514  -1.994  30.330  0.00  0.00    +0.000 A 
ATOM     10  C   UNL A   1     -39.000  -0.720  29.960  0.00  0.00    +0.000 A 
ATOM     11  C   UNL A   1     -38.157   0.321  29.787  0.00  0.00    +0.002 A 
ATOM     12  C   UNL A   1     -36.769   0.218  29.973  0.00  0.00    +0.000 A 
BRANCH  11  13
ATOM     13  C   UNL A   1     -38.683   1.663  29.433  0.00  0.00    +0.028 A 
ATOM     14  C   UNL A   1     -39.286   2.386  30.385  0.00  0.00    +0.002 A 
ATOM     15  C   UNL A   1     -39.834   3.636  30.063  0.00  0.00    +0.000 A 
ATOM     16  C   UNL A   1     -38.411   2.122  28.158  0.00  0.00    +0.140 A 
ATOM     17  C   UNL A   1     -38.947   3.401  27.831  0.00  0.00    +0.030 A 
ATOM     18  C   UNL A   1     -39.624   4.128  28.757  0.00  0.00    +0.002 A 
ATOM     19  F   UNL A   1     -37.779   1.470  27.296  0.00  0.00    -0.204 F 
ENDBRANCH  11  13
ENDBRANCH   4   7
BRANCH   1  22
ATOM     20  C   UNL A   1     -30.074  -0.836  29.861  0.00  0.00    +0.269 C 
ATOM     21  O   UNL A   1     -30.561  -0.442  28.942  0.00  0.00    -0.268 OA
ATOM     22  N   UNL A   1     -30.749  -1.403  30.947  0.00  0.00    -0.175 NA
BRANCH  20  24
ATOM     23  C   UNL A   1     -28.016  -0.814  28.878  0.00  0.00    +0.004 A 
ATOM     24  C   UNL A   1     -28.469  -0.785  29.829  0.00  0.00    +0.055 A 
ATOM     25  C   UNL A   1     -26.504  -0.778  28.877  0.00  0.00    -0.004 A 
ATOM     26  C   UNL A   1     -25.810  -0.853  30.103  0.00  0.00    -0.018 A 
ATOM     27  C   UNL A   1     -27.991  -0.892  31.226  0.00  0.00    +0.004 A 
ATOM     28  C   UNL A   1     -26.604  -0.868  31.265  0.00  0.00    -0.004 A 
BRANCH  26  29
ATOM     29  C   UNL A   1     -24.366  -0.796  30.146  0.00  0.00    +0.054 C 
BRANCH  29  30
ATOM     30  C   UNL A   1     -23.595  -0.472  29.115  0.00  0.00    +0.001 A 
ATOM     31  C   UNL A   1     -22.160  -0.337  29.266  0.00  0.00    +0.095 A 
ATOM     32  N   UNL A   1     -21.494   0.117  28.195  0.00  0.00    -0.243 NA
ATOM     33  C   UNL A   1     -22.119   0.958  27.342  0.00  0.00    +0.099 A 
ATOM     34  C   UNL A   1     -23.495   1.124  27.311  0.00  0.00    +0.020 A 
ATOM     35  C   UNL A   1     -24.204   0.508  28.235  0.00  0.00    -0.001 A 
ENDBRANCH  29  30
ENDBRANCH  26  29
ENDBRANCH  20  24
ENDBRANCH   1  22
TORSDOF 6
