MODEL 2842
MODEL 1
REMARK VINA RESULT:    -8.913      0.000      0.000
REMARK INTER + INTRA:         -13.438
REMARK INTER:                 -12.039
REMARK INTRA:                  -1.399
REMARK UNBOUND:                -1.399
REMARK  Name = No_2842-gen_results/8p0m/2024-11-26-14-13-15/
REMARK  6 active torsions:
REMARK  status: ('A' for Active; 'I' for Inactive)
REMARK    1  A    between atoms: C_2  and  C_7
REMARK    2  A    between atoms: C_4  and  C_29
REMARK    3  A    between atoms: N_9  and  C_10
REMARK    4  A    between atoms: C_13  and  C_16
REMARK    5  A    between atoms: C_20  and  C_22
REMARK    6  A    between atoms: C_29  and  C_30
REMARK                            x       y       z     vdW  Elec       q    Type
REMARK                         _______ _______ _______ _____ _____    ______ ____
ROOT
ATOM      1  C   UNL A   1     -28.194   2.118  24.120  0.00  0.00    +0.074 A 
ATOM      2  C   UNL A   1     -28.000   2.647  24.952  0.00  0.00    +0.017 A 
ATOM      3  C   UNL A   1     -27.049   2.287  26.071  0.00  0.00    +0.001 A 
ATOM      4  C   UNL A   1     -26.358   1.083  25.832  0.00  0.00    +0.000 A 
ATOM      5  C   UNL A   1     -26.590   0.396  24.670  0.00  0.00    +0.001 A 
ATOM      6  C   UNL A   1     -27.522   0.782  23.791  0.00  0.00    +0.017 A 
ENDROOT
BRANCH   4   7
ATOM      7  C   UNL A   1     -25.382   0.642  26.863  0.00  0.00    +0.000 A 
ATOM      8  C   UNL A   1     -24.498   1.273  27.274  0.00  0.00    +0.000 A 
ATOM      9  C   UNL A   1     -23.541   0.795  28.302  0.00  0.00    +0.000 A 
ATOM     10  C   UNL A   1     -23.724  -0.552  28.687  0.00  0.00    +0.000 A 
ATOM     11  C   UNL A   1     -24.726  -1.293  28.166  0.00  0.00    +0.002 A 
ATOM     12  C   UNL A   1     -25.647  -0.784  27.235  0.00  0.00    +0.000 A 
BRANCH  11  13
ATOM     13  C   UNL A   1     -24.929  -2.696  28.604  0.00  0.00    +0.028 A 
ATOM     14  C   UNL A   1     -23.981  -3.599  28.323  0.00  0.00    +0.002 A 
ATOM     15  C   UNL A   1     -24.173  -4.940  28.684  0.00  0.00    +0.000 A 
ATOM     16  C   UNL A   1     -26.046  -2.951  29.378  0.00  0.00    +0.140 A 
ATOM     17  C   UNL A   1     -26.235  -4.309  29.766  0.00  0.00    +0.030 A 
ATOM     18  C   UNL A   1     -25.324  -5.260  29.435  0.00  0.00    +0.002 A 
ATOM     19  F   UNL A   1     -26.890  -2.085  29.701  0.00  0.00    -0.204 F 
ENDBRANCH  11  13
ENDBRANCH   4   7
BRANCH   1  22
ATOM     20  C   UNL A   1     -30.358   1.758  23.092  0.00  0.00    +0.269 C 
ATOM     21  O   UNL A   1     -30.656   0.979  23.827  0.00  0.00    -0.268 OA
ATOM     22  N   UNL A   1     -29.133   2.433  23.091  0.00  0.00    -0.175 NA
BRANCH  20  24
ATOM     23  C   UNL A   1     -31.351   2.921  21.400  0.00  0.00    +0.004 A 
ATOM     24  C   UNL A   1     -31.438   2.015  21.931  0.00  0.00    +0.055 A 
ATOM     25  C   UNL A   1     -32.388   3.144  20.322  0.00  0.00    -0.004 A 
ATOM     26  C   UNL A   1     -33.456   2.232  20.191  0.00  0.00    -0.018 A 
ATOM     27  C   UNL A   1     -32.449   0.937  22.015  0.00  0.00    +0.004 A 
ATOM     28  C   UNL A   1     -33.422   1.111  21.041  0.00  0.00    -0.004 A 
BRANCH  26  29
ATOM     29  C   UNL A   1     -34.453   2.396  19.157  0.00  0.00    +0.054 C 
BRANCH  29  30
ATOM     30  C   UNL A   1     -34.415   3.334  18.218  0.00  0.00    +0.001 A 
ATOM     31  C   UNL A   1     -35.424   4.372  18.155  0.00  0.00    +0.095 A 
ATOM     32  N   UNL A   1     -35.364   5.190  17.095  0.00  0.00    -0.243 NA
ATOM     33  C   UNL A   1     -34.875   4.717  15.928  0.00  0.00    +0.099 A 
ATOM     34  C   UNL A   1     -34.127   3.553  15.834  0.00  0.00    +0.020 A 
ATOM     35  C   UNL A   1     -33.988   2.829  16.926  0.00  0.00    -0.001 A 
ENDBRANCH  29  30
ENDBRANCH  26  29
ENDBRANCH  20  24
ENDBRANCH   1  22
TORSDOF 6
ENDMDL
ENDMDL
