REMARK  Name = No_2843-gen_results/8p0m/2024-11-26-14-13-15/
REMARK  7 active torsions:
REMARK  status: ('A' for Active; 'I' for Inactive)
REMARK    1  A    between atoms: C_2  and  C_17
REMARK    2  A    between atoms: C_3  and  C_4
REMARK    3  A    between atoms: C_4  and  C_8
REMARK    4  A    between atoms: C_7  and  C_14
REMARK    5  A    between atoms: C_14  and  C_15
REMARK    6  A    between atoms: N_21  and  C_23
REMARK    7  A    between atoms: C_24  and  C_25
REMARK                            x       y       z     vdW  Elec       q    Type
REMARK                         _______ _______ _______ _____ _____    ______ ____
ROOT
ATOM      1  C   UNL A   1     -24.366  -0.978  30.200  0.00  0.00    +0.101 C 
ATOM      2  C   UNL A   1     -23.844  -2.340  29.723  0.00  0.00    +0.014 C 
ENDROOT
BRANCH   1   8
ATOM      3  C   UNL A   1     -28.016  -0.814  28.878  0.00  0.00    +0.002 A 
ATOM      4  C   UNL A   1     -28.469  -0.785  29.829  0.00  0.00    +0.080 A 
ATOM      5  C   UNL A   1     -26.504  -0.778  28.877  0.00  0.00    -0.021 A 
ATOM      6  C   UNL A   1     -27.918  -0.937  31.182  0.00  0.00    +0.006 A 
ATOM      7  C   UNL A   1     -26.542  -0.940  31.261  0.00  0.00    -0.004 A 
ATOM      8  C   UNL A   1     -25.783  -0.893  30.120  0.00  0.00    -0.017 A 
BRANCH   4   9
ATOM      9  C   UNL A   1     -30.071  -0.780  29.846  0.00  0.00    +0.388 C 
ATOM     10  O   UNL A   1     -30.666   0.181  30.385  0.00  0.00    -0.241 OA
ATOM     11  O   UNL A   1     -30.644  -1.670  29.243  0.00  0.00    -0.241 OA
ENDBRANCH   4   9
BRANCH   5  12
ATOM     12  C   UNL A   1     -25.654  -0.660  27.719  0.00  0.00    +0.055 C 
BRANCH  12  13
ATOM     13  C   UNL A   1     -25.213   0.692  27.383  0.00  0.00    +0.010 A 
ATOM     14  C   UNL A   1     -23.920   0.921  27.770  0.00  0.00    -0.002 A 
ATOM     15  C   UNL A   1     -23.258   2.119  27.263  0.00  0.00    -0.000 A 
ATOM     16  C   UNL A   1     -23.932   2.964  26.435  0.00  0.00    +0.002 A 
ATOM     17  C   UNL A   1     -25.857   1.475  26.432  0.00  0.00    +0.137 A 
ATOM     18  C   UNL A   1     -25.219   2.610  25.980  0.00  0.00    +0.029 A 
ATOM     19  F   UNL A   1     -26.992   1.186  25.961  0.00  0.00    -0.204 F 
ENDBRANCH  12  13
ENDBRANCH   5  12
ENDBRANCH   1   8
BRANCH   1  20
ATOM     20  C   UNL A   1     -23.394  -0.057  30.434  0.00  0.00    +0.249 C 
ATOM     21  N   UNL A   1     -23.751   1.020  31.179  0.00  0.00    -0.178 NA
ATOM     22  O   UNL A   1     -22.182  -0.022  29.986  0.00  0.00    -0.273 OA
BRANCH  21  23
ATOM     23  C   UNL A   1     -24.995   1.249  31.802  0.00  0.00    +0.089 C 
ATOM     24  C   UNL A   1     -25.201   2.671  32.306  0.00  0.00    +0.018 C 
BRANCH  24  25
ATOM     25  C   UNL A   1     -25.970   3.513  31.656  0.00  0.00    +0.004 A 
ATOM     26  C   UNL A   1     -26.404   3.249  30.494  0.00  0.00    +0.000 A 
ATOM     27  C   UNL A   1     -27.872   3.476  30.201  0.00  0.00    +0.003 A 
ATOM     28  C   UNL A   1     -28.230   4.629  30.293  0.00  0.00    +0.037 A 
ATOM     29  C   UNL A   1     -27.709   5.382  31.473  0.00  0.00    +0.139 A 
ATOM     30  C   UNL A   1     -26.585   4.802  32.232  0.00  0.00    +0.034 A 
ATOM     31  O   UNL A   1     -28.288   6.535  31.873  0.00  0.00    -0.471 OA
ATOM     32  C   UNL A   1     -27.960   7.130  32.837  0.00  0.00    +0.228 C 
ATOM     33  C   UNL A   1     -25.960   5.489  33.325  0.00  0.00    -0.002 C 
ATOM     34  C   UNL A   1     -26.684   6.836  33.654  0.00  0.00    -0.001 C 
ATOM     35  C   UNL A   1     -26.157   7.608  34.733  0.00  0.00    +0.030 C 
ENDBRANCH  24  25
ENDBRANCH  21  23
ENDBRANCH   1  20
TORSDOF 7
