MODEL 2843
MODEL 1
REMARK VINA RESULT:    -6.802      0.000      0.000
REMARK INTER + INTRA:         -13.617
REMARK INTER:                  -9.586
REMARK INTRA:                  -4.031
REMARK UNBOUND:                -4.031
REMARK  Name = No_2843-gen_results/8p0m/2024-11-26-14-13-15/
REMARK  7 active torsions:
REMARK  status: ('A' for Active; 'I' for Inactive)
REMARK    1  A    between atoms: C_2  and  C_17
REMARK    2  A    between atoms: C_3  and  C_4
REMARK    3  A    between atoms: C_4  and  C_8
REMARK    4  A    between atoms: C_7  and  C_14
REMARK    5  A    between atoms: C_14  and  C_15
REMARK    6  A    between atoms: N_21  and  C_23
REMARK    7  A    between atoms: C_24  and  C_25
REMARK                            x       y       z     vdW  Elec       q    Type
REMARK                         _______ _______ _______ _____ _____    ______ ____
ROOT
ATOM      1  C   UNL A   1      -7.504   0.238  35.189  0.00  0.00    +0.101 C 
ATOM      2  C   UNL A   1      -7.400  -1.223  34.730  0.00  0.00    +0.014 C 
ENDROOT
BRANCH   1   8
ATOM      3  C   UNL A   1     -11.260   0.956  35.878  0.00  0.00    +0.002 A 
ATOM      4  C   UNL A   1     -11.385   1.628  35.076  0.00  0.00    +0.080 A 
ATOM      5  C   UNL A   1      -9.903   0.292  35.964  0.00  0.00    -0.021 A 
ATOM      6  C   UNL A   1     -10.426   2.222  34.137  0.00  0.00    +0.006 A 
ATOM      7  C   UNL A   1      -9.156   1.687  34.173  0.00  0.00    -0.004 A 
ATOM      8  C   UNL A   1      -8.835   0.730  35.101  0.00  0.00    -0.017 A 
BRANCH   4   9
ATOM      9  C   UNL A   1     -12.830   2.308  34.947  0.00  0.00    +0.388 C 
ATOM     10  O   UNL A   1     -13.303   2.508  33.805  0.00  0.00    -0.241 OA
ATOM     11  O   UNL A   1     -13.451   2.512  35.975  0.00  0.00    -0.241 OA
ENDBRANCH   4   9
BRANCH   5  12
ATOM     12  C   UNL A   1      -9.526  -0.765  36.869  0.00  0.00    +0.055 C 
BRANCH  12  13
ATOM     13  C   UNL A   1     -10.498  -1.096  37.908  0.00  0.00    +0.010 A 
ATOM     14  C   UNL A   1     -11.350  -2.093  37.515  0.00  0.00    -0.002 A 
ATOM     15  C   UNL A   1     -12.190  -2.714  38.534  0.00  0.00    -0.000 A 
ATOM     16  C   UNL A   1     -12.109  -2.292  39.826  0.00  0.00    +0.002 A 
ATOM     17  C   UNL A   1     -10.312  -0.757  39.243  0.00  0.00    +0.137 A 
ATOM     18  C   UNL A   1     -11.128  -1.344  40.186  0.00  0.00    +0.029 A 
ATOM     19  F   UNL A   1      -9.425   0.055  39.626  0.00  0.00    -0.204 F 
ENDBRANCH  12  13
ENDBRANCH   5  12
ENDBRANCH   1   8
BRANCH   1  20
ATOM     20  C   UNL A   1      -6.307   0.839  35.417  0.00  0.00    +0.249 C 
ATOM     21  N   UNL A   1      -6.163   1.459  36.616  0.00  0.00    -0.178 NA
ATOM     22  O   UNL A   1      -5.297   0.969  34.621  0.00  0.00    -0.273 OA
BRANCH  21  23
ATOM     23  C   UNL A   1      -7.088   1.479  37.680  0.00  0.00    +0.089 C 
ATOM     24  C   UNL A   1      -7.555   2.870  38.089  0.00  0.00    +0.018 C 
BRANCH  24  25
ATOM     25  C   UNL A   1      -8.743   3.310  37.747  0.00  0.00    +0.004 A 
ATOM     26  C   UNL A   1      -9.783   2.969  38.387  0.00  0.00    +0.000 A 
ATOM     27  C   UNL A   1     -10.772   4.043  38.788  0.00  0.00    +0.003 A 
ATOM     28  C   UNL A   1     -11.287   4.624  37.859  0.00  0.00    +0.037 A 
ATOM     29  C   UNL A   1     -10.374   5.007  36.741  0.00  0.00    +0.139 A 
ATOM     30  C   UNL A   1      -9.034   4.393  36.691  0.00  0.00    +0.034 A 
ATOM     31  O   UNL A   1     -10.741   5.935  35.831  0.00  0.00    -0.471 OA
ATOM     32  C   UNL A   1     -10.032   6.323  34.972  0.00  0.00    +0.228 C 
ATOM     33  C   UNL A   1      -8.120   4.630  35.612  0.00  0.00    -0.002 C 
ATOM     34  C   UNL A   1      -8.682   5.677  34.595  0.00  0.00    -0.001 C 
ATOM     35  C   UNL A   1      -7.855   6.004  33.478  0.00  0.00    +0.030 C 
ENDBRANCH  24  25
ENDBRANCH  21  23
ENDBRANCH   1  20
TORSDOF 7
ENDMDL
ENDMDL
