MODEL 2844
MODEL 1
REMARK VINA RESULT:    -6.569      0.000      0.000
REMARK INTER + INTRA:         -13.912
REMARK INTER:                 -10.410
REMARK INTRA:                  -3.502
REMARK UNBOUND:                -3.502
REMARK  Name = No_2844-gen_results/8p0m/2024-11-26-14-13-15/
REMARK  10 active torsions:
REMARK  status: ('A' for Active; 'I' for Inactive)
REMARK    1  A    between atoms: C_1  and  C_2
REMARK    2  A    between atoms: C_2  and  O_8
REMARK    3  A    between atoms: C_7  and  C_11
REMARK    4  A    between atoms: O_8  and  C_18
REMARK    5  A    between atoms: C_11  and  C_12
REMARK    6  A    between atoms: C_12  and  C_14
REMARK    7  A    between atoms: C_18  and  C_19
REMARK    8  A    between atoms: C_19  and  O_21
REMARK    9  A    between atoms: O_21  and  C_22
REMARK   10  A    between atoms: C_24  and  C_29
REMARK                            x       y       z     vdW  Elec       q    Type
REMARK                         _______ _______ _______ _____ _____    ______ ____
ROOT
ATOM      1  O   UNL A   1     -24.883   3.003  29.299  0.00  0.00    -0.433 OA
ENDROOT
BRANCH   1   2
ATOM      2  C   UNL A   1     -24.555   1.865  30.029  0.00  0.00    +0.342 C 
ATOM      3  O   UNL A   1     -23.933   2.342  31.142  0.00  0.00    -0.245 OA
BRANCH   2   4
ATOM      4  C   UNL A   1     -24.527   0.921  29.563  0.00  0.00    +0.074 A 
ATOM      5  C   UNL A   1     -23.185   0.326  29.527  0.00  0.00    +0.037 A 
ATOM      6  C   UNL A   1     -22.987  -1.071  29.096  0.00  0.00    +0.151 A 
ATOM      7  C   UNL A   1     -24.029  -1.991  29.350  0.00  0.00    +0.085 A 
ATOM      8  C   UNL A   1     -25.297  -1.482  29.789  0.00  0.00    +0.010 A 
ATOM      9  C   UNL A   1     -25.474  -0.179  30.011  0.00  0.00    -0.011 A 
ATOM     10 CL   UNL A   1     -23.870  -3.651  29.086  0.00  0.00    -0.080 Cl
ATOM     11  F   UNL A   1     -21.731  -1.439  28.903  0.00  0.00    -0.203 F 
BRANCH   9  12
ATOM     12  C   UNL A   1     -26.874   0.111  30.420  0.00  0.00    +0.054 C 
BRANCH  12  13
ATOM     13  C   UNL A   1     -27.930  -0.193  29.559  0.00  0.00    +0.026 C 
ATOM     14  C   UNL A   1     -29.029  -0.838  30.095  0.00  0.00    -0.003 C 
BRANCH  13  15
ATOM     15  C   UNL A   1     -27.913   0.317  28.244  0.00  0.00    +0.338 C 
ATOM     16  F   UNL A   1     -27.167  -0.246  27.393  0.00  0.00    -0.194 F 
ATOM     17  F   UNL A   1     -28.739   1.088  27.783  0.00  0.00    -0.194 F 
ENDBRANCH  13  15
ENDBRANCH  12  13
ENDBRANCH   9  12
ENDBRANCH   2   4
ENDBRANCH   1   2
BRANCH   1  18
ATOM     18  C   UNL A   1     -25.742   3.394  28.771  0.00  0.00    +0.317 C 
BRANCH  18  19
ATOM     19  C   UNL A   1     -25.457   4.222  27.543  0.00  0.00    +0.367 C 
ATOM     20  O   UNL A   1     -25.565   5.365  27.581  0.00  0.00    -0.245 OA
BRANCH  19  21
ATOM     21  O   UNL A   1     -25.094   3.695  26.410  0.00  0.00    -0.421 OA
BRANCH  21  22
ATOM     22  C   UNL A   1     -25.508   2.531  25.948  0.00  0.00    +0.159 A 
ATOM     23  C   UNL A   1     -26.632   2.287  25.393  0.00  0.00    +0.038 A 
ATOM     24  C   UNL A   1     -26.816   1.228  24.655  0.00  0.00    +0.003 A 
ATOM     25  C   UNL A   1     -25.841   0.192  24.564  0.00  0.00    +0.001 A 
ATOM     26  C   UNL A   1     -24.575   0.409  25.138  0.00  0.00    +0.015 A 
ATOM     27  C   UNL A   1     -24.304   1.630  25.840  0.00  0.00    +0.092 A 
ATOM     28 CL   UNL A   1     -22.820   1.938  26.513  0.00  0.00    -0.079 Cl
BRANCH  24  29
ATOM     29  C   UNL A   1     -28.181   0.842  24.113  0.00  0.00    +0.000 A 
ATOM     30  C   UNL A   1     -28.517  -0.281  24.073  0.00  0.00    +0.000 A 
ATOM     31  C   UNL A   1     -29.889  -0.697  23.686  0.00  0.00    +0.000 A 
ATOM     32  C   UNL A   1     -30.727   0.338  23.323  0.00  0.00    +0.000 A 
ATOM     33  C   UNL A   1     -30.341   1.636  23.393  0.00  0.00    +0.000 A 
ATOM     34  C   UNL A   1     -29.070   1.934  23.817  0.00  0.00    +0.000 A 
ENDBRANCH  24  29
ENDBRANCH  21  22
ENDBRANCH  19  21
ENDBRANCH  18  19
ENDBRANCH   1  18
TORSDOF 10
ENDMDL
ENDMDL
