REMARK  Name = No_2844-gen_results/8p0m/2024-11-26-14-13-15/
REMARK  10 active torsions:
REMARK  status: ('A' for Active; 'I' for Inactive)
REMARK    1  A    between atoms: C_1  and  C_2
REMARK    2  A    between atoms: C_2  and  O_8
REMARK    3  A    between atoms: C_7  and  C_11
REMARK    4  A    between atoms: O_8  and  C_18
REMARK    5  A    between atoms: C_11  and  C_12
REMARK    6  A    between atoms: C_12  and  C_14
REMARK    7  A    between atoms: C_18  and  C_19
REMARK    8  A    between atoms: C_19  and  O_21
REMARK    9  A    between atoms: O_21  and  C_22
REMARK   10  A    between atoms: C_24  and  C_29
REMARK                            x       y       z     vdW  Elec       q    Type
REMARK                         _______ _______ _______ _____ _____    ______ ____
ROOT
ATOM      1  O   UNL A   1     -28.490  -1.918  30.636  0.00  0.00    -0.433 OA
ENDROOT
BRANCH   1   2
ATOM      2  C   UNL A   1     -28.469  -0.785  29.829  0.00  0.00    +0.342 C 
ATOM      3  O   UNL A   1     -29.444   0.016  30.341  0.00  0.00    -0.245 OA
BRANCH   2   4
ATOM      4  C   UNL A   1     -28.016  -0.814  28.878  0.00  0.00    +0.074 A 
ATOM      5  C   UNL A   1     -28.182   0.428  28.113  0.00  0.00    +0.037 A 
ATOM      6  C   UNL A   1     -27.450   0.643  26.850  0.00  0.00    +0.151 A 
ATOM      7  C   UNL A   1     -26.181   0.036  26.715  0.00  0.00    +0.085 A 
ATOM      8  C   UNL A   1     -25.780  -0.933  27.694  0.00  0.00    +0.010 A 
ATOM      9  C   UNL A   1     -26.557  -1.213  28.741  0.00  0.00    -0.011 A 
ATOM     10 CL   UNL A   1     -25.152   0.346  25.413  0.00  0.00    -0.080 Cl
ATOM     11  F   UNL A   1     -27.826   1.695  26.141  0.00  0.00    -0.203 F 
BRANCH   9  12
ATOM     12  C   UNL A   1     -25.950  -2.271  29.592  0.00  0.00    +0.054 C 
BRANCH  12  13
ATOM     13  C   UNL A   1     -24.912  -3.059  29.092  0.00  0.00    +0.026 C 
ATOM     14  C   UNL A   1     -23.651  -2.495  29.031  0.00  0.00    -0.003 C 
BRANCH  13  15
ATOM     15  C   UNL A   1     -25.146  -4.427  28.843  0.00  0.00    +0.338 C 
ATOM     16  F   UNL A   1     -24.167  -5.149  28.500  0.00  0.00    -0.194 F 
ATOM     17  F   UNL A   1     -26.151  -5.036  29.172  0.00  0.00    -0.194 F 
ENDBRANCH  13  15
ENDBRANCH  12  13
ENDBRANCH   9  12
ENDBRANCH   2   4
ENDBRANCH   1   2
BRANCH   1  18
ATOM     18  C   UNL A   1     -29.035  -2.274  31.499  0.00  0.00    +0.317 C 
BRANCH  18  19
ATOM     19  C   UNL A   1     -29.373  -3.744  31.522  0.00  0.00    +0.367 C 
ATOM     20  O   UNL A   1     -29.038  -4.425  30.660  0.00  0.00    -0.245 OA
BRANCH  19  21
ATOM     21  O   UNL A   1     -30.048  -4.294  32.489  0.00  0.00    -0.421 OA
BRANCH  21  22
ATOM     22  C   UNL A   1     -31.011  -5.182  32.331  0.00  0.00    +0.159 A 
ATOM     23  C   UNL A   1     -32.006  -5.093  31.535  0.00  0.00    +0.038 A 
ATOM     24  C   UNL A   1     -32.694  -6.142  31.180  0.00  0.00    +0.003 A 
ATOM     25  C   UNL A   1     -32.495  -7.417  31.786  0.00  0.00    +0.001 A 
ATOM     26  C   UNL A   1     -31.403  -7.584  32.656  0.00  0.00    +0.015 A 
ATOM     27  C   UNL A   1     -30.547  -6.473  32.956  0.00  0.00    +0.092 A 
ATOM     28 CL   UNL A   1     -29.235  -6.628  33.958  0.00  0.00    -0.079 Cl
BRANCH  24  29
ATOM     29  C   UNL A   1     -33.968  -6.039  30.359  0.00  0.00    +0.000 A 
ATOM     30  C   UNL A   1     -34.725  -5.159  30.531  0.00  0.00    +0.000 A 
ATOM     31  C   UNL A   1     -35.908  -4.934  29.662  0.00  0.00    +0.000 A 
ATOM     32  C   UNL A   1     -36.081  -5.874  28.666  0.00  0.00    +0.000 A 
ATOM     33  C   UNL A   1     -35.191  -6.876  28.457  0.00  0.00    +0.000 A 
ATOM     34  C   UNL A   1     -34.092  -6.975  29.274  0.00  0.00    +0.000 A 
ENDBRANCH  24  29
ENDBRANCH  21  22
ENDBRANCH  19  21
ENDBRANCH  18  19
ENDBRANCH   1  18
TORSDOF 10
