REMARK  Name = No_2845-gen_results/8p0m/2024-11-26-14-13-15/
REMARK  7 active torsions:
REMARK  status: ('A' for Active; 'I' for Inactive)
REMARK    1  A    between atoms: C_4  and  C_6
REMARK    2  A    between atoms: C_6  and  C_8
REMARK    3  A    between atoms: C_8  and  C_11
REMARK    4  A    between atoms: C_9  and  C_10
REMARK    5  A    between atoms: C_11  and  C_12
REMARK    6  A    between atoms: C_13  and  C_14
REMARK    7  A    between atoms: C_17  and  C_18
REMARK                            x       y       z     vdW  Elec       q    Type
REMARK                         _______ _______ _______ _____ _____    ______ ____
ROOT
ATOM      1  C   UNL A   1     -23.796   0.436  29.909  0.00  0.00    -0.040 C 
ATOM      2  C   UNL A   1     -22.494   0.476  29.363  0.00  0.00    -0.034 C 
ENDROOT
BRANCH   2   3
ATOM      3  C   UNL A   1     -21.937   1.693  28.918  0.00  0.00    +0.025 C 
ATOM      4  C   UNL A   1     -22.301   1.929  27.591  0.00  0.00    +0.005 C 
ENDBRANCH   2   3
BRANCH   1   5
ATOM      5  C   UNL A   1     -24.398  -0.836  30.177  0.00  0.00    +0.048 C 
BRANCH   5   9
ATOM      6  C   UNL A   1     -28.016  -0.814  28.878  0.00  0.00    -0.005 A 
ATOM      7  C   UNL A   1     -28.469  -0.785  29.829  0.00  0.00    -0.000 A 
ATOM      8  C   UNL A   1     -26.504  -0.778  28.877  0.00  0.00    -0.025 A 
ATOM      9  C   UNL A   1     -25.810  -0.853  30.103  0.00  0.00    -0.022 A 
ATOM     10  C   UNL A   1     -27.991  -0.892  31.226  0.00  0.00    -0.000 A 
ATOM     11  C   UNL A   1     -26.575  -0.890  31.266  0.00  0.00    -0.004 A 
ATOM     12  C   UNL A   1     -25.706  -0.617  27.638  0.00  0.00    +0.031 C 
ENDBRANCH   5   9
ENDBRANCH   1   5
BRANCH   1  13
ATOM     13  C   UNL A   1     -24.378   1.673  30.325  0.00  0.00    +0.048 C 
BRANCH  13  14
ATOM     14  C   UNL A   1     -25.587   1.690  31.076  0.00  0.00    -0.022 C 
ATOM     15  C   UNL A   1     -26.035   3.076  31.425  0.00  0.00    -0.005 C 
BRANCH  15  16
ATOM     16  C   UNL A   1     -27.011   3.251  32.370  0.00  0.00    -0.005 C 
ATOM     17  C   UNL A   1     -27.546   4.511  32.552  0.00  0.00    -0.026 C 
BRANCH  17  18
ATOM     18  C   UNL A   1     -27.064   5.617  31.824  0.00  0.00    +0.026 C 
ATOM     19  C   UNL A   1     -27.619   6.900  31.953  0.00  0.00    +0.005 C 
ENDBRANCH  17  18
ENDBRANCH  15  16
ENDBRANCH  13  14
ENDBRANCH   1  13
TORSDOF 7
