REMARK  Name = No_2846-gen_results/8p0m/2024-11-26-14-13-15/
REMARK  1 active torsions:
REMARK  status: ('A' for Active; 'I' for Inactive)
REMARK    1  A    between atoms: C_2  and  C_5
REMARK                            x       y       z     vdW  Elec       q    Type
REMARK                         _______ _______ _______ _____ _____    ______ ____
ROOT
ATOM      1  C   UNL A   1     -28.016  -0.814  28.878  0.00  0.00    +0.010 A 
ATOM      2  C   UNL A   1     -28.469  -0.785  29.829  0.00  0.00    +0.068 A 
ATOM      3  C   UNL A   1     -27.136   0.236  28.535  0.00  0.00    +0.001 A 
ATOM      4  C   UNL A   1     -26.805   1.051  29.276  0.00  0.00    +0.000 A 
ATOM      5  C   UNL A   1     -27.321   1.128  30.607  0.00  0.00    +0.001 A 
ATOM      6  C   UNL A   1     -28.197   0.082  30.980  0.00  0.00    +0.010 A 
ENDROOT
BRANCH   2   7
ATOM      7  C   UNL A   1     -29.412  -1.889  30.314  0.00  0.00    +0.100 C 
ATOM      8  N   UNL A   1     -29.668  -2.894  30.204  0.00  0.00    -0.191 NA
ENDBRANCH   2   7
TORSDOF 1
