MODEL 2846
MODEL 1
REMARK VINA RESULT:    -5.130      0.000      0.000
REMARK INTER + INTRA:          -5.445
REMARK INTER:                  -5.430
REMARK INTRA:                  -0.015
REMARK UNBOUND:                -0.015
REMARK  Name = No_2846-gen_results/8p0m/2024-11-26-14-13-15/
REMARK  1 active torsions:
REMARK  status: ('A' for Active; 'I' for Inactive)
REMARK    1  A    between atoms: C_2  and  C_5
REMARK                            x       y       z     vdW  Elec       q    Type
REMARK                         _______ _______ _______ _____ _____    ______ ____
ROOT
ATOM      1  C   UNL A   1      -8.449 -10.394  18.573  0.00  0.00    +0.010 A 
ATOM      2  C   UNL A   1      -9.440 -10.058  18.442  0.00  0.00    +0.068 A 
ATOM      3  C   UNL A   1      -7.778 -10.020  19.758  0.00  0.00    +0.001 A 
ATOM      4  C   UNL A   1      -8.290  -9.470  20.628  0.00  0.00    +0.000 A 
ATOM      5  C   UNL A   1      -9.650  -9.034  20.561  0.00  0.00    +0.001 A 
ATOM      6  C   UNL A   1     -10.349  -9.405  19.388  0.00  0.00    +0.010 A 
ENDROOT
BRANCH   2   7
ATOM      7  C   UNL A   1     -10.269 -10.433  17.211  0.00  0.00    +0.100 C 
ATOM      8  N   UNL A   1     -11.232 -10.450  16.811  0.00  0.00    -0.191 NA
ENDBRANCH   2   7
TORSDOF 1
ENDMDL
ENDMDL
