REMARK  Name = No_2847-gen_results/8p0m/2024-11-26-14-13-15/
REMARK  0 active torsions:
REMARK  status: ('A' for Active; 'I' for Inactive)
REMARK                            x       y       z     vdW  Elec       q    Type
REMARK                         _______ _______ _______ _____ _____    ______ ____
ROOT
ATOM      1  C   UNL A   1     -28.016  -0.814  28.878  0.00  0.00    +0.099 A 
ATOM      2  C   UNL A   1     -27.064  -0.119  28.608  0.00  0.00    +0.019 A 
ATOM      3  C   UNL A   1     -25.765  -0.390  29.036  0.00  0.00    +0.002 A 
ATOM      4  C   UNL A   1     -24.552   0.406  28.765  0.00  0.00    -0.000 A 
ATOM      5  C   UNL A   1     -24.696   1.448  27.799  0.00  0.00    -0.004 A 
ATOM      6  C   UNL A   1     -25.976   1.725  27.308  0.00  0.00    -0.022 A 
ATOM      7  C   UNL A   1     -27.072   1.013  27.654  0.00  0.00    -0.003 A 
ATOM      8  N   UNL A   1     -29.187  -0.165  29.103  0.00  0.00    -0.241 NA
ATOM      9  C   UNL A   1     -23.496   2.169  27.476  0.00  0.00    -0.000 A 
ATOM     10  C   UNL A   1     -22.236   1.639  27.862  0.00  0.00    -0.000 A 
ATOM     11  C   UNL A   1     -22.186   0.620  28.829  0.00  0.00    -0.000 A 
ATOM     12  C   UNL A   1     -23.302  -0.099  29.208  0.00  0.00    -0.000 A 
ATOM     13  C   UNL A   1     -29.930  -0.378  30.095  0.00  0.00    +0.119 A 
ATOM     14  C   UNL A   1     -29.831  -1.629  30.764  0.00  0.00    +0.119 A 
ATOM     15  N   UNL A   1     -28.727  -2.311  30.639  0.00  0.00    -0.241 NA
ATOM     16  C   UNL A   1     -27.747  -1.811  29.967  0.00  0.00    +0.099 A 
ATOM     17  C   UNL A   1     -26.359  -2.304  30.112  0.00  0.00    +0.021 A 
ATOM     18  C   UNL A   1     -25.480  -1.502  29.867  0.00  0.00    +0.002 A 
ATOM     19  C   UNL A   1     -26.140   2.937  26.455  0.00  0.00    +0.031 C 
ENDROOT
TORSDOF 0
