MODEL 2847
MODEL 1
REMARK VINA RESULT:    -7.697      0.000      0.000
REMARK INTER + INTRA:          -7.697
REMARK INTER:                  -7.697
REMARK INTRA:                   0.000
REMARK UNBOUND:                 0.000
REMARK  Name = No_2847-gen_results/8p0m/2024-11-26-14-13-15/
REMARK  0 active torsions:
REMARK  status: ('A' for Active; 'I' for Inactive)
REMARK                            x       y       z     vdW  Elec       q    Type
REMARK                         _______ _______ _______ _____ _____    ______ ____
ROOT
ATOM      1  C   UNL A   1     -29.063 -10.238  33.073  0.00  0.00    +0.099 A 
ATOM      2  C   UNL A   1     -29.427 -10.170  31.922  0.00  0.00    +0.019 A 
ATOM      3  C   UNL A   1     -29.007 -11.051  30.926  0.00  0.00    +0.002 A 
ATOM      4  C   UNL A   1     -29.390 -11.034  29.501  0.00  0.00    -0.000 A 
ATOM      5  C   UNL A   1     -30.454 -10.147  29.154  0.00  0.00    -0.004 A 
ATOM      6  C   UNL A   1     -30.938  -9.276  30.135  0.00  0.00    -0.022 A 
ATOM      7  C   UNL A   1     -30.493  -9.278  31.412  0.00  0.00    -0.003 A 
ATOM      8  N   UNL A   1     -28.876  -9.056  33.713  0.00  0.00    -0.241 NA
ATOM      9  C   UNL A   1     -30.881 -10.191  27.782  0.00  0.00    -0.000 A 
ATOM     10  C   UNL A   1     -30.474 -11.274  26.958  0.00  0.00    -0.000 A 
ATOM     11  C   UNL A   1     -29.409 -12.092  27.372  0.00  0.00    -0.000 A 
ATOM     12  C   UNL A   1     -28.929 -12.086  28.667  0.00  0.00    -0.000 A 
ATOM     13  C   UNL A   1     -27.849  -8.772  34.381  0.00  0.00    +0.119 A 
ATOM     14  C   UNL A   1     -27.057  -9.835  34.897  0.00  0.00    +0.119 A 
ATOM     15  N   UNL A   1     -27.139 -11.002  34.323  0.00  0.00    -0.241 NA
ATOM     16  C   UNL A   1     -27.884 -11.144  33.281  0.00  0.00    +0.099 A 
ATOM     17  C   UNL A   1     -27.725 -12.280  32.346  0.00  0.00    +0.021 A 
ATOM     18  C   UNL A   1     -28.073 -12.081  31.200  0.00  0.00    +0.002 A 
ATOM     19  C   UNL A   1     -31.907  -8.226  29.708  0.00  0.00    +0.031 C 
ENDROOT
TORSDOF 0
ENDMDL
ENDMDL
