REMARK  Name = No_2848-gen_results/8p0m/2024-11-26-14-13-15/
REMARK  3 active torsions:
REMARK  status: ('A' for Active; 'I' for Inactive)
REMARK    1  A    between atoms: C_1  and  C_6
REMARK    2  A    between atoms: C_3  and  C_15
REMARK    3  A    between atoms: C_5  and  C_11
REMARK                            x       y       z     vdW  Elec       q    Type
REMARK                         _______ _______ _______ _____ _____    ______ ____
ROOT
ATOM      1  C   UNL A   1     -28.016  -0.814  28.878  0.00  0.00    +0.055 A 
ATOM      2  C   UNL A   1     -27.064  -0.119  28.608  0.00  0.00    +0.001 A 
ATOM      3  C   UNL A   1     -26.972   0.714  27.506  0.00  0.00    -0.018 A 
ATOM      4  C   UNL A   1     -28.105   0.774  26.642  0.00  0.00    -0.000 A 
ATOM      5  C   UNL A   1     -29.201   0.104  27.053  0.00  0.00    +0.071 A 
ATOM      6  C   UNL A   1     -29.164  -0.639  28.148  0.00  0.00    +0.008 A 
ENDROOT
BRANCH   3   7
ATOM      7  C   UNL A   1     -25.700   1.402  27.077  0.00  0.00    +0.044 C 
ATOM      8  C   UNL A   1     -24.577   0.966  27.573  0.00  0.00    -0.027 C 
ATOM      9  C   UNL A   1     -23.367   1.732  27.434  0.00  0.00    -0.030 C 
ATOM     10  C   UNL A   1     -23.473   2.674  26.384  0.00  0.00    +0.026 C 
ATOM     11  C   UNL A   1     -25.231   2.556  26.287  0.00  0.00    +0.013 C 
ENDBRANCH   3   7
BRANCH   1  12
ATOM     12  C   UNL A   1     -28.022  -1.590  30.088  0.00  0.00    +0.265 C 
ATOM     13  N   UNL A   1     -28.838  -1.898  30.766  0.00  0.00    -0.200 NA
ATOM     14  O   UNL A   1     -26.786  -1.948  30.547  0.00  0.00    -0.268 OA
ATOM     15  C   UNL A   1     -28.838  -2.880  31.897  0.00  0.00    +0.139 C 
ENDBRANCH   1  12
BRANCH   5  16
ATOM     16  C   UNL A   1     -30.388   0.214  26.180  0.00  0.00    +0.419 C 
ATOM     17  F   UNL A   1     -30.948   1.129  26.271  0.00  0.00    -0.166 F 
ATOM     18  F   UNL A   1     -31.185  -0.842  26.553  0.00  0.00    -0.166 F 
ATOM     19  F   UNL A   1     -30.067  -0.114  24.905  0.00  0.00    -0.166 F 
ENDBRANCH   5  16
TORSDOF 3
