MODEL 2848
MODEL 1
REMARK VINA RESULT:    -7.168      0.000      0.000
REMARK INTER + INTRA:          -9.130
REMARK INTER:                  -8.425
REMARK INTRA:                  -0.705
REMARK UNBOUND:                -0.705
REMARK  Name = No_2848-gen_results/8p0m/2024-11-26-14-13-15/
REMARK  3 active torsions:
REMARK  status: ('A' for Active; 'I' for Inactive)
REMARK    1  A    between atoms: C_1  and  C_6
REMARK    2  A    between atoms: C_3  and  C_15
REMARK    3  A    between atoms: C_5  and  C_11
REMARK                            x       y       z     vdW  Elec       q    Type
REMARK                         _______ _______ _______ _____ _____    ______ ____
ROOT
ATOM      1  C   UNL A   1     -11.055   1.184  35.035  0.00  0.00    +0.055 A 
ATOM      2  C   UNL A   1     -11.340   0.684  36.098  0.00  0.00    +0.001 A 
ATOM      3  C   UNL A   1     -10.494  -0.103  36.861  0.00  0.00    -0.018 A 
ATOM      4  C   UNL A   1      -9.175  -0.311  36.361  0.00  0.00    -0.000 A 
ATOM      5  C   UNL A   1      -8.844   0.383  35.253  0.00  0.00    +0.071 A 
ATOM      6  C   UNL A   1      -9.746   1.126  34.630  0.00  0.00    +0.008 A 
ENDROOT
BRANCH   3   7
ATOM      7  C   UNL A   1     -10.939  -0.888  38.070  0.00  0.00    +0.044 C 
ATOM      8  C   UNL A   1     -11.545  -2.023  37.867  0.00  0.00    -0.027 C 
ATOM      9  C   UNL A   1     -12.237  -2.688  38.940  0.00  0.00    -0.030 C 
ATOM     10  C   UNL A   1     -11.797  -2.222  40.201  0.00  0.00    +0.026 C 
ATOM     11  C   UNL A   1     -11.019  -0.783  39.539  0.00  0.00    +0.013 C 
ENDBRANCH   3   7
BRANCH   1  12
ATOM     12  C   UNL A   1     -11.997   2.038  34.365  0.00  0.00    +0.265 C 
ATOM     13  N   UNL A   1     -12.853   1.819  33.701  0.00  0.00    -0.200 NA
ATOM     14  O   UNL A   1     -11.751   3.376  34.490  0.00  0.00    -0.268 OA
ATOM     15  C   UNL A   1     -13.939   2.717  33.193  0.00  0.00    +0.139 C 
ENDBRANCH   1  12
BRANCH   5  16
ATOM     16  C   UNL A   1      -7.459   0.204  34.770  0.00  0.00    +0.419 C 
ATOM     17  F   UNL A   1      -7.073   1.003  34.161  0.00  0.00    -0.166 F 
ATOM     18  F   UNL A   1      -7.503  -0.950  34.025  0.00  0.00    -0.166 F 
ATOM     19  F   UNL A   1      -6.646  -0.154  35.794  0.00  0.00    -0.166 F 
ENDBRANCH   5  16
TORSDOF 3
ENDMDL
ENDMDL
