MODEL 2849
MODEL 1
REMARK VINA RESULT:    -5.426      0.000      0.000
REMARK INTER + INTRA:          -6.318
REMARK INTER:                  -6.061
REMARK INTRA:                  -0.257
REMARK UNBOUND:                -0.257
REMARK  Name = No_2849-gen_results/8p0m/2024-11-26-14-13-15/
REMARK  2 active torsions:
REMARK  status: ('A' for Active; 'I' for Inactive)
REMARK    1  A    between atoms: C_3  and  C_4
REMARK    2  A    between atoms: C_4  and  C_8
REMARK                            x       y       z     vdW  Elec       q    Type
REMARK                         _______ _______ _______ _____ _____    ______ ____
ROOT
ATOM      1  C   UNL A   1     -25.105  -5.221  29.153  0.00  0.00    -0.000 A 
ATOM      2  C   UNL A   1     -24.260  -4.401  28.879  0.00  0.00    -0.004 A 
ATOM      3  C   UNL A   1     -24.436  -3.057  29.189  0.00  0.00    -0.018 A 
ATOM      4  C   UNL A   1     -26.431  -4.787  29.600  0.00  0.00    -0.000 A 
ATOM      5  C   UNL A   1     -26.664  -3.501  30.020  0.00  0.00    -0.000 A 
ATOM      6  C   UNL A   1     -25.648  -2.567  29.806  0.00  0.00    -0.004 A 
ENDROOT
BRANCH   3   7
ATOM      7  C   UNL A   1     -23.446  -2.068  28.956  0.00  0.00    +0.052 C 
BRANCH   7   8
ATOM      8  C   UNL A   1     -23.686  -0.719  28.742  0.00  0.00    -0.026 C 
ATOM      9  C   UNL A   1     -22.642   0.182  28.555  0.00  0.00    -0.030 C 
ATOM     10  C   UNL A   1     -21.271  -0.271  28.835  0.00  0.00    +0.030 C 
ENDBRANCH   7   8
ENDBRANCH   3   7
TORSDOF 2
ENDMDL
ENDMDL
