MODEL 284
MODEL 1
REMARK VINA RESULT:    -6.759      0.000      0.000
REMARK INTER + INTRA:          -7.906
REMARK INTER:                  -7.550
REMARK INTRA:                  -0.357
REMARK UNBOUND:                -0.357
REMARK  Name = No_284-gen_results/8p0m/2024-11-26-14-13-15/
REMARK  2 active torsions:
REMARK  status: ('A' for Active; 'I' for Inactive)
REMARK    1  A    between atoms: C_2  and  C_7
REMARK    2  A    between atoms: C_9  and  C_10
REMARK                            x       y       z     vdW  Elec       q    Type
REMARK                         _______ _______ _______ _____ _____    ______ ____
ROOT
ATOM      1  C   UNL A   1     -24.625  -1.317  29.545  0.00  0.00    +0.003 A 
ATOM      2  C   UNL A   1     -25.578  -0.722  30.373  0.00  0.00    -0.004 A 
ATOM      3  C   UNL A   1     -23.248  -0.846  30.079  0.00  0.00    +0.042 A 
ATOM      4  C   UNL A   1     -22.935  -0.698  31.405  0.00  0.00    +0.003 A 
ATOM      5  C   UNL A   1     -23.965  -0.445  32.368  0.00  0.00    -0.004 A 
ATOM      6  C   UNL A   1     -25.323  -0.530  31.820  0.00  0.00    -0.022 A 
ATOM      7  C   UNL A   1     -26.429  -0.374  32.793  0.00  0.00    +0.031 C 
ENDROOT
BRANCH   1   9
ATOM      8  C   UNL A   1     -23.906  -3.389  28.578  0.00  0.00    +0.000 A 
ATOM      9  C   UNL A   1     -24.730  -2.802  29.241  0.00  0.00    +0.000 A 
ATOM     10  C   UNL A   1     -25.823  -3.392  29.789  0.00  0.00    +0.000 A 
ATOM     11  C   UNL A   1     -26.015  -4.771  29.577  0.00  0.00    +0.000 A 
ATOM     12  C   UNL A   1     -23.988  -4.817  28.401  0.00  0.00    +0.000 A 
ATOM     13  C   UNL A   1     -25.083  -5.452  28.907  0.00  0.00    +0.000 A 
ENDBRANCH   1   9
BRANCH   3  14
ATOM     14  C   UNL A   1     -22.245  -0.630  29.118  0.00  0.00    +0.234 C 
ATOM     15  O   UNL A   1     -21.383  -1.144  29.000  0.00  0.00    -0.283 OA
ENDBRANCH   3  14
TORSDOF 2
ENDMDL
ENDMDL
