MODEL 2850
MODEL 1
REMARK VINA RESULT:    -7.248      0.000      0.000
REMARK INTER + INTRA:          -8.976
REMARK INTER:                  -8.519
REMARK INTRA:                  -0.456
REMARK UNBOUND:                -0.456
REMARK  Name = No_2850-gen_results/8p0m/2024-11-26-14-13-15/
REMARK  3 active torsions:
REMARK  status: ('A' for Active; 'I' for Inactive)
REMARK    1  A    between atoms: C_3  and  C_17
REMARK    2  A    between atoms: C_5  and  C_7
REMARK    3  A    between atoms: N_9  and  C_10
REMARK                            x       y       z     vdW  Elec       q    Type
REMARK                         _______ _______ _______ _____ _____    ______ ____
ROOT
ATOM      1  C   UNL A   1     -27.975  -0.427  24.243  0.00  0.00    +0.016 A 
ATOM      2  C   UNL A   1     -29.086  -0.167  23.841  0.00  0.00    +0.058 A 
ATOM      3  C   UNL A   1     -29.524   1.128  23.567  0.00  0.00    +0.011 A 
ATOM      4  C   UNL A   1     -28.984   2.016  23.776  0.00  0.00    +0.001 A 
ATOM      5  C   UNL A   1     -27.133   0.742  24.607  0.00  0.00    +0.056 A 
ATOM      6  C   UNL A   1     -27.622   1.971  24.320  0.00  0.00    +0.005 A 
ATOM      7 CL   UNL A   1     -30.126  -1.554  23.428  0.00  0.00    -0.082 Cl
ENDROOT
BRANCH   3   8
ATOM      8  C   UNL A   1     -30.962   1.435  22.864  0.00  0.00    +0.001 A 
ATOM      9  C   UNL A   1     -32.091   0.906  23.057  0.00  0.00    +0.000 A 
ATOM     10  C   UNL A   1     -33.203   1.243  22.292  0.00  0.00    +0.000 A 
ATOM     11  C   UNL A   1     -33.096   2.189  21.227  0.00  0.00    +0.000 A 
ATOM     12  C   UNL A   1     -30.916   2.372  21.735  0.00  0.00    +0.000 A 
ATOM     13  C   UNL A   1     -31.988   2.734  20.969  0.00  0.00    +0.000 A 
ENDBRANCH   3   8
BRANCH   5  14
ATOM     14  C   UNL A   1     -25.795   0.651  25.144  0.00  0.00    +0.269 C 
ATOM     15  O   UNL A   1     -24.897   0.024  24.566  0.00  0.00    -0.268 OA
ATOM     16  N   UNL A   1     -25.496   1.258  26.307  0.00  0.00    -0.175 NA
BRANCH  16  17
ATOM     17  C   UNL A   1     -24.156   1.165  26.895  0.00  0.00    +0.074 A 
ATOM     18  C   UNL A   1     -24.082   0.273  27.775  0.00  0.00    +0.017 A 
ATOM     19  C   UNL A   1     -22.978   0.027  28.465  0.00  0.00    +0.001 A 
ATOM     20  C   UNL A   1     -21.807   0.831  28.131  0.00  0.00    +0.000 A 
ATOM     21  C   UNL A   1     -21.923   1.805  27.157  0.00  0.00    +0.001 A 
ATOM     22  C   UNL A   1     -23.135   2.034  26.546  0.00  0.00    +0.017 A 
ENDBRANCH  16  17
ENDBRANCH   5  14
TORSDOF 3
ENDMDL
ENDMDL
