REMARK  Name = No_2850-gen_results/8p0m/2024-11-26-14-13-15/
REMARK  3 active torsions:
REMARK  status: ('A' for Active; 'I' for Inactive)
REMARK    1  A    between atoms: C_3  and  C_17
REMARK    2  A    between atoms: C_5  and  C_7
REMARK    3  A    between atoms: N_9  and  C_10
REMARK                            x       y       z     vdW  Elec       q    Type
REMARK                         _______ _______ _______ _____ _____    ______ ____
ROOT
ATOM      1  C   UNL A   1     -28.016  -0.814  28.878  0.00  0.00    +0.016 A 
ATOM      2  C   UNL A   1     -27.064  -0.119  28.608  0.00  0.00    +0.058 A 
ATOM      3  C   UNL A   1     -25.765  -0.390  29.036  0.00  0.00    +0.011 A 
ATOM      4  C   UNL A   1     -25.489  -1.154  29.717  0.00  0.00    +0.001 A 
ATOM      5  C   UNL A   1     -27.761  -1.903  29.857  0.00  0.00    +0.056 A 
ATOM      6  C   UNL A   1     -26.478  -2.106  30.236  0.00  0.00    +0.005 A 
ATOM      7 CL   UNL A   1     -27.353   1.213  27.460  0.00  0.00    -0.082 Cl
ENDROOT
BRANCH   3   8
ATOM      8  C   UNL A   1     -24.477   0.463  28.517  0.00  0.00    +0.001 A 
ATOM      9  C   UNL A   1     -24.351   1.218  27.514  0.00  0.00    +0.000 A 
ATOM     10  C   UNL A   1     -23.134   1.802  27.178  0.00  0.00    +0.000 A 
ATOM     11  C   UNL A   1     -21.961   1.538  27.950  0.00  0.00    +0.000 A 
ATOM     12  C   UNL A   1     -23.227   0.209  29.244  0.00  0.00    +0.000 A 
ATOM     13  C   UNL A   1     -22.017   0.771  28.951  0.00  0.00    +0.000 A 
ENDBRANCH   3   8
BRANCH   5  14
ATOM     14  C   UNL A   1     -28.768  -2.817  30.344  0.00  0.00    +0.269 C 
ATOM     15  O   UNL A   1     -28.572  -4.038  30.404  0.00  0.00    -0.268 OA
ATOM     16  N   UNL A   1     -29.962  -2.346  30.749  0.00  0.00    -0.175 NA
BRANCH  16  17
ATOM     17  C   UNL A   1     -31.016  -3.246  31.225  0.00  0.00    +0.074 A 
ATOM     18  C   UNL A   1     -32.047  -2.626  31.585  0.00  0.00    +0.017 A 
ATOM     19  C   UNL A   1     -33.118  -3.228  32.080  0.00  0.00    +0.001 A 
ATOM     20  C   UNL A   1     -33.068  -4.684  32.162  0.00  0.00    +0.000 A 
ATOM     21  C   UNL A   1     -31.919  -5.336  31.758  0.00  0.00    +0.001 A 
ATOM     22  C   UNL A   1     -30.829  -4.615  31.325  0.00  0.00    +0.017 A 
ENDBRANCH  16  17
ENDBRANCH   5  14
TORSDOF 3
