MODEL 2851
MODEL 1
REMARK VINA RESULT:    -6.996      0.000      0.000
REMARK INTER + INTRA:          -6.996
REMARK INTER:                  -6.996
REMARK INTRA:                   0.000
REMARK UNBOUND:                 0.000
REMARK  Name = No_2851-gen_results/8p0m/2024-11-26-14-13-15/
REMARK  0 active torsions:
REMARK  status: ('A' for Active; 'I' for Inactive)
REMARK                            x       y       z     vdW  Elec       q    Type
REMARK                         _______ _______ _______ _____ _____    ______ ____
ROOT
ATOM      1  C   UNL A   1     -29.840 -11.780  26.918  0.00  0.00    -0.000 A 
ATOM      2  C   UNL A   1     -29.134 -11.989  27.877  0.00  0.00    -0.004 A 
ATOM      3  C   UNL A   1     -29.325 -11.305  29.072  0.00  0.00    -0.022 A 
ATOM      4  C   UNL A   1     -30.039 -10.504  29.216  0.00  0.00    -0.025 A 
ATOM      5  C   UNL A   1     -30.327  -9.659  30.451  0.00  0.00    +0.031 C 
ATOM      6  C   UNL A   1     -30.790 -10.679  26.972  0.00  0.00    -0.000 A 
ATOM      7  C   UNL A   1     -30.962 -10.064  28.191  0.00  0.00    -0.005 A 
ATOM      8  C   UNL A   1     -30.455 -10.403  31.628  0.00  0.00    +0.031 C 
ATOM      9  C   UNL A   1     -29.171 -10.703  32.317  0.00  0.00    -0.025 A 
ATOM     10  C   UNL A   1     -28.829 -10.538  33.407  0.00  0.00    -0.005 A 
ATOM     11  C   UNL A   1     -27.659 -11.187  34.029  0.00  0.00    -0.000 A 
ATOM     12  C   UNL A   1     -26.954 -12.137  33.189  0.00  0.00    -0.000 A 
ATOM     13  C   UNL A   1     -27.368 -12.345  31.906  0.00  0.00    -0.004 A 
ATOM     14  C   UNL A   1     -28.436 -11.703  31.456  0.00  0.00    -0.022 A 
ATOM     15  C   UNL A   1     -28.736 -11.759  30.007  0.00  0.00    +0.052 C 
ENDROOT
TORSDOF 0
ENDMDL
ENDMDL
