REMARK  Name = No_2851-gen_results/8p0m/2024-11-26-14-13-15/
REMARK  0 active torsions:
REMARK  status: ('A' for Active; 'I' for Inactive)
REMARK                            x       y       z     vdW  Elec       q    Type
REMARK                         _______ _______ _______ _____ _____    ______ ____
ROOT
ATOM      1  C   UNL A   1     -28.016  -0.814  28.878  0.00  0.00    -0.000 A 
ATOM      2  C   UNL A   1     -27.064  -0.119  28.608  0.00  0.00    -0.004 A 
ATOM      3  C   UNL A   1     -25.792  -0.430  29.076  0.00  0.00    -0.022 A 
ATOM      4  C   UNL A   1     -25.568  -1.241  29.757  0.00  0.00    -0.025 A 
ATOM      5  C   UNL A   1     -24.238  -1.669  30.365  0.00  0.00    +0.031 C 
ATOM      6  C   UNL A   1     -27.848  -1.892  29.841  0.00  0.00    -0.000 A 
ATOM      7  C   UNL A   1     -26.562  -2.177  30.239  0.00  0.00    -0.005 A 
ATOM      8  C   UNL A   1     -23.191  -1.744  29.441  0.00  0.00    +0.031 C 
ATOM      9  C   UNL A   1     -22.490  -0.456  29.190  0.00  0.00    -0.025 A 
ATOM     10  C   UNL A   1     -21.372  -0.172  29.225  0.00  0.00    -0.005 A 
ATOM     11  C   UNL A   1     -20.794   1.048  28.628  0.00  0.00    -0.000 A 
ATOM     12  C   UNL A   1     -21.729   1.890  27.905  0.00  0.00    -0.000 A 
ATOM     13  C   UNL A   1     -23.048   1.546  27.849  0.00  0.00    -0.004 A 
ATOM     14  C   UNL A   1     -23.451   0.423  28.424  0.00  0.00    -0.022 A 
ATOM     15  C   UNL A   1     -24.906   0.179  28.555  0.00  0.00    +0.052 C 
ENDROOT
TORSDOF 0
