MODEL 2852
MODEL 1
REMARK VINA RESULT:    -5.289      0.000      0.000
REMARK INTER + INTRA:          -5.289
REMARK INTER:                  -5.289
REMARK INTRA:                   0.000
REMARK UNBOUND:                 0.000
REMARK  Name = No_2852-gen_results/8p0m/2024-11-26-14-13-15/
REMARK  0 active torsions:
REMARK  status: ('A' for Active; 'I' for Inactive)
REMARK                            x       y       z     vdW  Elec       q    Type
REMARK                         _______ _______ _______ _____ _____    ______ ____
ROOT
ATOM      1  F   UNL A   1     -29.875 -16.167  10.472  0.00  0.00    -0.191 F 
ATOM      2  C   UNL A   1     -30.467 -15.298  10.926  0.00  0.00    +0.368 C 
ATOM      3  F   UNL A   1     -31.577 -15.506  11.134  0.00  0.00    -0.191 F 
ATOM      4  C   UNL A   1     -30.357 -14.020  10.154  0.00  0.00    +0.325 C 
ATOM      5  C   UNL A   1     -29.758 -15.024  12.318  0.00  0.00    +0.216 C 
ATOM      6  F   UNL A   1     -30.902 -14.190   9.096  0.00  0.00    -0.198 F 
ATOM      7  C   UNL A   1     -31.068 -12.875  10.803  0.00  0.00    +0.063 C 
ATOM      8  C   UNL A   1     -30.384 -12.372  12.011  0.00  0.00    +0.013 C 
ATOM      9  C   UNL A   1     -30.375 -13.806  13.057  0.00  0.00    +0.071 C 
ATOM     10  F   UNL A   1     -29.066 -13.756   9.985  0.00  0.00    -0.198 F 
ATOM     11  O   UNL A   1     -28.868 -15.620  12.894  0.00  0.00    -0.290 OA
ATOM     12  C   UNL A   1     -32.567 -13.113  11.078  0.00  0.00    +0.006 C 
ATOM     13  C   UNL A   1     -30.993 -11.590   9.892  0.00  0.00    +0.006 C 
ENDROOT
TORSDOF 0
ENDMDL
ENDMDL
