REMARK  Name = No_2852-gen_results/8p0m/2024-11-26-14-13-15/
REMARK  0 active torsions:
REMARK  status: ('A' for Active; 'I' for Inactive)
REMARK                            x       y       z     vdW  Elec       q    Type
REMARK                         _______ _______ _______ _____ _____    ______ ____
ROOT
ATOM      1  F   UNL A   1     -28.073  -1.254  28.532  0.00  0.00    -0.191 F 
ATOM      2  C   UNL A   1     -27.359  -0.379  28.722  0.00  0.00    +0.368 C 
ATOM      3  F   UNL A   1     -26.318  -0.661  29.116  0.00  0.00    -0.191 F 
ATOM      4  C   UNL A   1     -27.930   0.689  29.602  0.00  0.00    +0.325 C 
ATOM      5  C   UNL A   1     -27.171   0.291  27.297  0.00  0.00    +0.216 C 
ATOM      6  F   UNL A   1     -28.069   0.216  30.698  0.00  0.00    -0.198 F 
ATOM      7  C   UNL A   1     -27.018   1.863  29.774  0.00  0.00    +0.063 C 
ATOM      8  C   UNL A   1     -26.920   2.708  28.567  0.00  0.00    +0.013 C 
ATOM      9  C   UNL A   1     -26.289   1.567  27.364  0.00  0.00    +0.071 C 
ATOM     10  F   UNL A   1     -29.101   1.056  29.092  0.00  0.00    -0.198 F 
ATOM     11  O   UNL A   1     -27.561  -0.047  26.195  0.00  0.00    -0.290 OA
ATOM     12  C   UNL A   1     -25.617   1.522  30.321  0.00  0.00    +0.006 C 
ATOM     13  C   UNL A   1     -27.638   2.901  30.785  0.00  0.00    +0.006 C 
ENDROOT
TORSDOF 0
