REMARK  Name = No_2853-gen_results/8p0m/2024-11-26-14-13-15/
REMARK  2 active torsions:
REMARK  status: ('A' for Active; 'I' for Inactive)
REMARK    1  A    between atoms: C_4  and  C_7
REMARK    2  A    between atoms: N_8  and  C_9
REMARK                            x       y       z     vdW  Elec       q    Type
REMARK                         _______ _______ _______ _____ _____    ______ ____
ROOT
ATOM      1  C   UNL A   1     -28.016  -0.814  28.878  0.00  0.00    +0.000 A 
ATOM      2  C   UNL A   1     -28.469  -0.785  29.829  0.00  0.00    +0.000 A 
ATOM      3  C   UNL A   1     -26.603  -1.060  28.538  0.00  0.00    +0.005 A 
ATOM      4  C   UNL A   1     -25.797  -1.449  29.727  0.00  0.00    +0.055 A 
ATOM      5  C   UNL A   1     -26.428  -1.541  30.983  0.00  0.00    +0.005 A 
ATOM      6  C   UNL A   1     -27.756  -1.244  31.075  0.00  0.00    +0.000 A 
ENDROOT
BRANCH   4   7
ATOM      7  C   UNL A   1     -24.392  -1.740  29.564  0.00  0.00    +0.269 C 
ATOM      8  N   UNL A   1     -23.347  -1.165  29.794  0.00  0.00    -0.180 NA
ATOM      9  O   UNL A   1     -24.228  -3.034  29.049  0.00  0.00    -0.268 OA
BRANCH   8  10
ATOM     10  C   UNL A   1     -23.372   0.001  30.508  0.00  0.00    +0.052 C 
ATOM     11  C   UNL A   1     -22.732   1.250  29.845  0.00  0.00    +0.013 C 
ATOM     12  C   UNL A   1     -23.884   0.119  31.844  0.00  0.00    +0.049 C 
ENDBRANCH   8  10
ENDBRANCH   4   7
TORSDOF 2
