MODEL 2853
MODEL 1
REMARK VINA RESULT:    -5.581      0.000      0.000
REMARK INTER + INTRA:          -6.413
REMARK INTER:                  -6.233
REMARK INTRA:                  -0.180
REMARK UNBOUND:                -0.180
REMARK  Name = No_2853-gen_results/8p0m/2024-11-26-14-13-15/
REMARK  2 active torsions:
REMARK  status: ('A' for Active; 'I' for Inactive)
REMARK    1  A    between atoms: C_4  and  C_7
REMARK    2  A    between atoms: N_8  and  C_9
REMARK                            x       y       z     vdW  Elec       q    Type
REMARK                         _______ _______ _______ _____ _____    ______ ____
ROOT
ATOM      1  C   UNL A   1     -24.148  -4.752  28.638  0.00  0.00    +0.000 A 
ATOM      2  C   UNL A   1     -24.958  -5.339  28.970  0.00  0.00    +0.000 A 
ATOM      3  C   UNL A   1     -24.032  -3.283  28.592  0.00  0.00    +0.005 A 
ATOM      4  C   UNL A   1     -25.187  -2.607  29.243  0.00  0.00    +0.055 A 
ATOM      5  C   UNL A   1     -26.212  -3.391  29.808  0.00  0.00    +0.005 A 
ATOM      6  C   UNL A   1     -26.127  -4.749  29.717  0.00  0.00    +0.000 A 
ENDROOT
BRANCH   4   7
ATOM      7  C   UNL A   1     -25.222  -1.164  29.297  0.00  0.00    +0.269 C 
ATOM      8  N   UNL A   1     -24.591  -0.294  29.863  0.00  0.00    -0.180 NA
ATOM      9  O   UNL A   1     -26.217  -0.678  28.437  0.00  0.00    -0.268 OA
BRANCH   8  10
ATOM     10  C   UNL A   1     -23.453  -0.632  30.542  0.00  0.00    +0.052 C 
ATOM     11  C   UNL A   1     -22.108  -0.490  29.782  0.00  0.00    +0.013 C 
ATOM     12  C   UNL A   1     -23.437  -1.170  31.873  0.00  0.00    +0.049 C 
ENDBRANCH   8  10
ENDBRANCH   4   7
TORSDOF 2
ENDMDL
ENDMDL
