REMARK  Name = No_2854-gen_results/8p0m/2024-11-26-14-13-15/
REMARK  4 active torsions:
REMARK  status: ('A' for Active; 'I' for Inactive)
REMARK    1  A    between atoms: C_2  and  N_7
REMARK    2  A    between atoms: N_7  and  C_8
REMARK    3  A    between atoms: N_7  and  C_14
REMARK    4  A    between atoms: C_14  and  C_15
REMARK                            x       y       z     vdW  Elec       q    Type
REMARK                         _______ _______ _______ _____ _____    ______ ____
ROOT
ATOM      1  N   UNL A   1     -29.977  -0.829  29.850  0.00  0.00    -0.282 N 
ENDROOT
BRANCH   1   3
ATOM      2  C   UNL A   1     -28.016  -0.814  28.878  0.00  0.00    +0.015 A 
ATOM      3  C   UNL A   1     -28.469  -0.785  29.829  0.00  0.00    +0.052 A 
ATOM      4  C   UNL A   1     -26.504  -0.778  28.877  0.00  0.00    +0.001 A 
ATOM      5  C   UNL A   1     -25.810  -0.853  30.103  0.00  0.00    +0.000 A 
ATOM      6  C   UNL A   1     -27.991  -0.892  31.226  0.00  0.00    +0.015 A 
ATOM      7  C   UNL A   1     -26.604  -0.868  31.265  0.00  0.00    +0.001 A 
ENDBRANCH   1   3
BRANCH   1   8
ATOM      8  C   UNL A   1     -30.739  -1.644  30.346  0.00  0.00    +0.052 A 
ATOM      9  C   UNL A   1     -31.371  -2.365  30.034  0.00  0.00    +0.015 A 
ATOM     10  C   UNL A   1     -32.170  -3.414  30.767  0.00  0.00    +0.001 A 
ATOM     11  C   UNL A   1     -31.991  -3.357  32.147  0.00  0.00    +0.000 A 
ATOM     12  C   UNL A   1     -31.140  -2.506  32.717  0.00  0.00    +0.001 A 
ATOM     13  C   UNL A   1     -30.400  -1.639  31.946  0.00  0.00    +0.015 A 
ENDBRANCH   1   8
BRANCH   1  14
ATOM     14  C   UNL A   1     -30.569   0.173  28.978  0.00  0.00    +0.121 C 
BRANCH  14  15
ATOM     15  C   UNL A   1     -31.210   1.116  29.535  0.00  0.00    -0.009 C 
ATOM     16  C   UNL A   1     -31.009   1.856  30.346  0.00  0.00    -0.029 C 
ATOM     17  C   UNL A   1     -31.814   2.966  30.875  0.00  0.00    +0.030 C 
ENDBRANCH  14  15
ENDBRANCH   1  14
TORSDOF 4
