MODEL 2854
MODEL 1
REMARK VINA RESULT:    -6.941      0.000      0.000
REMARK INTER + INTRA:          -9.342
REMARK INTER:                  -8.564
REMARK INTRA:                  -0.778
REMARK UNBOUND:                -0.778
REMARK  Name = No_2854-gen_results/8p0m/2024-11-26-14-13-15/
REMARK  4 active torsions:
REMARK  status: ('A' for Active; 'I' for Inactive)
REMARK    1  A    between atoms: C_2  and  N_7
REMARK    2  A    between atoms: N_7  and  C_8
REMARK    3  A    between atoms: N_7  and  C_14
REMARK    4  A    between atoms: C_14  and  C_15
REMARK                            x       y       z     vdW  Elec       q    Type
REMARK                         _______ _______ _______ _____ _____    ______ ____
ROOT
ATOM      1  N   UNL A   1     -23.730  -1.187  29.346  0.00  0.00    -0.282 N 
ENDROOT
BRANCH   1   3
ATOM      2  C   UNL A   1     -23.754  -3.317  28.840  0.00  0.00    +0.015 A 
ATOM      3  C   UNL A   1     -24.325  -2.574  29.321  0.00  0.00    +0.052 A 
ATOM      4  C   UNL A   1     -24.370  -4.698  28.817  0.00  0.00    +0.001 A 
ATOM      5  C   UNL A   1     -25.687  -4.875  29.291  0.00  0.00    +0.000 A 
ATOM      6  C   UNL A   1     -25.704  -2.487  29.853  0.00  0.00    +0.015 A 
ATOM      7  C   UNL A   1     -26.306  -3.737  29.843  0.00  0.00    +0.001 A 
ENDBRANCH   1   3
BRANCH   1   8
ATOM      8  C   UNL A   1     -23.698  -0.323  28.483  0.00  0.00    +0.052 A 
ATOM      9  C   UNL A   1     -24.351   0.178  27.901  0.00  0.00    +0.015 A 
ATOM     10  C   UNL A   1     -24.193   1.340  26.952  0.00  0.00    +0.001 A 
ATOM     11  C   UNL A   1     -22.879   1.795  26.875  0.00  0.00    +0.000 A 
ATOM     12  C   UNL A   1     -21.907   1.285  27.629  0.00  0.00    +0.001 A 
ATOM     13  C   UNL A   1     -22.176   0.273  28.521  0.00  0.00    +0.015 A 
ENDBRANCH   1   8
BRANCH   1  14
ATOM     14  C   UNL A   1     -22.923  -0.956  30.533  0.00  0.00    +0.121 C 
BRANCH  14  15
ATOM     15  C   UNL A   1     -23.541  -0.809  31.631  0.00  0.00    -0.009 C 
ATOM     16  C   UNL A   1     -23.482  -1.253  32.653  0.00  0.00    -0.029 C 
ATOM     17  C   UNL A   1     -24.218  -0.956  33.890  0.00  0.00    +0.030 C 
ENDBRANCH  14  15
ENDBRANCH   1  14
TORSDOF 4
ENDMDL
ENDMDL
