MODEL 2855
MODEL 1
REMARK VINA RESULT:    -6.819      0.000      0.000
REMARK INTER + INTRA:          -8.653
REMARK INTER:                  -8.015
REMARK INTRA:                  -0.638
REMARK UNBOUND:                -0.638
REMARK  Name = No_2855-gen_results/8p0m/2024-11-26-14-13-15/
REMARK  3 active torsions:
REMARK  status: ('A' for Active; 'I' for Inactive)
REMARK    1  A    between atoms: C_3  and  C_7
REMARK    2  A    between atoms: C_7  and  C_8
REMARK    3  A    between atoms: C_12  and  C_15
REMARK                            x       y       z     vdW  Elec       q    Type
REMARK                         _______ _______ _______ _____ _____    ______ ____
ROOT
ATOM      1  C   UNL A   1     -23.644  -1.403  29.748  0.00  0.00    +0.196 C 
ATOM      2  O   UNL A   1     -23.257  -1.051  30.929  0.00  0.00    -0.287 OA
ENDROOT
BRANCH   1   5
ATOM      3  C   UNL A   1     -24.277   0.056  27.736  0.00  0.00    +0.003 A 
ATOM      4  C   UNL A   1     -23.986   0.818  27.069  0.00  0.00    +0.000 A 
ATOM      5  C   UNL A   1     -23.341  -0.362  28.707  0.00  0.00    +0.039 A 
ATOM      6  C   UNL A   1     -22.077   0.188  28.788  0.00  0.00    +0.003 A 
ATOM      7  C   UNL A   1     -22.719   1.564  26.943  0.00  0.00    +0.000 A 
ATOM      8  C   UNL A   1     -21.793   1.193  27.855  0.00  0.00    +0.000 A 
ENDBRANCH   1   5
BRANCH   1   9
ATOM      9  C   UNL A   1     -24.376  -2.353  29.445  0.00  0.00    +0.039 A 
ATOM     10  C   UNL A   1     -23.778  -3.595  28.884  0.00  0.00    +0.003 A 
ATOM     11  C   UNL A   1     -24.497  -4.804  28.853  0.00  0.00    +0.000 A 
ATOM     12  C   UNL A   1     -25.827  -4.853  29.367  0.00  0.00    +0.003 A 
ATOM     13  C   UNL A   1     -26.372  -3.649  29.911  0.00  0.00    +0.042 A 
ATOM     14  C   UNL A   1     -25.663  -2.491  30.018  0.00  0.00    +0.006 A 
BRANCH  13  15
ATOM     15  C   UNL A   1     -27.767  -3.838  30.424  0.00  0.00    +0.234 C 
ATOM     16  O   UNL A   1     -28.480  -2.976  30.226  0.00  0.00    -0.283 OA
ENDBRANCH  13  15
ENDBRANCH   1   9
TORSDOF 3
ENDMDL
ENDMDL
