MODEL 2856
MODEL 1
REMARK VINA RESULT:    -4.956      0.000      0.000
REMARK INTER + INTRA:          -5.282
REMARK INTER:                  -5.246
REMARK INTRA:                  -0.037
REMARK UNBOUND:                -0.037
REMARK  Name = No_2856-gen_results/8p0m/2024-11-26-14-13-15/
REMARK  1 active torsions:
REMARK  status: ('A' for Active; 'I' for Inactive)
REMARK    1  A    between atoms: C_2  and  C_7
REMARK                            x       y       z     vdW  Elec       q    Type
REMARK                         _______ _______ _______ _____ _____    ______ ____
ROOT
ATOM      1  C   UNL A   1     -28.892 -10.447  32.791  0.00  0.00    +0.007 A 
ATOM      2  C   UNL A   1     -28.161 -11.173  32.571  0.00  0.00    +0.080 A 
ATOM      3  C   UNL A   1     -29.783 -10.050  31.635  0.00  0.00    +0.000 A 
ATOM      4  C   UNL A   1     -29.685 -10.750  30.415  0.00  0.00    +0.000 A 
ATOM      5  C   UNL A   1     -27.874 -12.063  31.423  0.00  0.00    +0.007 A 
ATOM      6  C   UNL A   1     -28.678 -11.732  30.342  0.00  0.00    +0.000 A 
ENDROOT
BRANCH   2   7
ATOM      7  C   UNL A   1     -27.210 -11.624  33.784  0.00  0.00    +0.388 C 
ATOM      8  O   UNL A   1     -27.060 -10.811  34.765  0.00  0.00    -0.241 OA
ATOM      9  O   UNL A   1     -26.739 -12.775  33.725  0.00  0.00    -0.241 OA
ENDBRANCH   2   7
TORSDOF 1
ENDMDL
ENDMDL
