MODEL 2857
MODEL 1
REMARK VINA RESULT:    -4.278      0.000      0.000
REMARK INTER + INTRA:          -4.278
REMARK INTER:                  -4.278
REMARK INTRA:                   0.000
REMARK UNBOUND:                 0.000
REMARK  Name = No_2857-gen_results/8p0m/2024-11-26-14-13-15/
REMARK  0 active torsions:
REMARK  status: ('A' for Active; 'I' for Inactive)
REMARK                            x       y       z     vdW  Elec       q    Type
REMARK                         _______ _______ _______ _____ _____    ______ ____
ROOT
ATOM      1  C   UNL A   1     -24.110  -4.858  28.605  0.00  0.00    +0.000 A 
ATOM      2  C   UNL A   1     -24.992  -5.286  28.993  0.00  0.00    +0.000 A 
ATOM      3  C   UNL A   1     -24.059  -3.403  28.737  0.00  0.00    +0.000 A 
ATOM      4  C   UNL A   1     -25.068  -2.687  29.333  0.00  0.00    +0.000 A 
ATOM      5  C   UNL A   1     -26.194  -4.792  29.664  0.00  0.00    +0.000 A 
ATOM      6  C   UNL A   1     -26.154  -3.384  29.797  0.00  0.00    +0.000 A 
ENDROOT
TORSDOF 0
ENDMDL
ENDMDL
