MODEL 2858
MODEL 1
REMARK VINA RESULT:    -8.433      0.000      0.000
REMARK INTER + INTRA:         -11.920
REMARK INTER:                 -10.405
REMARK INTRA:                  -1.515
REMARK UNBOUND:                -1.515
REMARK  Name = No_2858-gen_results/8p0m/2024-11-26-14-13-15/
REMARK  4 active torsions:
REMARK  status: ('A' for Active; 'I' for Inactive)
REMARK    1  A    between atoms: C_3  and  C_15
REMARK    2  A    between atoms: C_4  and  C_21
REMARK    3  A    between atoms: C_21  and  C_22
REMARK    4  A    between atoms: C_22  and  C_23
REMARK                            x       y       z     vdW  Elec       q    Type
REMARK                         _______ _______ _______ _____ _____    ______ ____
ROOT
ATOM      1  N   UNL A   1     -26.280  -0.186  26.836  0.00  0.00    -0.245 NA
ATOM      2  C   UNL A   1     -25.335   0.232  27.089  0.00  0.00    +0.081 A 
ATOM      3  C   UNL A   1     -24.584  -0.317  28.071  0.00  0.00    +0.014 A 
ATOM      4  C   UNL A   1     -23.308   0.234  28.620  0.00  0.00    -0.021 A 
ATOM      5  C   UNL A   1     -22.950   1.478  28.073  0.00  0.00    -0.004 A 
ATOM      6  C   UNL A   1     -23.771   2.101  27.107  0.00  0.00    +0.001 A 
ATOM      7  C   UNL A   1     -24.949   1.563  26.667  0.00  0.00    +0.018 A 
ATOM      8  C   UNL A   1     -27.020   0.511  25.757  0.00  0.00    +0.081 A 
ATOM      9  C   UNL A   1     -28.339   0.009  25.370  0.00  0.00    +0.019 A 
ATOM     10  C   UNL A   1     -26.646   1.755  25.236  0.00  0.00    +0.018 A 
ATOM     11  C   UNL A   1     -25.610   2.292  25.687  0.00  0.00    +0.003 A 
ATOM     12  C   UNL A   1     -29.202   0.916  24.604  0.00  0.00    +0.002 A 
ATOM     13  C   UNL A   1     -28.781   2.042  24.013  0.00  0.00    +0.000 A 
ATOM     14  C   UNL A   1     -27.574   2.512  24.389  0.00  0.00    +0.002 A 
ENDROOT
BRANCH   3  15
ATOM     15  C   UNL A   1     -24.882  -1.644  28.693  0.00  0.00    +0.001 A 
ATOM     16  C   UNL A   1     -24.272  -2.736  28.378  0.00  0.00    +0.000 A 
ATOM     17  C   UNL A   1     -24.787  -3.947  28.815  0.00  0.00    +0.000 A 
ATOM     18  C   UNL A   1     -26.035  -3.913  29.574  0.00  0.00    +0.000 A 
ATOM     19  C   UNL A   1     -26.507  -2.698  30.009  0.00  0.00    +0.000 A 
ATOM     20  C   UNL A   1     -26.030  -1.517  29.535  0.00  0.00    +0.000 A 
ENDBRANCH   3  15
BRANCH   4  21
ATOM     21  C   UNL A   1     -22.489  -0.395  29.606  0.00  0.00    +0.027 C 
ATOM     22  C   UNL A   1     -21.246  -0.642  28.913  0.00  0.00    +0.005 C 
BRANCH  21  23
ATOM     23  C   UNL A   1     -22.673  -0.293  30.689  0.00  0.00    +0.032 C 
BRANCH  23  24
ATOM     24  C   UNL A   1     -23.337  -0.308  31.673  0.00  0.00    -0.003 A 
ATOM     25  C   UNL A   1     -24.439   0.641  31.873  0.00  0.00    -0.001 A 
ATOM     26  C   UNL A   1     -25.312   0.555  33.027  0.00  0.00    +0.020 A 
ATOM     27  C   UNL A   1     -23.438  -1.241  32.829  0.00  0.00    +0.095 A 
ATOM     28  N   UNL A   1     -24.128  -1.222  33.839  0.00  0.00    -0.243 NA
ATOM     29  C   UNL A   1     -25.091  -0.285  34.005  0.00  0.00    +0.099 A 
ENDBRANCH  23  24
ENDBRANCH  21  23
ENDBRANCH   4  21
TORSDOF 4
ENDMDL
ENDMDL
