MODEL 2859
MODEL 1
REMARK VINA RESULT:    -4.382      0.000      0.000
REMARK INTER + INTRA:          -4.382
REMARK INTER:                  -4.382
REMARK INTRA:                   0.000
REMARK UNBOUND:                 0.000
REMARK  Name = No_2859-gen_results/8p0m/2024-11-26-14-13-15/
REMARK  0 active torsions:
REMARK  status: ('A' for Active; 'I' for Inactive)
REMARK                            x       y       z     vdW  Elec       q    Type
REMARK                         _______ _______ _______ _____ _____    ______ ____
ROOT
ATOM      1  C   UNL A   1     -25.373  -2.604  29.823  0.00  0.00    +0.011 A 
ATOM      2  C   UNL A   1     -24.358  -2.950  29.264  0.00  0.00    +0.058 A 
ATOM      3  C   UNL A   1     -24.050  -4.139  28.830  0.00  0.00    +0.011 A 
ATOM      4  C   UNL A   1     -24.993  -5.192  29.031  0.00  0.00    +0.001 A 
ATOM      5  C   UNL A   1     -26.426  -3.592  29.960  0.00  0.00    +0.001 A 
ATOM      6  C   UNL A   1     -26.185  -4.840  29.558  0.00  0.00    +0.000 A 
ATOM      7 CL   UNL A   1     -23.092  -1.746  28.962  0.00  0.00    -0.082 Cl
ENDROOT
TORSDOF 0
ENDMDL
ENDMDL
