MODEL 285
MODEL 1
REMARK VINA RESULT:    -6.513      0.000      0.000
REMARK INTER + INTRA:          -7.215
REMARK INTER:                  -6.894
REMARK INTRA:                  -0.321
REMARK UNBOUND:                -0.321
REMARK  Name = No_285-gen_results/8p0m/2024-11-26-14-13-15/
REMARK  1 active torsions:
REMARK  status: ('A' for Active; 'I' for Inactive)
REMARK    1  A    between atoms: C_3  and  C_7
REMARK                            x       y       z     vdW  Elec       q    Type
REMARK                         _______ _______ _______ _____ _____    ______ ____
ROOT
ATOM      1  C   UNL A   1     -24.762  -4.946  28.889  0.00  0.00    +0.000 A 
ATOM      2  C   UNL A   1     -24.118  -3.946  28.670  0.00  0.00    +0.000 A 
ATOM      3  C   UNL A   1     -24.523  -2.668  29.054  0.00  0.00    +0.000 A 
ATOM      4  C   UNL A   1     -25.810  -2.500  29.700  0.00  0.00    +0.000 A 
ATOM      5  C   UNL A   1     -26.528  -3.676  29.915  0.00  0.00    +0.000 A 
ATOM      6  C   UNL A   1     -26.074  -4.845  29.508  0.00  0.00    +0.000 A 
ENDROOT
BRANCH   3   7
ATOM      7  C   UNL A   1     -23.781  -1.394  28.827  0.00  0.00    +0.000 A 
ATOM      8  C   UNL A   1     -22.536  -1.188  29.185  0.00  0.00    +0.000 A 
ATOM      9  C   UNL A   1     -21.877   0.035  28.921  0.00  0.00    +0.000 A 
ATOM     10  C   UNL A   1     -22.438   0.892  27.933  0.00  0.00    +0.000 A 
ATOM     11  C   UNL A   1     -24.299  -0.400  27.921  0.00  0.00    +0.000 A 
ATOM     12  C   UNL A   1     -23.652   0.686  27.529  0.00  0.00    +0.000 A 
ENDBRANCH   3   7
TORSDOF 1
ENDMDL
ENDMDL
