REMARK  Name = No_286-gen_results/8p0m/2024-11-26-14-13-15/
REMARK  3 active torsions:
REMARK  status: ('A' for Active; 'I' for Inactive)
REMARK    1  A    between atoms: C_3  and  C_4
REMARK    2  A    between atoms: C_4  and  C_8
REMARK    3  A    between atoms: C_9  and  C_10
REMARK                            x       y       z     vdW  Elec       q    Type
REMARK                         _______ _______ _______ _____ _____    ______ ____
ROOT
ATOM      1  C   UNL A   1     -28.016  -0.814  28.878  0.00  0.00    -0.004 A 
ATOM      2  C   UNL A   1     -28.469  -0.785  29.829  0.00  0.00    -0.000 A 
ATOM      3  C   UNL A   1     -27.087   0.290  28.638  0.00  0.00    -0.018 A 
ATOM      4  C   UNL A   1     -27.886  -0.505  31.094  0.00  0.00    -0.000 A 
ATOM      5  C   UNL A   1     -26.929   0.593  31.074  0.00  0.00    -0.000 A 
ATOM      6  C   UNL A   1     -26.523   0.955  29.801  0.00  0.00    -0.004 A 
ENDROOT
BRANCH   3   7
ATOM      7  C   UNL A   1     -26.910   0.849  27.420  0.00  0.00    +0.052 C 
BRANCH   7   8
ATOM      8  C   UNL A   1     -25.721   0.506  26.863  0.00  0.00    -0.021 C 
ATOM      9  C   UNL A   1     -24.632   1.194  27.006  0.00  0.00    -0.005 C 
BRANCH   9  10
ATOM     10  C   UNL A   1     -23.865   1.482  28.088  0.00  0.00    -0.005 C 
ATOM     11  C   UNL A   1     -22.629   2.138  28.016  0.00  0.00    -0.026 C 
ATOM     12  C   UNL A   1     -22.058   2.301  26.707  0.00  0.00    +0.031 C 
ENDBRANCH   9  10
ENDBRANCH   7   8
ENDBRANCH   3   7
TORSDOF 3
