REMARK  Name = No_2860-gen_results/8p0m/2024-11-26-14-13-15/
REMARK  2 active torsions:
REMARK  status: ('A' for Active; 'I' for Inactive)
REMARK    1  A    between atoms: C_5  and  C_12
REMARK    2  A    between atoms: N_9  and  C_11
REMARK                            x       y       z     vdW  Elec       q    Type
REMARK                         _______ _______ _______ _____ _____    ______ ____
ROOT
ATOM      1  C   UNL A   1     -28.016  -0.814  28.878  0.00  0.00    +0.048 C 
ATOM      2  C   UNL A   1     -27.064  -0.119  28.608  0.00  0.00    -0.023 A 
ATOM      3  C   UNL A   1     -26.876   1.133  28.913  0.00  0.00    -0.006 A 
ATOM      4  C   UNL A   1     -25.688   1.952  28.567  0.00  0.00    +0.004 A 
ATOM      5  C   UNL A   1     -24.639   1.283  27.875  0.00  0.00    +0.080 A 
ATOM      6  C   UNL A   1     -24.807  -0.051  27.604  0.00  0.00    +0.006 A 
ATOM      7  C   UNL A   1     -25.902  -0.767  27.951  0.00  0.00    -0.004 A 
ATOM      8  C   UNL A   1     -28.639  -0.512  30.240  0.00  0.00    +0.096 C 
ATOM      9  N   UNL A   1     -28.930   0.778  30.447  0.00  0.00    -0.302 N 
ATOM     10  C   UNL A   1     -27.742   1.629  30.110  0.00  0.00    +0.117 C 
ENDROOT
BRANCH   9  11
ATOM     11  C   UNL A   1     -30.063   1.339  30.920  0.00  0.00    +0.057 C 
ATOM     12  C   UNL A   1     -31.086   1.304  30.437  0.00  0.00    -0.010 C 
ATOM     13  C   UNL A   1     -32.285   1.865  30.965  0.00  0.00    +0.032 C 
ENDBRANCH   9  11
BRANCH   5  14
ATOM     14  C   UNL A   1     -23.477   1.996  27.370  0.00  0.00    +0.388 C 
ATOM     15  O   UNL A   1     -22.336   1.699  27.720  0.00  0.00    -0.241 OA
ATOM     16  O   UNL A   1     -23.714   3.224  26.908  0.00  0.00    -0.241 OA
ENDBRANCH   5  14
TORSDOF 2
