MODEL 2861
MODEL 1
REMARK VINA RESULT:    -6.733      0.000      0.000
REMARK INTER + INTRA:          -9.021
REMARK INTER:                  -8.307
REMARK INTRA:                  -0.714
REMARK UNBOUND:                -0.714
REMARK  Name = No_2861-gen_results/8p0m/2024-11-26-14-13-15/
REMARK  4 active torsions:
REMARK  status: ('A' for Active; 'I' for Inactive)
REMARK    1  A    between atoms: C_2  and  C_14
REMARK    2  A    between atoms: C_3  and  C_4
REMARK    3  A    between atoms: C_4  and  C_8
REMARK    4  A    between atoms: C_9  and  O_17
REMARK                            x       y       z     vdW  Elec       q    Type
REMARK                         _______ _______ _______ _____ _____    ______ ____
ROOT
ATOM      1  C   UNL A   1     -23.802   0.366  27.962  0.00  0.00    +0.003 A 
ATOM      2  C   UNL A   1     -23.778   0.873  27.039  0.00  0.00    +0.080 A 
ATOM      3  C   UNL A   1     -24.980  -0.561  28.164  0.00  0.00    -0.018 A 
ATOM      4  C   UNL A   1     -24.553   0.698  25.804  0.00  0.00    +0.007 A 
ATOM      5  C   UNL A   1     -25.631  -0.156  25.901  0.00  0.00    -0.000 A 
ATOM      6  C   UNL A   1     -25.870  -0.840  27.065  0.00  0.00    -0.004 A 
ENDROOT
BRANCH   2   7
ATOM      7  C   UNL A   1     -22.562   1.870  26.817  0.00  0.00    +0.388 C 
ATOM      8  O   UNL A   1     -22.105   2.179  25.815  0.00  0.00    -0.241 OA
ATOM      9  O   UNL A   1     -22.037   2.262  27.937  0.00  0.00    -0.241 OA
ENDBRANCH   2   7
BRANCH   3  10
ATOM     10  C   UNL A   1     -25.323  -1.253  29.381  0.00  0.00    +0.056 C 
BRANCH  10  11
ATOM     11  C   UNL A   1     -25.050  -2.679  29.390  0.00  0.00    +0.016 A 
ATOM     12  C   UNL A   1     -26.168  -3.408  29.762  0.00  0.00    +0.135 A 
ATOM     13  C   UNL A   1     -26.108  -4.859  29.555  0.00  0.00    +0.037 A 
ATOM     14  C   UNL A   1     -25.003  -5.432  29.023  0.00  0.00    +0.003 A 
ATOM     15  C   UNL A   1     -23.984  -3.249  28.716  0.00  0.00    -0.001 A 
ATOM     16  C   UNL A   1     -23.960  -4.610  28.547  0.00  0.00    -0.000 A 
BRANCH  12  17
ATOM     17  O   UNL A   1     -27.268  -2.983  30.377  0.00  0.00    -0.472 OA
ATOM     18  C   UNL A   1     -28.316  -3.841  30.822  0.00  0.00    +0.253 C 
ENDBRANCH  12  17
ENDBRANCH  10  11
ENDBRANCH   3  10
TORSDOF 4
ENDMDL
ENDMDL
