REMARK  Name = No_2861-gen_results/8p0m/2024-11-26-14-13-15/
REMARK  4 active torsions:
REMARK  status: ('A' for Active; 'I' for Inactive)
REMARK    1  A    between atoms: C_2  and  C_14
REMARK    2  A    between atoms: C_3  and  C_4
REMARK    3  A    between atoms: C_4  and  C_8
REMARK    4  A    between atoms: C_9  and  O_17
REMARK                            x       y       z     vdW  Elec       q    Type
REMARK                         _______ _______ _______ _____ _____    ______ ____
ROOT
ATOM      1  C   UNL A   1     -28.016  -0.814  28.878  0.00  0.00    +0.003 A 
ATOM      2  C   UNL A   1     -28.469  -0.785  29.829  0.00  0.00    +0.080 A 
ATOM      3  C   UNL A   1     -26.504  -0.778  28.877  0.00  0.00    -0.018 A 
ATOM      4  C   UNL A   1     -27.918  -0.937  31.182  0.00  0.00    +0.007 A 
ATOM      5  C   UNL A   1     -26.542  -0.940  31.261  0.00  0.00    -0.000 A 
ATOM      6  C   UNL A   1     -25.783  -0.893  30.120  0.00  0.00    -0.004 A 
ENDROOT
BRANCH   2   7
ATOM      7  C   UNL A   1     -30.057  -0.797  29.851  0.00  0.00    +0.388 C 
ATOM      8  O   UNL A   1     -30.728  -1.607  30.299  0.00  0.00    -0.241 OA
ATOM      9  O   UNL A   1     -30.565   0.204  29.201  0.00  0.00    -0.241 OA
ENDBRANCH   2   7
BRANCH   3  10
ATOM     10  C   UNL A   1     -25.654  -0.660  27.719  0.00  0.00    +0.056 C 
BRANCH  10  11
ATOM     11  C   UNL A   1     -25.220   0.687  27.394  0.00  0.00    +0.016 A 
ATOM     12  C   UNL A   1     -23.901   0.898  27.760  0.00  0.00    +0.135 A 
ATOM     13  C   UNL A   1     -23.262   2.117  27.251  0.00  0.00    +0.037 A 
ATOM     14  C   UNL A   1     -23.951   2.975  26.462  0.00  0.00    +0.003 A 
ATOM     15  C   UNL A   1     -25.872   1.489  26.473  0.00  0.00    -0.001 A 
ATOM     16  C   UNL A   1     -25.245   2.624  26.024  0.00  0.00    -0.000 A 
BRANCH  12  17
ATOM     17  O   UNL A   1     -23.150   0.190  28.598  0.00  0.00    -0.472 OA
ATOM     18  C   UNL A   1     -22.262   0.765  29.555  0.00  0.00    +0.253 C 
ENDBRANCH  12  17
ENDBRANCH  10  11
ENDBRANCH   3  10
TORSDOF 4
