REMARK  Name = No_2862-gen_results/8p0m/2024-11-26-14-13-15/
REMARK  3 active torsions:
REMARK  status: ('A' for Active; 'I' for Inactive)
REMARK    1  A    between atoms: N_14  and  C_15
REMARK    2  A    between atoms: C_15  and  C_16
REMARK    3  A    between atoms: C_16  and  C_18
REMARK                            x       y       z     vdW  Elec       q    Type
REMARK                         _______ _______ _______ _____ _____    ______ ____
ROOT
ATOM      1  C   UNL A   1     -28.016  -0.814  28.878  0.00  0.00    -0.003 A 
ATOM      2  C   UNL A   1     -28.469  -0.785  29.829  0.00  0.00    -0.000 A 
ATOM      3  C   UNL A   1     -27.136   0.236  28.535  0.00  0.00    -0.004 A 
ATOM      4  C   UNL A   1     -26.335   0.290  27.284  0.00  0.00    +0.055 C 
ATOM      5  C   UNL A   1     -28.369   0.196  30.924  0.00  0.00    +0.001 A 
ATOM      6  C   UNL A   1     -27.516   1.266  30.654  0.00  0.00    +0.015 A 
ATOM      7  C   UNL A   1     -26.841   1.294  29.476  0.00  0.00    +0.048 A 
ATOM      8  C   UNL A   1     -25.677   1.520  26.977  0.00  0.00    -0.004 A 
ATOM      9  C   UNL A   1     -24.651   1.554  26.210  0.00  0.00    -0.003 A 
ATOM     10  C   UNL A   1     -23.884   2.893  26.098  0.00  0.00    -0.000 A 
ATOM     11  C   UNL A   1     -24.371   4.001  26.816  0.00  0.00    +0.001 A 
ATOM     12  C   UNL A   1     -25.515   3.880  27.545  0.00  0.00    +0.015 A 
ATOM     13  C   UNL A   1     -26.126   2.635  27.753  0.00  0.00    +0.048 A 
ATOM     14  N   UNL A   1     -26.782   2.534  28.941  0.00  0.00    -0.286 N 
ENDROOT
BRANCH  14  15
ATOM     15  C   UNL A   1     -27.226   3.732  29.584  0.00  0.00    +0.113 C 
BRANCH  15  16
ATOM     16  C   UNL A   1     -26.413   4.186  30.622  0.00  0.00    +0.119 C 
ATOM     17 CL   UNL A   1     -25.355   3.392  31.280  0.00  0.00    -0.112 Cl
BRANCH  16  18
ATOM     18  C   UNL A   1     -26.468   5.667  30.849  0.00  0.00    +0.127 C 
ATOM     19  N   UNL A   1     -25.609   6.171  31.631  0.00  0.00    -0.130 NA
ENDBRANCH  16  18
ENDBRANCH  15  16
ENDBRANCH  14  15
TORSDOF 3
