MODEL 2862
MODEL 1
REMARK VINA RESULT:    -6.849      0.000      0.000
REMARK INTER + INTRA:          -8.322
REMARK INTER:                  -8.050
REMARK INTRA:                  -0.272
REMARK UNBOUND:                -0.272
REMARK  Name = No_2862-gen_results/8p0m/2024-11-26-14-13-15/
REMARK  3 active torsions:
REMARK  status: ('A' for Active; 'I' for Inactive)
REMARK    1  A    between atoms: N_14  and  C_15
REMARK    2  A    between atoms: C_15  and  C_16
REMARK    3  A    between atoms: C_16  and  C_18
REMARK                            x       y       z     vdW  Elec       q    Type
REMARK                         _______ _______ _______ _____ _____    ______ ____
ROOT
ATOM      1  C   UNL A   1     -26.956  -0.111  31.526  0.00  0.00    -0.003 A 
ATOM      2  C   UNL A   1     -26.416   0.724  31.877  0.00  0.00    -0.000 A 
ATOM      3  C   UNL A   1     -26.224  -1.178  30.962  0.00  0.00    -0.004 A 
ATOM      4  C   UNL A   1     -26.818  -2.468  30.521  0.00  0.00    +0.055 C 
ATOM      5  C   UNL A   1     -24.972   1.016  31.882  0.00  0.00    +0.001 A 
ATOM      6  C   UNL A   1     -24.184   0.003  31.335  0.00  0.00    +0.015 A 
ATOM      7  C   UNL A   1     -24.779  -1.139  30.904  0.00  0.00    +0.048 A 
ATOM      8  C   UNL A   1     -25.989  -3.348  29.761  0.00  0.00    -0.004 A 
ATOM      9  C   UNL A   1     -26.222  -4.607  29.713  0.00  0.00    -0.003 A 
ATOM     10  C   UNL A   1     -25.160  -5.507  29.037  0.00  0.00    -0.000 A 
ATOM     11  C   UNL A   1     -24.019  -4.893  28.488  0.00  0.00    +0.001 A 
ATOM     12  C   UNL A   1     -23.902  -3.536  28.525  0.00  0.00    +0.015 A 
ATOM     13  C   UNL A   1     -24.796  -2.741  29.257  0.00  0.00    +0.048 A 
ATOM     14  N   UNL A   1     -24.241  -1.602  29.753  0.00  0.00    -0.286 N 
ENDROOT
BRANCH  14  15
ATOM     15  C   UNL A   1     -23.076  -1.072  29.116  0.00  0.00    +0.113 C 
BRANCH  15  16
ATOM     16  C   UNL A   1     -23.316  -0.075  28.171  0.00  0.00    +0.119 C 
ATOM     17 CL   UNL A   1     -24.582   0.104  27.430  0.00  0.00    -0.112 Cl
BRANCH  16  18
ATOM     18  C   UNL A   1     -22.296   1.024  28.157  0.00  0.00    +0.127 C 
ATOM     19  N   UNL A   1     -22.721   2.216  28.129  0.00  0.00    -0.130 NA
ENDBRANCH  16  18
ENDBRANCH  15  16
ENDBRANCH  14  15
TORSDOF 3
ENDMDL
ENDMDL
