REMARK  Name = No_2863-gen_results/8p0m/2024-11-26-14-13-15/
REMARK  1 active torsions:
REMARK  status: ('A' for Active; 'I' for Inactive)
REMARK    1  A    between atoms: C_4  and  C_8
REMARK                            x       y       z     vdW  Elec       q    Type
REMARK                         _______ _______ _______ _____ _____    ______ ____
ROOT
ATOM      1  C   UNL A   1     -28.016  -0.814  28.878  0.00  0.00    +0.011 A 
ATOM      2  C   UNL A   1     -28.469  -0.785  29.829  0.00  0.00    +0.058 A 
ATOM      3  C   UNL A   1     -26.546  -0.876  28.850  0.00  0.00    +0.001 A 
ATOM      4  C   UNL A   1     -25.897  -0.827  29.889  0.00  0.00    +0.000 A 
ATOM      5  C   UNL A   1     -27.913  -0.839  31.194  0.00  0.00    +0.011 A 
ATOM      6  C   UNL A   1     -26.552  -0.832  31.177  0.00  0.00    +0.001 A 
ATOM      7 CL   UNL A   1     -30.287  -0.793  29.926  0.00  0.00    -0.082 Cl
ENDROOT
BRANCH   4   8
ATOM      8  C   UNL A   1     -24.372  -0.862  29.932  0.00  0.00    +0.000 A 
ATOM      9  C   UNL A   1     -23.639  -1.504  30.305  0.00  0.00    +0.000 A 
ATOM     10  C   UNL A   1     -23.796   0.349  29.171  0.00  0.00    +0.000 A 
ATOM     11  C   UNL A   1     -22.410   0.426  29.057  0.00  0.00    +0.000 A 
ATOM     12  C   UNL A   1     -22.195  -1.559  30.351  0.00  0.00    +0.000 A 
ATOM     13  C   UNL A   1     -21.619  -0.506  29.644  0.00  0.00    +0.000 A 
ENDBRANCH   4   8
TORSDOF 1
