MODEL 2863
MODEL 1
REMARK VINA RESULT:    -6.767      0.000      0.000
REMARK INTER + INTRA:          -7.505
REMARK INTER:                  -7.162
REMARK INTRA:                  -0.343
REMARK UNBOUND:                -0.343
REMARK  Name = No_2863-gen_results/8p0m/2024-11-26-14-13-15/
REMARK  1 active torsions:
REMARK  status: ('A' for Active; 'I' for Inactive)
REMARK    1  A    between atoms: C_4  and  C_8
REMARK                            x       y       z     vdW  Elec       q    Type
REMARK                         _______ _______ _______ _____ _____    ______ ____
ROOT
ATOM      1  C   UNL A   1     -21.791  -0.118  28.809  0.00  0.00    +0.011 A 
ATOM      2  C   UNL A   1     -22.223   0.588  28.157  0.00  0.00    +0.058 A 
ATOM      3  C   UNL A   1     -22.628  -1.271  29.179  0.00  0.00    +0.001 A 
ATOM      4  C   UNL A   1     -23.789  -1.352  28.793  0.00  0.00    +0.000 A 
ATOM      5  C   UNL A   1     -23.531   0.641  27.477  0.00  0.00    +0.011 A 
ATOM      6  C   UNL A   1     -24.334  -0.388  27.864  0.00  0.00    +0.001 A 
ATOM      7 CL   UNL A   1     -21.204   1.990  27.598  0.00  0.00    -0.082 Cl
ENDROOT
BRANCH   4   8
ATOM      8  C   UNL A   1     -24.720  -2.504  29.158  0.00  0.00    +0.000 A 
ATOM      9  C   UNL A   1     -25.689  -2.607  29.531  0.00  0.00    +0.000 A 
ATOM     10  C   UNL A   1     -24.045  -3.851  28.827  0.00  0.00    +0.000 A 
ATOM     11  C   UNL A   1     -24.796  -5.005  29.037  0.00  0.00    +0.000 A 
ATOM     12  C   UNL A   1     -26.588  -3.685  29.876  0.00  0.00    +0.000 A 
ATOM     13  C   UNL A   1     -26.044  -4.928  29.562  0.00  0.00    +0.000 A 
ENDBRANCH   4   8
TORSDOF 1
ENDMDL
ENDMDL
