MODEL 2864
MODEL 1
REMARK VINA RESULT:    -4.227      0.000      0.000
REMARK INTER + INTRA:          -4.227
REMARK INTER:                  -4.227
REMARK INTRA:                   0.000
REMARK UNBOUND:                 0.000
REMARK  Name = No_2864-gen_results/8p0m/2024-11-26-14-13-15/
REMARK  0 active torsions:
REMARK  status: ('A' for Active; 'I' for Inactive)
REMARK                            x       y       z     vdW  Elec       q    Type
REMARK                         _______ _______ _______ _____ _____    ______ ____
ROOT
ATOM      1  C   UNL A   1     -25.949  -4.881  29.606  0.00  0.00    +0.000 A 
ATOM      2  C   UNL A   1     -25.011  -5.339  28.996  0.00  0.00    +0.000 A 
ATOM      3  C   UNL A   1     -23.975  -4.524  28.554  0.00  0.00    +0.000 A 
ATOM      4  C   UNL A   1     -23.994  -3.090  28.807  0.00  0.00    +0.000 A 
ATOM      5  C   UNL A   1     -26.169  -3.438  29.765  0.00  0.00    +0.000 A 
ATOM      6  C   UNL A   1     -25.124  -2.594  29.397  0.00  0.00    +0.000 A 
ENDROOT
TORSDOF 0
ENDMDL
ENDMDL
