REMARK  Name = No_2865-gen_results/8p0m/2024-11-26-14-13-15/
REMARK  1 active torsions:
REMARK  status: ('A' for Active; 'I' for Inactive)
REMARK    1  A    between atoms: C_3  and  C_4
REMARK                            x       y       z     vdW  Elec       q    Type
REMARK                         _______ _______ _______ _____ _____    ______ ____
ROOT
ATOM      1  C   UNL A   1     -25.695  -0.030  28.126  0.00  0.00    +0.003 A 
ATOM      2  C   UNL A   1     -24.260   0.138  28.360  0.00  0.00    +0.000 A 
ATOM      3  C   UNL A   1     -23.351   0.933  27.595  0.00  0.00    +0.000 A 
ATOM      4  C   UNL A   1     -22.009   1.197  28.002  0.00  0.00    +0.000 A 
ATOM      5  C   UNL A   1     -21.460   0.337  28.920  0.00  0.00    +0.000 A 
ATOM      6  C   UNL A   1     -23.549  -0.595  29.415  0.00  0.00    +0.000 A 
ATOM      7  C   UNL A   1     -22.236  -0.493  29.671  0.00  0.00    +0.000 A 
ATOM      8  C   UNL A   1     -23.982   1.797  26.564  0.00  0.00    +0.000 A 
ATOM      9  C   UNL A   1     -25.352   1.538  26.230  0.00  0.00    +0.000 A 
ATOM     10  C   UNL A   1     -26.149   0.772  27.027  0.00  0.00    +0.000 A 
ENDROOT
BRANCH   1  13
ATOM     11  C   UNL A   1     -28.016  -0.814  28.878  0.00  0.00    +0.174 C 
ATOM     12 BR   UNL A   1     -28.595  -0.993  29.889  0.00  0.00    -0.017 Br
ATOM     13  C   UNL A   1     -26.525  -0.701  29.026  0.00  0.00    +0.037 C 
ATOM     14  F   UNL A   1     -28.313  -0.428  27.710  0.00  0.00    -0.197 F 
ENDBRANCH   1  13
TORSDOF 1
