MODEL 2866
MODEL 1
REMARK VINA RESULT:    -7.598      0.000      0.000
REMARK INTER + INTRA:         -10.604
REMARK INTER:                  -9.819
REMARK INTRA:                  -0.786
REMARK UNBOUND:                -0.786
REMARK  Name = No_2866-gen_results/8p0m/2024-11-26-14-13-15/
REMARK  5 active torsions:
REMARK  status: ('A' for Active; 'I' for Inactive)
REMARK    1  A    between atoms: C_2  and  O_7
REMARK    2  A    between atoms: C_5  and  O_14
REMARK    3  A    between atoms: O_7  and  C_8
REMARK    4  A    between atoms: O_14  and  C_15
REMARK    5  A    between atoms: C_15  and  C_16
REMARK                            x       y       z     vdW  Elec       q    Type
REMARK                         _______ _______ _______ _____ _____    ______ ____
ROOT
ATOM      1  C   UNL A   1     -23.242   0.810  28.564  0.00  0.00    +0.074 A 
ATOM      2  C   UNL A   1     -22.657   1.414  27.696  0.00  0.00    +0.148 A 
ATOM      3  C   UNL A   1     -21.332   1.278  27.438  0.00  0.00    +0.038 A 
ATOM      4  C   UNL A   1     -20.587   0.380  28.226  0.00  0.00    +0.006 A 
ATOM      5  C   UNL A   1     -22.564  -0.194  29.344  0.00  0.00    +0.142 A 
ATOM      6  C   UNL A   1     -21.225  -0.349  29.144  0.00  0.00    +0.037 A 
ENDROOT
BRANCH   2   7
ATOM      7  O   UNL A   1     -23.325   2.312  26.856  0.00  0.00    -0.453 OA
BRANCH   7   8
ATOM      8  C   UNL A   1     -24.448   1.817  26.161  0.00  0.00    +0.145 A 
ATOM      9  C   UNL A   1     -24.718   0.929  25.456  0.00  0.00    +0.037 A 
ATOM     10  C   UNL A   1     -25.586   2.871  26.164  0.00  0.00    +0.037 A 
ATOM     11  C   UNL A   1     -25.851   0.538  24.823  0.00  0.00    +0.003 A 
ATOM     12  C   UNL A   1     -26.721   2.657  25.523  0.00  0.00    +0.003 A 
ATOM     13  C   UNL A   1     -26.903   1.458  24.860  0.00  0.00    +0.000 A 
ENDBRANCH   7   8
ENDBRANCH   2   7
BRANCH   5  14
ATOM     14  O   UNL A   1     -23.251  -0.902  30.259  0.00  0.00    -0.470 OA
BRANCH  14  15
ATOM     15  C   UNL A   1     -24.477  -1.286  29.979  0.00  0.00    +0.232 C 
BRANCH  15  16
ATOM     16  C   UNL A   1     -24.636  -2.601  29.584  0.00  0.00    +0.021 A 
ATOM     17  C   UNL A   1     -23.869  -3.232  28.992  0.00  0.00    -0.001 A 
ATOM     18  C   UNL A   1     -24.029  -4.649  28.568  0.00  0.00    -0.000 A 
ATOM     19  C   UNL A   1     -25.228  -5.234  28.955  0.00  0.00    -0.000 A 
ATOM     20  C   UNL A   1     -26.178  -4.560  29.662  0.00  0.00    -0.000 A 
ATOM     21  C   UNL A   1     -25.986  -3.206  30.015  0.00  0.00    -0.001 A 
ENDBRANCH  15  16
ENDBRANCH  14  15
ENDBRANCH   5  14
TORSDOF 5
ENDMDL
ENDMDL
