REMARK  Name = No_2866-gen_results/8p0m/2024-11-26-14-13-15/
REMARK  5 active torsions:
REMARK  status: ('A' for Active; 'I' for Inactive)
REMARK    1  A    between atoms: C_2  and  O_7
REMARK    2  A    between atoms: C_5  and  O_14
REMARK    3  A    between atoms: O_7  and  C_8
REMARK    4  A    between atoms: O_14  and  C_15
REMARK    5  A    between atoms: C_15  and  C_16
REMARK                            x       y       z     vdW  Elec       q    Type
REMARK                         _______ _______ _______ _____ _____    ______ ____
ROOT
ATOM      1  C   UNL A   1     -28.016  -0.814  28.878  0.00  0.00    +0.074 A 
ATOM      2  C   UNL A   1     -27.064  -0.119  28.608  0.00  0.00    +0.148 A 
ATOM      3  C   UNL A   1     -26.929   1.171  29.008  0.00  0.00    +0.038 A 
ATOM      4  C   UNL A   1     -27.956   1.741  29.784  0.00  0.00    +0.006 A 
ATOM      5  C   UNL A   1     -29.057  -0.327  29.747  0.00  0.00    +0.142 A 
ATOM      6  C   UNL A   1     -28.983   0.972  30.152  0.00  0.00    +0.037 A 
ENDROOT
BRANCH   2   7
ATOM      7  O   UNL A   1     -25.991  -0.612  27.857  0.00  0.00    -0.453 OA
BRANCH   7   8
ATOM      8  C   UNL A   1     -24.904  -1.148  28.578  0.00  0.00    +0.145 A 
ATOM      9  C   UNL A   1     -23.773  -0.924  28.749  0.00  0.00    +0.037 A 
ATOM     10  C   UNL A   1     -25.267  -2.553  29.125  0.00  0.00    +0.037 A 
ATOM     11  C   UNL A   1     -22.793  -1.518  29.473  0.00  0.00    +0.003 A 
ATOM     12  C   UNL A   1     -24.384  -3.281  29.786  0.00  0.00    +0.003 A 
ATOM     13  C   UNL A   1     -23.123  -2.764  30.015  0.00  0.00    +0.000 A 
ENDBRANCH   7   8
ENDBRANCH   2   7
BRANCH   5  14
ATOM     14  O   UNL A   1     -30.073  -1.140  30.088  0.00  0.00    -0.470 OA
BRANCH  14  15
ATOM     15  C   UNL A   1     -29.834  -2.160  30.884  0.00  0.00    +0.232 C 
BRANCH  15  16
ATOM     16  C   UNL A   1     -30.854  -2.525  31.742  0.00  0.00    +0.021 A 
ATOM     17  C   UNL A   1     -31.895  -2.027  31.813  0.00  0.00    -0.001 A 
ATOM     18  C   UNL A   1     -33.001  -2.417  32.729  0.00  0.00    -0.000 A 
ATOM     19  C   UNL A   1     -32.714  -3.499  33.551  0.00  0.00    -0.000 A 
ATOM     20  C   UNL A   1     -31.514  -4.145  33.520  0.00  0.00    -0.000 A 
ATOM     21  C   UNL A   1     -30.488  -3.715  32.650  0.00  0.00    -0.001 A 
ENDBRANCH  15  16
ENDBRANCH  14  15
ENDBRANCH   5  14
TORSDOF 5
