REMARK  Name = No_2867-gen_results/8p0m/2024-11-26-14-13-15/
REMARK  4 active torsions:
REMARK  status: ('A' for Active; 'I' for Inactive)
REMARK    1  A    between atoms: C_3  and  C_7
REMARK    2  A    between atoms: C_6  and  C_10
REMARK    3  A    between atoms: C_11  and  C_12
REMARK    4  A    between atoms: C_13  and  C_14
REMARK                            x       y       z     vdW  Elec       q    Type
REMARK                         _______ _______ _______ _____ _____    ______ ____
ROOT
ATOM      1  C   UNL A   1     -28.016  -0.814  28.878  0.00  0.00    +0.007 A 
ATOM      2  C   UNL A   1     -28.469  -0.785  29.829  0.00  0.00    +0.000 A 
ATOM      3  C   UNL A   1     -28.196   0.348  28.055  0.00  0.00    +0.080 A 
ATOM      4  C   UNL A   1     -29.019   1.350  28.378  0.00  0.00    +0.007 A 
ATOM      5  C   UNL A   1     -29.411   0.180  30.378  0.00  0.00    +0.000 A 
ATOM      6  C   UNL A   1     -29.606   1.250  29.619  0.00  0.00    +0.000 A 
ENDROOT
BRANCH   3   7
ATOM      7  C   UNL A   1     -27.448   0.380  26.712  0.00  0.00    +0.388 C 
ATOM      8  O   UNL A   1     -26.954   1.510  26.484  0.00  0.00    -0.241 OA
ATOM      9  O   UNL A   1     -26.818  -0.571  26.226  0.00  0.00    -0.241 OA
ENDBRANCH   3   7
BRANCH   6  10
ATOM     10  C   UNL A   1     -30.551   2.324  30.050  0.00  0.00    +0.000 C 
ATOM     11  C   UNL A   1     -30.099   3.087  31.013  0.00  0.00    +0.000 C 
BRANCH  11  12
ATOM     12  C   UNL A   1     -30.320   4.055  31.519  0.00  0.00    +0.000 C 
ATOM     13  C   UNL A   1     -29.684   4.788  32.658  0.00  0.00    +0.000 C 
BRANCH  13  14
ATOM     14  C   UNL A   1     -28.544   4.117  33.175  0.00  0.00    +0.000 C 
ATOM     15  C   UNL A   1     -28.108   2.916  32.624  0.00  0.00    +0.000 C 
ENDBRANCH  13  14
ENDBRANCH  11  12
ENDBRANCH   6  10
TORSDOF 4
