MODEL 2867
MODEL 1
REMARK VINA RESULT:    -6.159      0.000      0.000
REMARK INTER + INTRA:          -8.236
REMARK INTER:                  -7.599
REMARK INTRA:                  -0.637
REMARK UNBOUND:                -0.637
REMARK  Name = No_2867-gen_results/8p0m/2024-11-26-14-13-15/
REMARK  4 active torsions:
REMARK  status: ('A' for Active; 'I' for Inactive)
REMARK    1  A    between atoms: C_3  and  C_7
REMARK    2  A    between atoms: C_6  and  C_10
REMARK    3  A    between atoms: C_11  and  C_12
REMARK    4  A    between atoms: C_13  and  C_14
REMARK                            x       y       z     vdW  Elec       q    Type
REMARK                         _______ _______ _______ _____ _____    ______ ____
ROOT
ATOM      1  C   UNL A   1     -29.173 -10.115  33.138  0.00  0.00    +0.007 A 
ATOM      2  C   UNL A   1     -29.727  -9.762  32.314  0.00  0.00    +0.000 A 
ATOM      3  C   UNL A   1     -28.214 -11.147  32.862  0.00  0.00    +0.080 A 
ATOM      4  C   UNL A   1     -28.123 -11.759  31.678  0.00  0.00    +0.007 A 
ATOM      5  C   UNL A   1     -29.806 -10.285  30.958  0.00  0.00    +0.000 A 
ATOM      6  C   UNL A   1     -28.941 -11.255  30.692  0.00  0.00    +0.000 A 
ENDROOT
BRANCH   3   7
ATOM      7  C   UNL A   1     -27.312 -11.596  34.023  0.00  0.00    +0.388 C 
ATOM      8  O   UNL A   1     -26.750 -12.689  33.776  0.00  0.00    -0.241 OA
ATOM      9  O   UNL A   1     -26.667 -10.834  34.758  0.00  0.00    -0.241 OA
ENDBRANCH   3   7
BRANCH   6  10
ATOM     10  C   UNL A   1     -28.909 -11.894  29.342  0.00  0.00    +0.000 C 
ATOM     11  C   UNL A   1     -29.707 -11.342  28.463  0.00  0.00    +0.000 C 
BRANCH  11  12
ATOM     12  C   UNL A   1     -29.900 -11.328  27.366  0.00  0.00    +0.000 C 
ATOM     13  C   UNL A   1     -30.769 -10.486  26.486  0.00  0.00    +0.000 C 
BRANCH  13  14
ATOM     14  C   UNL A   1     -31.464  -9.477  27.204  0.00  0.00    +0.000 C 
ATOM     15  C   UNL A   1     -31.337  -8.135  26.860  0.00  0.00    +0.000 C 
ENDBRANCH  13  14
ENDBRANCH  11  12
ENDBRANCH   6  10
TORSDOF 4
ENDMDL
ENDMDL
