MODEL 2868
MODEL 1
REMARK VINA RESULT:    -5.632      0.000      0.000
REMARK INTER + INTRA:          -6.961
REMARK INTER:                  -6.620
REMARK INTRA:                  -0.341
REMARK UNBOUND:                -0.341
REMARK  Name = No_2868-gen_results/8p0m/2024-11-26-14-13-15/
REMARK  3 active torsions:
REMARK  status: ('A' for Active; 'I' for Inactive)
REMARK    1  A    between atoms: C_4  and  C_7
REMARK    2  A    between atoms: C_7  and  C_8
REMARK    3  A    between atoms: C_9  and  C_10
REMARK                            x       y       z     vdW  Elec       q    Type
REMARK                         _______ _______ _______ _____ _____    ______ ____
ROOT
ATOM      1  C   UNL A   1     -22.057   1.766  27.422  0.00  0.00    -0.000 A 
ATOM      2  C   UNL A   1     -22.851   1.896  26.741  0.00  0.00    -0.000 A 
ATOM      3  C   UNL A   1     -22.226   0.714  28.437  0.00  0.00    -0.004 A 
ATOM      4  C   UNL A   1     -23.348  -0.164  28.393  0.00  0.00    -0.018 A 
ATOM      5  C   UNL A   1     -24.272   0.091  27.410  0.00  0.00    -0.004 A 
ATOM      6  C   UNL A   1     -24.079   1.087  26.519  0.00  0.00    -0.000 A 
ENDROOT
BRANCH   4   7
ATOM      7  C   UNL A   1     -23.511  -1.215  29.380  0.00  0.00    +0.052 C 
BRANCH   7   8
ATOM      8  C   UNL A   1     -24.340  -2.298  29.015  0.00  0.00    -0.026 C 
ATOM      9  C   UNL A   1     -23.909  -3.451  28.611  0.00  0.00    -0.030 C 
BRANCH   9  10
ATOM     10  C   UNL A   1     -24.158  -4.612  28.560  0.00  0.00    +0.026 C 
ATOM     11  C   UNL A   1     -25.195  -5.310  29.218  0.00  0.00    +0.005 C 
ENDBRANCH   9  10
ENDBRANCH   7   8
ENDBRANCH   4   7
TORSDOF 3
ENDMDL
ENDMDL
