MODEL 2869
MODEL 1
REMARK VINA RESULT:    -4.532      0.000      0.000
REMARK INTER + INTRA:          -4.532
REMARK INTER:                  -4.532
REMARK INTRA:                   0.000
REMARK UNBOUND:                 0.000
REMARK  Name = No_2869-gen_results/8p0m/2024-11-26-14-13-15/
REMARK  0 active torsions:
REMARK  status: ('A' for Active; 'I' for Inactive)
REMARK                            x       y       z     vdW  Elec       q    Type
REMARK                         _______ _______ _______ _____ _____    ______ ____
ROOT
ATOM      1  C   UNL A   1     -23.971  -4.407  28.680  0.00  0.00    +0.030 A 
ATOM      2  C   UNL A   1     -24.857  -4.948  28.864  0.00  0.00    +0.140 A 
ATOM      3  C   UNL A   1     -23.980  -2.983  29.051  0.00  0.00    +0.002 A 
ATOM      4  C   UNL A   1     -25.089  -2.423  29.751  0.00  0.00    +0.000 A 
ATOM      5  C   UNL A   1     -26.101  -4.628  29.615  0.00  0.00    +0.030 A 
ATOM      6  C   UNL A   1     -26.151  -3.312  29.967  0.00  0.00    +0.002 A 
ATOM      7  F   UNL A   1     -24.849  -6.347  28.518  0.00  0.00    -0.204 F 
ENDROOT
TORSDOF 0
ENDMDL
ENDMDL
