MODEL 286
MODEL 1
REMARK VINA RESULT:    -6.042      0.000      0.000
REMARK INTER + INTRA:          -7.506
REMARK INTER:                  -7.101
REMARK INTRA:                  -0.405
REMARK UNBOUND:                -0.405
REMARK  Name = No_286-gen_results/8p0m/2024-11-26-14-13-15/
REMARK  3 active torsions:
REMARK  status: ('A' for Active; 'I' for Inactive)
REMARK    1  A    between atoms: C_3  and  C_4
REMARK    2  A    between atoms: C_4  and  C_8
REMARK    3  A    between atoms: C_9  and  C_10
REMARK                            x       y       z     vdW  Elec       q    Type
REMARK                         _______ _______ _______ _____ _____    ______ ____
ROOT
ATOM      1  C   UNL A   1     -25.762  -2.428  29.391  0.00  0.00    -0.004 A 
ATOM      2  C   UNL A   1     -26.306  -3.162  29.917  0.00  0.00    -0.000 A 
ATOM      3  C   UNL A   1     -24.427  -2.868  28.987  0.00  0.00    -0.018 A 
ATOM      4  C   UNL A   1     -26.435  -4.551  29.647  0.00  0.00    -0.000 A 
ATOM      5  C   UNL A   1     -25.193  -5.192  29.239  0.00  0.00    -0.000 A 
ATOM      6  C   UNL A   1     -24.196  -4.299  28.884  0.00  0.00    -0.004 A 
ENDROOT
BRANCH   3   7
ATOM      7  C   UNL A   1     -23.366  -2.032  28.927  0.00  0.00    +0.052 C 
BRANCH   7   8
ATOM      8  C   UNL A   1     -23.739  -0.730  28.850  0.00  0.00    -0.021 C 
ATOM      9  C   UNL A   1     -22.920   0.265  28.990  0.00  0.00    -0.005 C 
BRANCH   9  10
ATOM     10  C   UNL A   1     -21.857   0.688  28.259  0.00  0.00    -0.005 C 
ATOM     11  C   UNL A   1     -21.911   1.748  27.345  0.00  0.00    -0.026 C 
ATOM     12  C   UNL A   1     -23.217   2.249  27.011  0.00  0.00    +0.031 C 
ENDBRANCH   9  10
ENDBRANCH   7   8
ENDBRANCH   3   7
TORSDOF 3
ENDMDL
ENDMDL
