REMARK  Name = No_287-gen_results/8p0m/2024-11-26-14-13-15/
REMARK  10 active torsions:
REMARK  status: ('A' for Active; 'I' for Inactive)
REMARK    1  A    between atoms: C_2  and  C_7
REMARK    2  A    between atoms: C_4  and  C_17
REMARK    3  A    between atoms: N_9  and  C_10
REMARK    4  A    between atoms: C_10  and  C_12
REMARK    5  A    between atoms: C_12  and  P_13
REMARK    6  A    between atoms: C_17  and  N_18
REMARK    7  A    between atoms: N_18  and  C_19
REMARK    8  A    between atoms: C_19  and  C_21
REMARK    9  A    between atoms: C_20  and  C_27
REMARK   10  A    between atoms: C_28  and  C_29
REMARK                            x       y       z     vdW  Elec       q    Type
REMARK                         _______ _______ _______ _____ _____    ______ ____
ROOT
ATOM      1  N   UNL A   1     -23.734   0.165  30.083  0.00  0.00    -0.268 N 
ATOM      2  C   UNL A   1     -24.247   1.233  30.832  0.00  0.00    +0.250 C 
ATOM      3  O   UNL A   1     -23.414   2.247  31.028  0.00  0.00    -0.270 OA
ENDROOT
BRANCH   2   4
ATOM      4  C   UNL A   1     -25.263   1.108  31.760  0.00  0.00    +0.058 C 
ATOM      5  C   UNL A   1     -26.053   2.240  32.002  0.00  0.00    +0.005 C 
BRANCH   5   6
ATOM      6  C   UNL A   1     -27.162   2.172  32.927  0.00  0.00    +0.000 A 
ATOM      7  C   UNL A   1     -28.151   3.109  32.871  0.00  0.00    +0.000 A 
ATOM      8  C   UNL A   1     -29.345   2.945  33.633  0.00  0.00    +0.000 A 
ATOM      9  C   UNL A   1     -29.404   1.820  34.506  0.00  0.00    +0.000 A 
ATOM     10  C   UNL A   1     -28.426   0.914  34.580  0.00  0.00    +0.000 A 
ATOM     11  C   UNL A   1     -27.280   1.059  33.795  0.00  0.00    +0.000 A 
ENDBRANCH   5   6
ENDBRANCH   2   4
BRANCH   1  12
ATOM     12  C   UNL A   1     -24.368  -1.096  30.069  0.00  0.00    +0.121 C 
BRANCH  12  16
ATOM     13  C   UNL A   1     -28.016  -0.814  28.878  0.00  0.00    +0.004 A 
ATOM     14  C   UNL A   1     -28.469  -0.785  29.829  0.00  0.00    +0.055 A 
ATOM     15  C   UNL A   1     -26.546  -0.876  28.850  0.00  0.00    -0.003 A 
ATOM     16  C   UNL A   1     -25.804  -1.032  30.057  0.00  0.00    -0.002 A 
ATOM     17  C   UNL A   1     -27.944  -0.987  31.207  0.00  0.00    +0.004 A 
ATOM     18  C   UNL A   1     -26.582  -1.039  31.223  0.00  0.00    -0.003 A 
BRANCH  14  19
ATOM     19  C   UNL A   1     -30.061  -0.737  29.902  0.00  0.00    +0.269 C 
ATOM     20  O   UNL A   1     -30.725  -1.554  30.270  0.00  0.00    -0.268 OA
ATOM     21  N   UNL A   1     -30.556   0.424  29.312  0.00  0.00    -0.179 NA
BRANCH  21  22
ATOM     22  C   UNL A   1     -31.965   0.564  29.163  0.00  0.00    +0.059 C 
ATOM     23  C   UNL A   1     -32.776   0.455  29.738  0.00  0.00    +0.014 C 
BRANCH  22  24
ATOM     24  C   UNL A   1     -32.101   1.096  27.719  0.00  0.00    +0.102 C 
BRANCH  24  25
ATOM     25  P   UNL A   1     -33.638   1.323  27.140  0.00  0.00    +0.123 P 
ATOM     26  O   UNL A   1     -33.742   1.894  25.998  0.00  0.00    -0.460 OA
ATOM     27  O   UNL A   1     -34.186  -0.158  27.086  0.00  0.00    -0.357 OA
ATOM     28  O   UNL A   1     -34.420   2.049  28.258  0.00  0.00    -0.357 OA
ENDBRANCH  24  25
ENDBRANCH  22  24
ENDBRANCH  21  22
ENDBRANCH  14  19
ENDBRANCH  12  16
ENDBRANCH   1  12
BRANCH   1  29
ATOM     29  C   UNL A   1     -22.576   0.414  29.383  0.00  0.00    +0.121 C 
BRANCH  29  30
ATOM     30  C   UNL A   1     -22.598   0.634  28.015  0.00  0.00    -0.002 A 
ATOM     31  C   UNL A   1     -23.724   0.984  27.375  0.00  0.00    -0.003 A 
ATOM     32  C   UNL A   1     -23.695   1.749  26.205  0.00  0.00    -0.000 A 
ATOM     33  C   UNL A   1     -22.446   2.188  25.706  0.00  0.00    -0.000 A 
ATOM     34  C   UNL A   1     -21.341   2.038  26.495  0.00  0.00    -0.000 A 
ATOM     35  C   UNL A   1     -21.386   1.389  27.664  0.00  0.00    -0.003 A 
ENDBRANCH  29  30
ENDBRANCH   1  29
TORSDOF 10
