MODEL 2870
MODEL 1
REMARK VINA RESULT:    -9.664      0.000      0.000
REMARK INTER + INTRA:         -13.507
REMARK INTER:                 -11.924
REMARK INTRA:                  -1.583
REMARK UNBOUND:                -1.583
REMARK  Name = No_2870-gen_results/8p0m/2024-11-26-14-13-15/
REMARK  4 active torsions:
REMARK  status: ('A' for Active; 'I' for Inactive)
REMARK    1  A    between atoms: C_1  and  C_2
REMARK    2  A    between atoms: C_5  and  C_9
REMARK    3  A    between atoms: C_14  and  C_15
REMARK    4  A    between atoms: C_17  and  C_22
REMARK                            x       y       z     vdW  Elec       q    Type
REMARK                         _______ _______ _______ _____ _____    ______ ____
ROOT
ATOM      1  C   UNL A   1     -23.545   0.596  27.725  0.00  0.00    +0.056 A 
ATOM      2  C   UNL A   1     -24.289  -0.609  27.779  0.00  0.00    +0.005 A 
ATOM      3  C   UNL A   1     -24.201  -1.286  28.881  0.00  0.00    +0.000 A 
ATOM      4  C   UNL A   1     -23.145  -1.158  29.718  0.00  0.00    +0.000 A 
ATOM      5  C   UNL A   1     -22.296  -0.082  29.655  0.00  0.00    +0.000 A 
ATOM      6  C   UNL A   1     -22.518   0.833  28.608  0.00  0.00    +0.005 A 
ENDROOT
BRANCH   3   7
ATOM      7  C   UNL A   1     -24.786  -2.718  28.950  0.00  0.00    +0.000 A 
ATOM      8  C   UNL A   1     -23.979  -3.573  28.690  0.00  0.00    +0.000 A 
ATOM      9  C   UNL A   1     -24.328  -5.040  28.834  0.00  0.00    +0.000 A 
ATOM     10  C   UNL A   1     -25.592  -5.265  29.371  0.00  0.00    +0.002 A 
ATOM     11  C   UNL A   1     -25.960  -2.954  29.551  0.00  0.00    +0.003 A 
ATOM     12  C   UNL A   1     -26.389  -4.221  29.738  0.00  0.00    +0.019 A 
ATOM     13  C   UNL A   1     -27.714  -4.466  30.325  0.00  0.00    +0.099 A 
ATOM     14  N   UNL A   1     -28.403  -3.795  30.816  0.00  0.00    -0.242 NA
ATOM     15  C   UNL A   1     -28.038  -2.481  30.887  0.00  0.00    +0.099 A 
ATOM     16  C   UNL A   1     -26.893  -1.969  30.178  0.00  0.00    +0.021 A 
ENDBRANCH   3   7
BRANCH   1  20
ATOM     17  C   UNL A   1     -25.533   0.954  24.883  0.00  0.00    +0.272 C 
ATOM     18  N   UNL A   1     -25.182   1.276  26.250  0.00  0.00    -0.137 NA
ATOM     19  O   UNL A   1     -24.580   0.444  24.254  0.00  0.00    -0.268 OA
ATOM     20  C   UNL A   1     -23.793   1.451  26.745  0.00  0.00    +0.272 C 
ATOM     21  O   UNL A   1     -23.223   2.430  26.385  0.00  0.00    -0.268 OA
BRANCH  17  22
ATOM     22  C   UNL A   1     -26.702   0.793  24.618  0.00  0.00    +0.056 A 
ATOM     23  C   UNL A   1     -27.262  -0.441  24.348  0.00  0.00    +0.004 A 
ATOM     24  C   UNL A   1     -28.637  -0.677  23.950  0.00  0.00    +0.004 A 
ATOM     25  C   UNL A   1     -29.509   0.427  23.830  0.00  0.00    +0.071 A 
ATOM     26  C   UNL A   1     -28.934   1.721  24.096  0.00  0.00    +0.004 A 
ATOM     27  C   UNL A   1     -27.618   1.925  24.436  0.00  0.00    +0.004 A 
BRANCH  25  28
ATOM     28  C   UNL A   1     -30.882   0.294  23.464  0.00  0.00    +0.419 C 
ATOM     29  F   UNL A   1     -31.658   0.665  24.353  0.00  0.00    -0.166 F 
ATOM     30  F   UNL A   1     -31.173   1.097  22.344  0.00  0.00    -0.166 F 
ATOM     31  F   UNL A   1     -31.166  -1.021  23.173  0.00  0.00    -0.166 F 
ENDBRANCH  25  28
ENDBRANCH  17  22
ENDBRANCH   1  20
TORSDOF 4
ENDMDL
ENDMDL
