REMARK  Name = No_2870-gen_results/8p0m/2024-11-26-14-13-15/
REMARK  4 active torsions:
REMARK  status: ('A' for Active; 'I' for Inactive)
REMARK    1  A    between atoms: C_1  and  C_2
REMARK    2  A    between atoms: C_5  and  C_9
REMARK    3  A    between atoms: C_14  and  C_15
REMARK    4  A    between atoms: C_17  and  C_22
REMARK                            x       y       z     vdW  Elec       q    Type
REMARK                         _______ _______ _______ _____ _____    ______ ____
ROOT
ATOM      1  C   UNL A   1     -29.429  -2.089  31.800  0.00  0.00    +0.056 A 
ATOM      2  C   UNL A   1     -30.404  -1.068  31.930  0.00  0.00    +0.005 A 
ATOM      3  C   UNL A   1     -30.539  -0.555  33.112  0.00  0.00    +0.000 A 
ATOM      4  C   UNL A   1     -30.173  -1.224  34.230  0.00  0.00    +0.000 A 
ATOM      5  C   UNL A   1     -29.330  -2.305  34.185  0.00  0.00    +0.000 A 
ATOM      6  C   UNL A   1     -28.943  -2.747  32.904  0.00  0.00    +0.005 A 
ENDROOT
BRANCH   3   7
ATOM      7  C   UNL A   1     -31.727   0.395  33.405  0.00  0.00    +0.000 A 
ATOM      8  C   UNL A   1     -31.381   1.512  33.692  0.00  0.00    +0.000 A 
ATOM      9  C   UNL A   1     -32.401   2.616  33.882  0.00  0.00    +0.000 A 
ATOM     10  C   UNL A   1     -33.707   2.226  33.601  0.00  0.00    +0.002 A 
ATOM     11  C   UNL A   1     -32.976   0.065  33.050  0.00  0.00    +0.003 A 
ATOM     12  C   UNL A   1     -33.980   0.960  33.174  0.00  0.00    +0.019 A 
ATOM     13  C   UNL A   1     -35.359   0.562  32.858  0.00  0.00    +0.099 A 
ATOM     14  N   UNL A   1     -35.743  -0.318  32.364  0.00  0.00    -0.242 NA
ATOM     15  C   UNL A   1     -34.831  -1.264  31.991  0.00  0.00    +0.099 A 
ATOM     16  C   UNL A   1     -33.452  -1.196  32.403  0.00  0.00    +0.021 A 
ENDBRANCH   3   7
BRANCH   1  20
ATOM     17  C   UNL A   1     -28.016  -0.814  28.878  0.00  0.00    +0.272 C 
ATOM     18  N   UNL A   1     -27.961  -1.607  30.088  0.00  0.00    -0.137 NA
ATOM     19  O   UNL A   1     -29.190  -0.596  28.505  0.00  0.00    -0.268 OA
ATOM     20  C   UNL A   1     -29.065  -2.466  30.584  0.00  0.00    +0.272 C 
ATOM     21  O   UNL A   1     -29.283  -3.457  29.964  0.00  0.00    -0.268 OA
BRANCH  17  22
ATOM     22  C   UNL A   1     -27.064  -0.119  28.608  0.00  0.00    +0.056 A 
ATOM     23  C   UNL A   1     -27.001   0.691  27.491  0.00  0.00    +0.004 A 
ATOM     24  C   UNL A   1     -25.855   1.482  27.083  0.00  0.00    +0.004 A 
ATOM     25  C   UNL A   1     -24.690   1.453  27.881  0.00  0.00    +0.071 A 
ATOM     26  C   UNL A   1     -24.738   0.601  29.042  0.00  0.00    +0.004 A 
ATOM     27  C   UNL A   1     -25.823  -0.169  29.389  0.00  0.00    +0.004 A 
BRANCH  25  28
ATOM     28  C   UNL A   1     -23.521   2.211  27.573  0.00  0.00    +0.419 C 
ATOM     29  F   UNL A   1     -22.973   2.685  28.576  0.00  0.00    -0.166 F 
ATOM     30  F   UNL A   1     -22.552   1.393  26.959  0.00  0.00    -0.166 F 
ATOM     31  F   UNL A   1     -23.843   3.252  26.732  0.00  0.00    -0.166 F 
ENDBRANCH  25  28
ENDBRANCH  17  22
ENDBRANCH   1  20
TORSDOF 4
