MODEL 2871
MODEL 1
REMARK VINA RESULT:    -5.786      0.000      0.000
REMARK INTER + INTRA:          -6.649
REMARK INTER:                  -6.463
REMARK INTRA:                  -0.187
REMARK UNBOUND:                -0.187
REMARK  Name = No_2871-gen_results/8p0m/2024-11-26-14-13-15/
REMARK  2 active torsions:
REMARK  status: ('A' for Active; 'I' for Inactive)
REMARK    1  A    between atoms: C_1  and  C_8
REMARK    2  A    between atoms: C_5  and  C_11
REMARK                            x       y       z     vdW  Elec       q    Type
REMARK                         _______ _______ _______ _____ _____    ______ ____
ROOT
ATOM      1  C   UNL A   1     -25.187  -3.607  29.112  0.00  0.00    +0.036 C 
ATOM      2  C   UNL A   1     -24.588  -2.590  28.850  0.00  0.00    -0.043 C 
ATOM      3  C   UNL A   1     -25.122  -1.557  28.080  0.00  0.00    +0.022 C 
ATOM      4  C   UNL A   1     -24.461  -0.293  27.702  0.00  0.00    +0.010 C 
ATOM      5  C   UNL A   1     -23.224  -0.017  28.362  0.00  0.00    +0.044 C 
ATOM      6  C   UNL A   1     -22.674  -1.009  29.180  0.00  0.00    +0.010 C 
ATOM      7  C   UNL A   1     -23.286  -2.188  29.429  0.00  0.00    +0.022 C 
ENDROOT
BRANCH   1   8
ATOM      8  C   UNL A   1     -24.386  -4.852  28.910  0.00  0.00    +0.340 C 
ATOM      9  F   UNL A   1     -24.841  -5.805  29.467  0.00  0.00    -0.193 F 
ATOM     10  F   UNL A   1     -23.818  -4.730  27.852  0.00  0.00    -0.193 F 
ENDBRANCH   1   8
BRANCH   5  11
ATOM     11  C   UNL A   1     -22.560   1.223  27.979  0.00  0.00    +0.095 C 
ATOM     12  N   UNL A   1     -23.190   2.378  28.174  0.00  0.00    -0.151 NA
ENDBRANCH   5  11
TORSDOF 2
ENDMDL
ENDMDL
