MODEL 2872
MODEL 1
REMARK VINA RESULT:    -7.242      0.000      0.000
REMARK INTER + INTRA:          -9.115
REMARK INTER:                  -8.512
REMARK INTRA:                  -0.603
REMARK UNBOUND:                -0.603
REMARK  Name = No_2872-gen_results/8p0m/2024-11-26-14-13-15/
REMARK  3 active torsions:
REMARK  status: ('A' for Active; 'I' for Inactive)
REMARK    1  A    between atoms: C_3  and  C_7
REMARK    2  A    between atoms: C_7  and  C_9
REMARK    3  A    between atoms: C_9  and  C_10
REMARK                            x       y       z     vdW  Elec       q    Type
REMARK                         _______ _______ _______ _____ _____    ______ ____
ROOT
ATOM      1  C   UNL A   1     -23.183  -0.629  29.241  0.00  0.00    +0.027 C 
ATOM      2  C   UNL A   1     -23.185  -0.081  30.532  0.00  0.00    +0.005 C 
ENDROOT
BRANCH   1   5
ATOM      3  C   UNL A   1     -22.085   1.254  27.892  0.00  0.00    -0.004 A 
ATOM      4  C   UNL A   1     -22.155   1.909  27.069  0.00  0.00    -0.000 A 
ATOM      5  C   UNL A   1     -23.162   0.369  28.122  0.00  0.00    -0.022 A 
ATOM      6  C   UNL A   1     -24.283   0.357  27.317  0.00  0.00    -0.004 A 
ATOM      7  C   UNL A   1     -24.289   1.246  26.254  0.00  0.00    -0.000 A 
ATOM      8  C   UNL A   1     -23.200   2.065  26.047  0.00  0.00    -0.000 A 
ENDBRANCH   1   5
BRANCH   1   9
ATOM      9  C   UNL A   1     -23.163  -1.992  29.039  0.00  0.00    +0.031 C 
BRANCH   9  10
ATOM     10  C   UNL A   1     -24.260  -2.784  29.197  0.00  0.00    -0.022 A 
ATOM     11  C   UNL A   1     -24.090  -4.159  28.910  0.00  0.00    -0.004 A 
ATOM     12  C   UNL A   1     -25.183  -5.016  29.124  0.00  0.00    -0.000 A 
ATOM     13  C   UNL A   1     -26.328  -4.544  29.683  0.00  0.00    -0.000 A 
ATOM     14  C   UNL A   1     -26.462  -3.185  29.972  0.00  0.00    -0.000 A 
ATOM     15  C   UNL A   1     -25.484  -2.330  29.737  0.00  0.00    -0.004 A 
ENDBRANCH   9  10
ENDBRANCH   1   9
TORSDOF 3
ENDMDL
ENDMDL
