MODEL 2873
MODEL 1
REMARK VINA RESULT:    -4.303      0.000      0.000
REMARK INTER + INTRA:          -4.303
REMARK INTER:                  -4.303
REMARK INTRA:                   0.000
REMARK UNBOUND:                 0.000
REMARK  Name = No_2873-gen_results/8p0m/2024-11-26-14-13-15/
REMARK  0 active torsions:
REMARK  status: ('A' for Active; 'I' for Inactive)
REMARK                            x       y       z     vdW  Elec       q    Type
REMARK                         _______ _______ _______ _____ _____    ______ ____
ROOT
ATOM      1  C   UNL A   1     -24.946  -5.389  28.988  0.00  0.00    +0.000 A 
ATOM      2  C   UNL A   1     -24.191  -4.705  28.715  0.00  0.00    +0.000 A 
ATOM      3  C   UNL A   1     -26.107  -4.758  29.615  0.00  0.00    +0.000 A 
ATOM      4  C   UNL A   1     -26.190  -3.400  29.800  0.00  0.00    +0.000 A 
ATOM      5  C   UNL A   1     -24.010  -3.256  28.782  0.00  0.00    +0.000 A 
ATOM      6  C   UNL A   1     -25.129  -2.636  29.387  0.00  0.00    +0.000 A 
ENDROOT
TORSDOF 0
ENDMDL
ENDMDL
