MODEL 2874
MODEL 1
REMARK VINA RESULT:    -6.216      0.000      0.000
REMARK INTER + INTRA:          -7.847
REMARK INTER:                  -7.306
REMARK INTRA:                  -0.541
REMARK UNBOUND:                -0.541
REMARK  Name = No_2874-gen_results/8p0m/2024-11-26-14-13-15/
REMARK  3 active torsions:
REMARK  status: ('A' for Active; 'I' for Inactive)
REMARK    1  A    between atoms: C_2  and  N_7
REMARK    2  A    between atoms: N_7  and  C_8
REMARK    3  A    between atoms: C_9  and  C_14
REMARK                            x       y       z     vdW  Elec       q    Type
REMARK                         _______ _______ _______ _____ _____    ______ ____
ROOT
ATOM      1  C   UNL A   1     -24.110  -2.478  29.508  0.00  0.00    +0.153 A 
ATOM      2  C   UNL A   1     -25.398  -2.631  30.070  0.00  0.00    +0.033 A 
ATOM      3  C   UNL A   1     -26.164  -3.792  29.870  0.00  0.00    +0.004 A 
ATOM      4  C   UNL A   1     -25.556  -4.848  29.170  0.00  0.00    +0.021 A 
ATOM      5  N   UNL A   1     -23.540  -3.444  28.786  0.00  0.00    -0.227 NA
ATOM      6  C   UNL A   1     -24.238  -4.625  28.686  0.00  0.00    +0.100 A 
ENDROOT
BRANCH   2   7
ATOM      7  C   UNL A   1     -26.041  -1.587  30.885  0.00  0.00    -0.002 C 
ATOM      8  C   UNL A   1     -26.710  -0.596  30.540  0.00  0.00    -0.026 C 
ATOM      9  C   UNL A   1     -26.985  -0.606  29.063  0.00  0.00    +0.031 C 
ENDBRANCH   2   7
BRANCH   1  10
ATOM     10  N   UNL A   1     -23.340  -1.435  29.879  0.00  0.00    -0.175 NA
BRANCH  10  12
ATOM     11  C   UNL A   1     -23.441   0.353  28.403  0.00  0.00    +0.036 A 
ATOM     12  C   UNL A   1     -22.775  -0.456  29.007  0.00  0.00    +0.153 A 
ATOM     13  N   UNL A   1     -21.475  -0.479  29.001  0.00  0.00    -0.227 NA
ATOM     14  C   UNL A   1     -22.740   1.358  27.610  0.00  0.00    +0.004 A 
ATOM     15  C   UNL A   1     -21.663   1.320  27.572  0.00  0.00    +0.021 A 
ATOM     16  C   UNL A   1     -20.831   0.424  28.239  0.00  0.00    +0.100 A 
ENDBRANCH  10  12
ENDBRANCH   1  10
TORSDOF 3
ENDMDL
ENDMDL
