REMARK  Name = No_2874-gen_results/8p0m/2024-11-26-14-13-15/
REMARK  3 active torsions:
REMARK  status: ('A' for Active; 'I' for Inactive)
REMARK    1  A    between atoms: C_2  and  N_7
REMARK    2  A    between atoms: N_7  and  C_8
REMARK    3  A    between atoms: C_9  and  C_14
REMARK                            x       y       z     vdW  Elec       q    Type
REMARK                         _______ _______ _______ _____ _____    ______ ____
ROOT
ATOM      1  C   UNL A   1     -24.939   0.134  27.366  0.00  0.00    +0.153 A 
ATOM      2  C   UNL A   1     -23.725   0.368  28.051  0.00  0.00    +0.033 A 
ATOM      3  C   UNL A   1     -22.773   1.290  27.584  0.00  0.00    +0.004 A 
ATOM      4  C   UNL A   1     -23.119   2.053  26.457  0.00  0.00    +0.021 A 
ATOM      5  N   UNL A   1     -25.259   0.802  26.257  0.00  0.00    -0.227 NA
ATOM      6  C   UNL A   1     -24.383   1.787  25.863  0.00  0.00    +0.100 A 
ENDROOT
BRANCH   2   7
ATOM      7  C   UNL A   1     -23.357  -0.344  29.287  0.00  0.00    -0.002 C 
ATOM      8  C   UNL A   1     -22.259  -0.433  29.866  0.00  0.00    -0.026 C 
ATOM      9  C   UNL A   1     -21.230   0.460  29.234  0.00  0.00    +0.031 C 
ENDBRANCH   2   7
BRANCH   1  10
ATOM     10  N   UNL A   1     -25.899  -0.614  27.947  0.00  0.00    -0.175 NA
BRANCH  10  12
ATOM     11  C   UNL A   1     -28.016  -0.814  28.878  0.00  0.00    +0.036 A 
ATOM     12  C   UNL A   1     -27.064  -0.119  28.608  0.00  0.00    +0.153 A 
ATOM     13  N   UNL A   1     -26.951   1.129  28.957  0.00  0.00    -0.227 NA
ATOM     14  C   UNL A   1     -29.109  -0.210  29.632  0.00  0.00    +0.004 A 
ATOM     15  C   UNL A   1     -29.037   0.834  29.891  0.00  0.00    +0.021 A 
ATOM     16  C   UNL A   1     -27.976   1.695  29.619  0.00  0.00    +0.100 A 
ENDBRANCH  10  12
ENDBRANCH   1  10
TORSDOF 3
