MODEL 2875
MODEL 1
REMARK VINA RESULT:    -7.090      0.000      0.000
REMARK INTER + INTRA:          -8.276
REMARK INTER:                  -7.919
REMARK INTRA:                  -0.357
REMARK UNBOUND:                -0.357
REMARK  Name = No_2875-gen_results/8p0m/2024-11-26-14-13-15/
REMARK  2 active torsions:
REMARK  status: ('A' for Active; 'I' for Inactive)
REMARK    1  A    between atoms: C_2  and  C_7
REMARK    2  A    between atoms: N_8  and  C_9
REMARK                            x       y       z     vdW  Elec       q    Type
REMARK                         _______ _______ _______ _____ _____    ______ ____
ROOT
ATOM      1  C   UNL A   1     -23.773  -0.715  28.989  0.00  0.00    +0.269 C 
ATOM      2  N   UNL A   1     -24.703  -1.454  28.569  0.00  0.00    -0.175 NA
ATOM      3  O   UNL A   1     -23.132  -0.870  30.038  0.00  0.00    -0.268 OA
ENDROOT
BRANCH   1   5
ATOM      4  C   UNL A   1     -22.360   0.876  28.146  0.00  0.00    +0.005 A 
ATOM      5  C   UNL A   1     -23.262   0.371  27.939  0.00  0.00    +0.055 A 
ATOM      6  C   UNL A   1     -21.929   1.883  27.164  0.00  0.00    +0.000 A 
ATOM      7  C   UNL A   1     -22.774   2.240  26.074  0.00  0.00    +0.000 A 
ATOM      8  C   UNL A   1     -24.334   0.587  26.931  0.00  0.00    +0.005 A 
ATOM      9  C   UNL A   1     -23.967   1.508  25.996  0.00  0.00    +0.000 A 
ENDBRANCH   1   5
BRANCH   2  10
ATOM     10  C   UNL A   1     -24.841  -2.721  28.813  0.00  0.00    +0.074 A 
ATOM     11  C   UNL A   1     -23.965  -3.598  28.432  0.00  0.00    +0.017 A 
ATOM     12  C   UNL A   1     -26.065  -3.108  29.501  0.00  0.00    +0.017 A 
ATOM     13  C   UNL A   1     -24.175  -5.030  28.649  0.00  0.00    +0.001 A 
ATOM     14  C   UNL A   1     -26.244  -4.503  29.744  0.00  0.00    +0.001 A 
ATOM     15  C   UNL A   1     -25.300  -5.412  29.325  0.00  0.00    +0.000 A 
ENDBRANCH   2  10
TORSDOF 2
ENDMDL
ENDMDL
