REMARK  Name = No_2875-gen_results/8p0m/2024-11-26-14-13-15/
REMARK  2 active torsions:
REMARK  status: ('A' for Active; 'I' for Inactive)
REMARK    1  A    between atoms: C_2  and  C_7
REMARK    2  A    between atoms: N_8  and  C_9
REMARK                            x       y       z     vdW  Elec       q    Type
REMARK                         _______ _______ _______ _____ _____    ______ ____
ROOT
ATOM      1  C   UNL A   1     -30.061  -0.737  29.902  0.00  0.00    +0.269 C 
ATOM      2  N   UNL A   1     -30.606  -0.035  29.009  0.00  0.00    -0.175 NA
ATOM      3  O   UNL A   1     -30.639  -1.500  30.688  0.00  0.00    -0.268 OA
ENDROOT
BRANCH   1   5
ATOM      4  C   UNL A   1     -28.016  -0.814  28.878  0.00  0.00    +0.005 A 
ATOM      5  C   UNL A   1     -28.469  -0.785  29.829  0.00  0.00    +0.055 A 
ATOM      6  C   UNL A   1     -26.546  -0.876  28.850  0.00  0.00    +0.000 A 
ATOM      7  C   UNL A   1     -25.804  -1.032  30.057  0.00  0.00    +0.000 A 
ATOM      8  C   UNL A   1     -27.944  -0.987  31.207  0.00  0.00    +0.005 A 
ATOM      9  C   UNL A   1     -26.582  -1.039  31.223  0.00  0.00    +0.000 A 
ENDBRANCH   1   5
BRANCH   2  10
ATOM     10  C   UNL A   1     -31.712  -0.312  28.389  0.00  0.00    +0.074 A 
ATOM     11  C   UNL A   1     -32.486  -1.286  28.756  0.00  0.00    +0.017 A 
ATOM     12  C   UNL A   1     -32.012   0.509  27.224  0.00  0.00    +0.017 A 
ATOM     13  C   UNL A   1     -33.689  -1.631  27.998  0.00  0.00    +0.001 A 
ATOM     14  C   UNL A   1     -33.209   0.191  26.513  0.00  0.00    +0.001 A 
ATOM     15  C   UNL A   1     -34.008  -0.851  26.922  0.00  0.00    +0.000 A 
ENDBRANCH   2  10
TORSDOF 2
