MODEL 2876
MODEL 1
REMARK VINA RESULT:    -5.066      0.000      0.000
REMARK INTER + INTRA:          -5.775
REMARK INTER:                  -5.659
REMARK INTRA:                  -0.116
REMARK UNBOUND:                -0.116
REMARK  Name = No_2876-gen_results/8p0m/2024-11-26-14-13-15/
REMARK  2 active torsions:
REMARK  status: ('A' for Active; 'I' for Inactive)
REMARK    1  A    between atoms: C_1  and  C_2
REMARK    2  A    between atoms: C_2  and  C_5
REMARK                            x       y       z     vdW  Elec       q    Type
REMARK                         _______ _______ _______ _____ _____    ______ ____
ROOT
ATOM      1  C   UNL A   1     -24.481  -2.817  29.090  0.00  0.00    +0.011 A 
ATOM      2  C   UNL A   1     -24.082  -4.013  28.716  0.00  0.00    -0.002 A 
ATOM      3  C   UNL A   1     -24.949  -5.117  29.136  0.00  0.00    -0.000 A 
ATOM      4  C   UNL A   1     -26.233  -4.852  29.606  0.00  0.00    -0.000 A 
ATOM      5  C   UNL A   1     -26.609  -3.606  29.951  0.00  0.00    -0.000 A 
ATOM      6  C   UNL A   1     -25.745  -2.534  29.739  0.00  0.00    -0.002 A 
ENDROOT
BRANCH   1   7
ATOM      7  C   UNL A   1     -23.643  -1.640  28.914  0.00  0.00    +0.199 C 
ATOM      8  F   UNL A   1     -22.426  -1.834  28.987  0.00  0.00    -0.231 F 
BRANCH   7   9
ATOM      9  C   UNL A   1     -23.929  -0.520  28.557  0.00  0.00    +0.135 C 
ATOM     10 CL   UNL A   1     -22.666   0.558  28.096  0.00  0.00    -0.110 Cl
ENDBRANCH   7   9
ENDBRANCH   1   7
TORSDOF 2
ENDMDL
ENDMDL
