REMARK  Name = No_2876-gen_results/8p0m/2024-11-26-14-13-15/
REMARK  2 active torsions:
REMARK  status: ('A' for Active; 'I' for Inactive)
REMARK    1  A    between atoms: C_1  and  C_2
REMARK    2  A    between atoms: C_2  and  C_5
REMARK                            x       y       z     vdW  Elec       q    Type
REMARK                         _______ _______ _______ _____ _____    ______ ____
ROOT
ATOM      1  C   UNL A   1     -25.875   0.198  29.386  0.00  0.00    +0.011 A 
ATOM      2  C   UNL A   1     -25.903   0.260  30.699  0.00  0.00    -0.002 A 
ATOM      3  C   UNL A   1     -24.593   0.395  31.342  0.00  0.00    -0.000 A 
ATOM      4  C   UNL A   1     -23.480   0.747  30.584  0.00  0.00    -0.000 A 
ATOM      5  C   UNL A   1     -23.504   0.696  29.239  0.00  0.00    -0.000 A 
ATOM      6  C   UNL A   1     -24.690   0.392  28.575  0.00  0.00    -0.002 A 
ENDROOT
BRANCH   1   7
ATOM      7  C   UNL A   1     -27.064  -0.119  28.608  0.00  0.00    +0.199 C 
ATOM      8  F   UNL A   1     -27.043   0.244  27.428  0.00  0.00    -0.231 F 
BRANCH   7   9
ATOM      9  C   UNL A   1     -28.016  -0.814  28.878  0.00  0.00    +0.135 C 
ATOM     10 CL   UNL A   1     -27.898  -1.919  30.195  0.00  0.00    -0.110 Cl
ENDBRANCH   7   9
ENDBRANCH   1   7
TORSDOF 2
