REMARK  Name = No_2877-gen_results/8p0m/2024-11-26-14-13-15/
REMARK  9 active torsions:
REMARK  status: ('A' for Active; 'I' for Inactive)
REMARK    1  A    between atoms: C_2  and  C_8
REMARK    2  A    between atoms: C_3  and  O_11
REMARK    3  A    between atoms: C_8  and  O_10
REMARK    4  A    between atoms: O_10  and  C_19
REMARK    5  A    between atoms: O_11  and  C_12
REMARK    6  A    between atoms: C_19  and  C_20
REMARK    7  A    between atoms: C_20  and  O_22
REMARK    8  A    between atoms: O_22  and  C_24
REMARK    9  A    between atoms: C_24  and  C_25
REMARK                            x       y       z     vdW  Elec       q    Type
REMARK                         _______ _______ _______ _____ _____    ______ ____
ROOT
ATOM      1  C   UNL A   1     -28.016  -0.814  28.878  0.00  0.00    +0.045 A 
ATOM      2  C   UNL A   1     -28.469  -0.785  29.829  0.00  0.00    +0.079 A 
ATOM      3  C   UNL A   1     -26.546  -0.876  28.850  0.00  0.00    +0.156 A 
ATOM      4  C   UNL A   1     -25.804  -1.032  30.057  0.00  0.00    +0.092 A 
ATOM      5  C   UNL A   1     -27.944  -0.987  31.207  0.00  0.00    +0.007 A 
ATOM      6  C   UNL A   1     -26.582  -1.039  31.223  0.00  0.00    +0.015 A 
ATOM      7 CL   UNL A   1     -24.154  -1.114  30.088  0.00  0.00    -0.079 Cl
ENDROOT
BRANCH   2   8
ATOM      8  C   UNL A   1     -30.098  -0.729  29.888  0.00  0.00    +0.348 C 
ATOM      9  O   UNL A   1     -30.681   0.001  29.153  0.00  0.00    -0.244 OA
BRANCH   8  10
ATOM     10  O   UNL A   1     -30.754  -1.484  30.747  0.00  0.00    -0.382 OA
BRANCH  10  11
ATOM     11  C   UNL A   1     -31.947  -1.989  30.445  0.00  0.00    +0.425 C 
ATOM     12  O   UNL A   1     -32.825  -1.224  30.279  0.00  0.00    -0.237 OA
BRANCH  11  13
ATOM     13  C   UNL A   1     -32.231  -3.250  31.104  0.00  0.00    +0.419 C 
ATOM     14  O   UNL A   1     -33.148  -3.846  30.892  0.00  0.00    -0.237 OA
BRANCH  13  15
ATOM     15  O   UNL A   1     -31.370  -3.752  31.993  0.00  0.00    -0.428 OA
BRANCH  15  16
ATOM     16  C   UNL A   1     -31.001  -5.018  32.133  0.00  0.00    +0.322 C 
BRANCH  16  17
ATOM     17  C   UNL A   1     -29.849  -5.405  31.513  0.00  0.00    +0.409 C 
ATOM     18  O   UNL A   1     -29.714  -6.330  30.897  0.00  0.00    -0.241 OA
ATOM     19  O   UNL A   1     -28.679  -4.662  31.813  0.00  0.00    -0.241 OA
ENDBRANCH  16  17
ENDBRANCH  15  16
ENDBRANCH  13  15
ENDBRANCH  11  13
ENDBRANCH  10  11
ENDBRANCH   8  10
ENDBRANCH   2   8
BRANCH   3  20
ATOM     20  O   UNL A   1     -25.751  -0.829  27.714  0.00  0.00    -0.450 OA
BRANCH  20  21
ATOM     21  C   UNL A   1     -25.405   0.224  27.336  0.00  0.00    +0.175 A 
ATOM     22  C   UNL A   1     -25.939   0.700  26.044  0.00  0.00    +0.174 A 
ATOM     23  C   UNL A   1     -24.221   0.917  27.773  0.00  0.00    +0.069 A 
ATOM     24  C   UNL A   1     -23.666   2.039  27.108  0.00  0.00    +0.143 A 
ATOM     25  C   UNL A   1     -25.353   1.802  25.403  0.00  0.00    +0.035 A 
ATOM     26  C   UNL A   1     -24.209   2.473  25.945  0.00  0.00    +0.032 A 
ATOM     27  F   UNL A   1     -22.613   2.568  27.694  0.00  0.00    -0.204 F 
ATOM     28  F   UNL A   1     -26.881   0.060  25.555  0.00  0.00    -0.201 F 
ENDBRANCH  20  21
ENDBRANCH   3  20
TORSDOF 9
