MODEL 2878
MODEL 1
REMARK VINA RESULT:    -5.796      0.000      0.000
REMARK INTER + INTRA:          -7.477
REMARK INTER:                  -7.151
REMARK INTRA:                  -0.325
REMARK UNBOUND:                -0.325
REMARK  Name = No_2878-gen_results/8p0m/2024-11-26-14-13-15/
REMARK  4 active torsions:
REMARK  status: ('A' for Active; 'I' for Inactive)
REMARK    1  A    between atoms: C_2  and  C_7
REMARK    2  A    between atoms: C_6  and  C_11
REMARK    3  A    between atoms: N_12  and  C_13
REMARK    4  A    between atoms: C_13  and  C_14
REMARK                            x       y       z     vdW  Elec       q    Type
REMARK                         _______ _______ _______ _____ _____    ______ ____
ROOT
ATOM      1  C   UNL A   1     -23.515   0.404  27.675  0.00  0.00    +0.005 A 
ATOM      2  C   UNL A   1     -22.932   1.341  27.180  0.00  0.00    +0.071 A 
ATOM      3  C   UNL A   1     -21.578   1.550  27.418  0.00  0.00    +0.004 A 
ATOM      4  C   UNL A   1     -20.837   0.683  28.298  0.00  0.00    -0.000 A 
ATOM      5  C   UNL A   1     -21.594  -0.360  28.845  0.00  0.00    +0.002 A 
ATOM      6  C   UNL A   1     -22.877  -0.505  28.602  0.00  0.00    +0.019 A 
ENDROOT
BRANCH   2   7
ATOM      7  C   UNL A   1     -23.542   2.348  26.272  0.00  0.00    +0.419 C 
ATOM      8  F   UNL A   1     -23.884   3.286  26.741  0.00  0.00    -0.166 F 
ATOM      9  F   UNL A   1     -24.581   1.807  25.552  0.00  0.00    -0.166 F 
ATOM     10  F   UNL A   1     -22.594   2.587  25.248  0.00  0.00    -0.166 F 
ENDBRANCH   2   7
BRANCH   6  11
ATOM     11  C   UNL A   1     -23.570  -1.597  29.311  0.00  0.00    +0.093 C 
ATOM     12  N   UNL A   1     -24.295  -2.495  28.659  0.00  0.00    -0.266 NA
BRANCH  12  13
ATOM     13  C   UNL A   1     -25.126  -3.424  29.266  0.00  0.00    +0.161 C 
BRANCH  13  14
ATOM     14  C   UNL A   1     -24.652  -4.692  29.164  0.00  0.00    +0.208 C 
ATOM     15  O   UNL A   1     -23.665  -4.935  28.401  0.00  0.00    -0.218 OA
ENDBRANCH  13  14
ENDBRANCH  12  13
ENDBRANCH   6  11
TORSDOF 4
ENDMDL
ENDMDL
