MODEL 2879
MODEL 1
REMARK VINA RESULT:    -6.582      0.000      0.000
REMARK INTER + INTRA:          -7.315
REMARK INTER:                  -6.967
REMARK INTRA:                  -0.348
REMARK UNBOUND:                -0.348
REMARK  Name = No_2879-gen_results/8p0m/2024-11-26-14-13-15/
REMARK  1 active torsions:
REMARK  status: ('A' for Active; 'I' for Inactive)
REMARK    1  A    between atoms: C_2  and  C_7
REMARK                            x       y       z     vdW  Elec       q    Type
REMARK                         _______ _______ _______ _____ _____    ______ ____
ROOT
ATOM      1  C   UNL A   1     -25.634  -2.532  29.563  0.00  0.00    +0.000 A 
ATOM      2  C   UNL A   1     -24.515  -2.567  29.104  0.00  0.00    +0.000 A 
ATOM      3  C   UNL A   1     -23.928  -3.772  28.734  0.00  0.00    +0.000 A 
ATOM      4  C   UNL A   1     -24.617  -5.022  28.928  0.00  0.00    +0.000 A 
ATOM      5  C   UNL A   1     -25.895  -4.892  29.486  0.00  0.00    +0.000 A 
ATOM      6  C   UNL A   1     -26.398  -3.730  29.834  0.00  0.00    +0.000 A 
ENDROOT
BRANCH   2   7
ATOM      7  C   UNL A   1     -23.650  -1.382  28.861  0.00  0.00    +0.000 A 
ATOM      8  C   UNL A   1     -22.497  -1.168  29.202  0.00  0.00    +0.000 A 
ATOM      9  C   UNL A   1     -21.690  -0.009  28.801  0.00  0.00    +0.000 A 
ATOM     10  C   UNL A   1     -22.320   0.948  27.979  0.00  0.00    +0.000 A 
ATOM     11  C   UNL A   1     -24.230  -0.353  27.965  0.00  0.00    +0.000 A 
ATOM     12  C   UNL A   1     -23.573   0.725  27.585  0.00  0.00    +0.000 A 
ENDBRANCH   2   7
TORSDOF 1
ENDMDL
ENDMDL
