MODEL 287
MODEL 1
REMARK VINA RESULT:    -7.625      0.000      0.000
REMARK INTER + INTRA:         -13.903
REMARK INTER:                 -12.083
REMARK INTRA:                  -1.820
REMARK UNBOUND:                -1.820
REMARK  Name = No_287-gen_results/8p0m/2024-11-26-14-13-15/
REMARK  10 active torsions:
REMARK  status: ('A' for Active; 'I' for Inactive)
REMARK    1  A    between atoms: C_2  and  C_7
REMARK    2  A    between atoms: C_4  and  C_17
REMARK    3  A    between atoms: N_9  and  C_10
REMARK    4  A    between atoms: C_10  and  C_12
REMARK    5  A    between atoms: C_12  and  P_13
REMARK    6  A    between atoms: C_17  and  N_18
REMARK    7  A    between atoms: N_18  and  C_19
REMARK    8  A    between atoms: C_19  and  C_21
REMARK    9  A    between atoms: C_20  and  C_27
REMARK   10  A    between atoms: C_28  and  C_29
REMARK                            x       y       z     vdW  Elec       q    Type
REMARK                         _______ _______ _______ _____ _____    ______ ____
ROOT
ATOM      1  N   UNL A   1     -23.491  -0.682  29.193  0.00  0.00    -0.268 N 
ATOM      2  C   UNL A   1     -24.252   0.064  28.283  0.00  0.00    +0.250 C 
ATOM      3  O   UNL A   1     -24.560  -0.555  27.151  0.00  0.00    -0.270 OA
ENDROOT
BRANCH   2   4
ATOM      4  C   UNL A   1     -24.254   1.445  28.228  0.00  0.00    +0.058 C 
ATOM      5  C   UNL A   1     -25.496   2.088  28.309  0.00  0.00    +0.005 C 
BRANCH   5   6
ATOM      6  C   UNL A   1     -25.573   3.532  28.302  0.00  0.00    +0.000 A 
ATOM      7  C   UNL A   1     -26.065   4.191  29.390  0.00  0.00    +0.000 A 
ATOM      8  C   UNL A   1     -25.961   5.610  29.483  0.00  0.00    +0.000 A 
ATOM      9  C   UNL A   1     -25.411   6.291  28.358  0.00  0.00    +0.000 A 
ATOM     10  C   UNL A   1     -24.950   5.649  27.282  0.00  0.00    +0.000 A 
ATOM     11  C   UNL A   1     -25.014   4.255  27.220  0.00  0.00    +0.000 A 
ENDBRANCH   5   6
ENDBRANCH   2   4
BRANCH   1  12
ATOM     12  C   UNL A   1     -22.821  -0.067  30.272  0.00  0.00    +0.121 C 
BRANCH  12  16
ATOM     13  C   UNL A   1     -23.840  -1.249  33.789  0.00  0.00    +0.004 A 
ATOM     14  C   UNL A   1     -24.700  -0.648  33.892  0.00  0.00    +0.055 A 
ATOM     15  C   UNL A   1     -23.119  -1.154  32.510  0.00  0.00    -0.003 A 
ATOM     16  C   UNL A   1     -23.501  -0.189  31.532  0.00  0.00    -0.002 A 
ATOM     17  C   UNL A   1     -25.268   0.456  33.071  0.00  0.00    +0.004 A 
ATOM     18  C   UNL A   1     -24.631   0.568  31.871  0.00  0.00    -0.003 A 
BRANCH  14  19
ATOM     19  C   UNL A   1     -25.498  -0.708  35.270  0.00  0.00    +0.269 C 
ATOM     20  O   UNL A   1     -26.606  -0.656  35.389  0.00  0.00    -0.268 OA
ATOM     21  N   UNL A   1     -24.626  -0.698  36.357  0.00  0.00    -0.179 NA
BRANCH  21  22
ATOM     22  C   UNL A   1     -25.173  -0.604  37.668  0.00  0.00    +0.059 C 
ATOM     23  C   UNL A   1     -25.640   0.088  38.218  0.00  0.00    +0.014 C 
BRANCH  22  24
ATOM     24  C   UNL A   1     -24.983  -2.036  38.216  0.00  0.00    +0.102 C 
BRANCH  24  25
ATOM     25  P   UNL A   1     -26.350  -2.858  38.669  0.00  0.00    +0.123 P 
ATOM     26  O   UNL A   1     -27.346  -2.803  37.865  0.00  0.00    -0.460 OA
ATOM     27  O   UNL A   1     -25.810  -4.337  38.803  0.00  0.00    -0.357 OA
ATOM     28  O   UNL A   1     -26.692  -2.376  40.097  0.00  0.00    -0.357 OA
ENDBRANCH  24  25
ENDBRANCH  22  24
ENDBRANCH  21  22
ENDBRANCH  14  19
ENDBRANCH  12  16
ENDBRANCH   1  12
BRANCH   1  29
ATOM     29  C   UNL A   1     -23.423  -2.037  28.961  0.00  0.00    +0.121 C 
BRANCH  29  30
ATOM     30  C   UNL A   1     -24.295  -2.916  29.583  0.00  0.00    -0.002 A 
ATOM     31  C   UNL A   1     -25.535  -2.546  29.938  0.00  0.00    -0.003 A 
ATOM     32  C   UNL A   1     -26.584  -3.468  30.006  0.00  0.00    -0.000 A 
ATOM     33  C   UNL A   1     -26.332  -4.816  29.662  0.00  0.00    -0.000 A 
ATOM     34  C   UNL A   1     -25.141  -5.125  29.069  0.00  0.00    -0.000 A 
ATOM     35  C   UNL A   1     -24.169  -4.219  28.914  0.00  0.00    -0.003 A 
ENDBRANCH  29  30
ENDBRANCH   1  29
TORSDOF 10
ENDMDL
ENDMDL
