REMARK  Name = No_288-gen_results/8p0m/2024-11-26-14-13-15/
REMARK  0 active torsions:
REMARK  status: ('A' for Active; 'I' for Inactive)
REMARK                            x       y       z     vdW  Elec       q    Type
REMARK                         _______ _______ _______ _____ _____    ______ ____
ROOT
ATOM      1  C   UNL A   1     -28.016  -0.814  28.878  0.00  0.00    -0.004 A 
ATOM      2  C   UNL A   1     -27.064  -0.119  28.608  0.00  0.00    -0.015 A 
ATOM      3  C   UNL A   1     -25.792  -0.430  29.076  0.00  0.00    +0.053 C 
ATOM      4  C   UNL A   1     -24.546   0.349  28.823  0.00  0.00    -0.015 A 
ATOM      5  C   UNL A   1     -23.241   0.022  29.332  0.00  0.00    -0.004 A 
ATOM      6  C   UNL A   1     -22.136   0.769  29.006  0.00  0.00    -0.000 A 
ATOM      7  C   UNL A   1     -29.352  -0.351  28.701  0.00  0.00    -0.000 A 
ATOM      8  C   UNL A   1     -29.533   0.720  27.844  0.00  0.00    +0.000 A 
ATOM      9  C   UNL A   1     -28.434   1.436  27.369  0.00  0.00    +0.003 A 
ATOM     10  C   UNL A   1     -27.111   1.094  27.812  0.00  0.00    +0.035 A 
ATOM     11  C   UNL A   1     -22.168   1.820  28.099  0.00  0.00    +0.000 A 
ATOM     12  C   UNL A   1     -23.434   2.162  27.549  0.00  0.00    +0.003 A 
ATOM     13  C   UNL A   1     -24.563   1.426  27.856  0.00  0.00    +0.035 A 
ATOM     14  C   UNL A   1     -25.940   1.811  27.407  0.00  0.00    +0.195 C 
ATOM     15  O   UNL A   1     -26.012   2.832  26.640  0.00  0.00    -0.287 OA
ENDROOT
TORSDOF 0
