MODEL 2880
MODEL 1
REMARK VINA RESULT:    -8.253      0.000      0.000
REMARK INTER + INTRA:         -15.384
REMARK INTER:                 -13.077
REMARK INTRA:                  -2.307
REMARK UNBOUND:                -2.307
REMARK  Name = No_2880-gen_results/8p0m/2024-11-26-14-13-15/
REMARK  10 active torsions:
REMARK  status: ('A' for Active; 'I' for Inactive)
REMARK    1  A    between atoms: C_2  and  C_7
REMARK    2  A    between atoms: C_6  and  O_18
REMARK    3  A    between atoms: C_7  and  C_8
REMARK    4  A    between atoms: C_7  and  C_14
REMARK    5  A    between atoms: C_10  and  O_17
REMARK    6  A    between atoms: O_17  and  C_19
REMARK    7  A    between atoms: O_18  and  C_25
REMARK    8  A    between atoms: C_29  and  O_31
REMARK    9  A    between atoms: O_31  and  C_32
REMARK   10  A    between atoms: C_32  and  C_33
REMARK                            x       y       z     vdW  Elec       q    Type
REMARK                         _______ _______ _______ _____ _____    ______ ____
ROOT
ATOM      1  C   UNL A   1     -26.471   1.676  25.983  0.00  0.00    +0.034 A 
ATOM      2  C   UNL A   1     -25.344   1.243  25.905  0.00  0.00    -0.010 A 
ATOM      3  C   UNL A   1     -25.053   0.136  25.116  0.00  0.00    -0.004 A 
ATOM      4  C   UNL A   1     -26.094  -0.560  24.403  0.00  0.00    +0.003 A 
ATOM      5  C   UNL A   1     -27.370  -0.007  24.568  0.00  0.00    +0.037 A 
ATOM      6  C   UNL A   1     -27.595   1.033  25.339  0.00  0.00    +0.145 A 
ENDROOT
BRANCH   2   7
ATOM      7  C   UNL A   1     -24.007   1.733  26.459  0.00  0.00    +0.112 C 
BRANCH   7   8
ATOM      8  C   UNL A   1     -23.293   1.274  27.233  0.00  0.00    -0.010 A 
ATOM      9  C   UNL A   1     -23.860   0.194  28.170  0.00  0.00    +0.034 A 
ATOM     10  C   UNL A   1     -22.947  -0.435  29.078  0.00  0.00    +0.145 A 
ATOM     11  C   UNL A   1     -21.615  -0.129  29.008  0.00  0.00    +0.037 A 
ATOM     12  C   UNL A   1     -21.067   0.736  28.123  0.00  0.00    +0.003 A 
ATOM     13  C   UNL A   1     -21.901   1.427  27.235  0.00  0.00    -0.004 A 
BRANCH  10  14
ATOM     14  O   UNL A   1     -23.428  -1.324  29.935  0.00  0.00    -0.454 OA
BRANCH  14  15
ATOM     15  C   UNL A   1     -24.265  -2.268  29.733  0.00  0.00    +0.145 A 
ATOM     16  C   UNL A   1     -23.792  -3.423  29.022  0.00  0.00    +0.037 A 
ATOM     17  C   UNL A   1     -24.645  -4.586  28.896  0.00  0.00    +0.003 A 
ATOM     18  C   UNL A   1     -25.948  -4.496  29.348  0.00  0.00    +0.000 A 
ATOM     19  C   UNL A   1     -25.561  -2.309  30.226  0.00  0.00    +0.037 A 
ATOM     20  C   UNL A   1     -26.400  -3.396  30.036  0.00  0.00    +0.003 A 
ENDBRANCH  14  15
ENDBRANCH  10  14
ENDBRANCH   7   8
BRANCH   7  21
ATOM     21  C   UNL A   1     -23.943   3.283  26.418  0.00  0.00    +0.326 C 
ATOM     22  F   UNL A   1     -24.230   3.793  27.390  0.00  0.00    -0.198 F 
ATOM     23  F   UNL A   1     -23.637   3.802  25.348  0.00  0.00    -0.198 F 
ENDBRANCH   7  21
ENDBRANCH   2   7
BRANCH   6  24
ATOM     24  O   UNL A   1     -28.827   1.512  25.513  0.00  0.00    -0.450 OA
BRANCH  24  25
ATOM     25  C   UNL A   1     -29.749   1.553  24.453  0.00  0.00    +0.179 A 
ATOM     26  C   UNL A   1     -29.692   2.548  23.711  0.00  0.00    +0.041 A 
ATOM     27  C   UNL A   1     -30.310   3.667  24.379  0.00  0.00    +0.003 A 
ATOM     28  C   UNL A   1     -31.490   3.617  24.605  0.00  0.00    +0.003 A 
ATOM     29  C   UNL A   1     -31.152   1.326  25.095  0.00  0.00    +0.174 A 
ATOM     30  C   UNL A   1     -31.873   2.455  25.459  0.00  0.00    +0.040 A 
BRANCH  29  31
ATOM     31  O   UNL A   1     -31.538   0.040  25.383  0.00  0.00    -0.461 OA
BRANCH  31  32
ATOM     32  C   UNL A   1     -31.859  -0.871  24.486  0.00  0.00    +0.319 C 
BRANCH  32  33
ATOM     33  C   UNL A   1     -31.083  -1.890  24.466  0.00  0.00    +0.408 C 
ATOM     34  O   UNL A   1     -31.302  -2.902  25.073  0.00  0.00    -0.241 OA
ATOM     35  O   UNL A   1     -29.981  -1.872  23.712  0.00  0.00    -0.241 OA
ENDBRANCH  32  33
ENDBRANCH  31  32
ENDBRANCH  29  31
ENDBRANCH  24  25
ENDBRANCH   6  24
TORSDOF 10
ENDMDL
ENDMDL
