REMARK  Name = No_2880-gen_results/8p0m/2024-11-26-14-13-15/
REMARK  10 active torsions:
REMARK  status: ('A' for Active; 'I' for Inactive)
REMARK    1  A    between atoms: C_2  and  C_7
REMARK    2  A    between atoms: C_6  and  O_18
REMARK    3  A    between atoms: C_7  and  C_8
REMARK    4  A    between atoms: C_7  and  C_14
REMARK    5  A    between atoms: C_10  and  O_17
REMARK    6  A    between atoms: O_17  and  C_19
REMARK    7  A    between atoms: O_18  and  C_25
REMARK    8  A    between atoms: C_29  and  O_31
REMARK    9  A    between atoms: O_31  and  C_32
REMARK   10  A    between atoms: C_32  and  C_33
REMARK                            x       y       z     vdW  Elec       q    Type
REMARK                         _______ _______ _______ _____ _____    ______ ____
ROOT
ATOM      1  C   UNL A   1     -28.016  -0.814  28.878  0.00  0.00    +0.034 A 
ATOM      2  C   UNL A   1     -27.064  -0.119  28.608  0.00  0.00    -0.010 A 
ATOM      3  C   UNL A   1     -25.792  -0.430  29.076  0.00  0.00    -0.004 A 
ATOM      4  C   UNL A   1     -25.576  -1.565  29.936  0.00  0.00    +0.003 A 
ATOM      5  C   UNL A   1     -26.735  -2.300  30.217  0.00  0.00    +0.037 A 
ATOM      6  C   UNL A   1     -27.918  -1.954  29.763  0.00  0.00    +0.145 A 
ENDROOT
BRANCH   2   7
ATOM      7  C   UNL A   1     -26.897   1.102  27.705  0.00  0.00    +0.112 C 
BRANCH   7   8
ATOM      8  C   UNL A   1     -26.664   2.200  27.949  0.00  0.00    -0.010 A 
ATOM      9  C   UNL A   1     -26.271   2.538  29.397  0.00  0.00    +0.034 A 
ATOM     10  C   UNL A   1     -25.902   3.893  29.680  0.00  0.00    +0.145 A 
ATOM     11  C   UNL A   1     -25.816   4.793  28.652  0.00  0.00    +0.037 A 
ATOM     12  C   UNL A   1     -26.050   4.503  27.351  0.00  0.00    +0.003 A 
ATOM     13  C   UNL A   1     -26.463   3.211  27.001  0.00  0.00    -0.004 A 
BRANCH  10  14
ATOM     14  O   UNL A   1     -25.619   4.217  30.933  0.00  0.00    -0.454 OA
BRANCH  14  15
ATOM     15  C   UNL A   1     -25.691   5.356  31.508  0.00  0.00    +0.145 A 
ATOM     16  C   UNL A   1     -24.980   5.511  32.747  0.00  0.00    +0.037 A 
ATOM     17  C   UNL A   1     -24.897   6.816  33.367  0.00  0.00    +0.003 A 
ATOM     18  C   UNL A   1     -25.625   7.853  32.814  0.00  0.00    +0.000 A 
ATOM     19  C   UNL A   1     -26.317   6.479  30.988  0.00  0.00    +0.037 A 
ATOM     20  C   UNL A   1     -26.298   7.709  31.625  0.00  0.00    +0.003 A 
ENDBRANCH  14  15
ENDBRANCH  10  14
ENDBRANCH   7   8
BRANCH   7  21
ATOM     21  C   UNL A   1     -27.738   0.933  26.411  0.00  0.00    +0.326 C 
ATOM     22  F   UNL A   1     -28.400   1.819  26.159  0.00  0.00    -0.198 F 
ATOM     23  F   UNL A   1     -27.643  -0.139  25.819  0.00  0.00    -0.198 F 
ENDBRANCH   7  21
ENDBRANCH   2   7
BRANCH   6  24
ATOM     24  O   UNL A   1     -29.012  -2.646  30.083  0.00  0.00    -0.450 OA
BRANCH  24  25
ATOM     25  C   UNL A   1     -28.922  -3.939  30.628  0.00  0.00    +0.179 A 
ATOM     26  C   UNL A   1     -28.984  -4.882  29.822  0.00  0.00    +0.041 A 
ATOM     27  C   UNL A   1     -30.358  -5.073  29.428  0.00  0.00    +0.003 A 
ATOM     28  C   UNL A   1     -31.148  -5.431  30.261  0.00  0.00    +0.003 A 
ATOM     29  C   UNL A   1     -29.995  -4.004  31.757  0.00  0.00    +0.174 A 
ATOM     30  C   UNL A   1     -31.250  -4.488  31.413  0.00  0.00    +0.040 A 
BRANCH  29  31
ATOM     31  O   UNL A   1     -29.688  -3.464  32.982  0.00  0.00    -0.461 OA
BRANCH  31  32
ATOM     32  C   UNL A   1     -30.337  -2.468  33.552  0.00  0.00    +0.319 C 
BRANCH  32  33
ATOM     33  C   UNL A   1     -29.586  -1.523  33.979  0.00  0.00    +0.408 C 
ATOM     34  O   UNL A   1     -28.662  -1.696  34.726  0.00  0.00    -0.241 OA
ATOM     35  O   UNL A   1     -29.792  -0.271  33.563  0.00  0.00    -0.241 OA
ENDBRANCH  32  33
ENDBRANCH  31  32
ENDBRANCH  29  31
ENDBRANCH  24  25
ENDBRANCH   6  24
TORSDOF 10
