MODEL 2881
MODEL 1
REMARK VINA RESULT:    -6.668      0.000      0.000
REMARK INTER + INTRA:          -7.388
REMARK INTER:                  -7.058
REMARK INTRA:                  -0.330
REMARK UNBOUND:                -0.330
REMARK  Name = No_2881-gen_results/8p0m/2024-11-26-14-13-15/
REMARK  1 active torsions:
REMARK  status: ('A' for Active; 'I' for Inactive)
REMARK    1  A    between atoms: C_2  and  C_7
REMARK                            x       y       z     vdW  Elec       q    Type
REMARK                         _______ _______ _______ _____ _____    ______ ____
ROOT
ATOM      1  C   UNL A   1     -24.454  -0.403  28.066  0.00  0.00    +0.000 A 
ATOM      2  C   UNL A   1     -23.923  -1.299  28.680  0.00  0.00    +0.000 A 
ATOM      3  C   UNL A   1     -22.618  -1.177  29.143  0.00  0.00    +0.000 A 
ATOM      4  C   UNL A   1     -21.841   0.004  28.866  0.00  0.00    +0.000 A 
ATOM      5  C   UNL A   1     -22.525   0.980  28.131  0.00  0.00    +0.000 A 
ATOM      6  C   UNL A   1     -23.754   0.809  27.701  0.00  0.00    +0.000 A 
ENDROOT
BRANCH   2   7
ATOM      7  C   UNL A   1     -24.562  -2.596  29.031  0.00  0.00    +0.000 A 
ATOM      8  C   UNL A   1     -25.671  -2.826  29.488  0.00  0.00    +0.000 A 
ATOM      9  C   UNL A   1     -26.254  -4.159  29.685  0.00  0.00    +0.000 A 
ATOM     10  C   UNL A   1     -25.442  -5.261  29.343  0.00  0.00    +0.000 A 
ATOM     11  C   UNL A   1     -23.996  -3.891  28.564  0.00  0.00    +0.000 A 
ATOM     12  C   UNL A   1     -24.353  -5.060  28.756  0.00  0.00    +0.000 A 
ENDBRANCH   2   7
TORSDOF 1
ENDMDL
ENDMDL
