REMARK  Name = No_2881-gen_results/8p0m/2024-11-26-14-13-15/
REMARK  1 active torsions:
REMARK  status: ('A' for Active; 'I' for Inactive)
REMARK    1  A    between atoms: C_2  and  C_7
REMARK                            x       y       z     vdW  Elec       q    Type
REMARK                         _______ _______ _______ _____ _____    ______ ____
ROOT
ATOM      1  C   UNL A   1     -28.016  -0.814  28.878  0.00  0.00    +0.000 A 
ATOM      2  C   UNL A   1     -27.064  -0.119  28.608  0.00  0.00    +0.000 A 
ATOM      3  C   UNL A   1     -25.792  -0.430  29.076  0.00  0.00    +0.000 A 
ATOM      4  C   UNL A   1     -25.576  -1.565  29.936  0.00  0.00    +0.000 A 
ATOM      5  C   UNL A   1     -26.735  -2.300  30.217  0.00  0.00    +0.000 A 
ATOM      6  C   UNL A   1     -27.918  -1.954  29.763  0.00  0.00    +0.000 A 
ENDROOT
BRANCH   2   7
ATOM      7  C   UNL A   1     -27.106   1.102  27.759  0.00  0.00    +0.000 A 
ATOM      8  C   UNL A   1     -26.716   2.235  27.994  0.00  0.00    +0.000 A 
ATOM      9  C   UNL A   1     -26.693   3.346  27.034  0.00  0.00    +0.000 A 
ATOM     10  C   UNL A   1     -27.196   3.078  25.744  0.00  0.00    +0.000 A 
ATOM     11  C   UNL A   1     -27.387   1.022  26.299  0.00  0.00    +0.000 A 
ATOM     12  C   UNL A   1     -27.485   1.899  25.432  0.00  0.00    +0.000 A 
ENDBRANCH   2   7
TORSDOF 1
