MODEL 2882
MODEL 1
REMARK VINA RESULT:    -4.269      0.000      0.000
REMARK INTER + INTRA:          -4.269
REMARK INTER:                  -4.269
REMARK INTRA:                   0.000
REMARK UNBOUND:                 0.000
REMARK  Name = No_2882-gen_results/8p0m/2024-11-26-14-13-15/
REMARK  0 active torsions:
REMARK  status: ('A' for Active; 'I' for Inactive)
REMARK                            x       y       z     vdW  Elec       q    Type
REMARK                         _______ _______ _______ _____ _____    ______ ____
ROOT
ATOM      1  C   UNL A   1     -26.076  -4.787  29.667  0.00  0.00    +0.000 A 
ATOM      2  C   UNL A   1     -26.210  -3.586  29.724  0.00  0.00    +0.000 A 
ATOM      3  C   UNL A   1     -25.236  -2.689  29.332  0.00  0.00    +0.000 A 
ATOM      4  C   UNL A   1     -24.026  -3.210  28.794  0.00  0.00    +0.000 A 
ATOM      5  C   UNL A   1     -23.992  -4.548  28.592  0.00  0.00    +0.000 A 
ATOM      6  C   UNL A   1     -24.990  -5.328  28.962  0.00  0.00    +0.000 A 
ENDROOT
TORSDOF 0
ENDMDL
ENDMDL
