MODEL 2883
MODEL 1
REMARK VINA RESULT:    -7.916      0.000      0.000
REMARK INTER + INTRA:         -12.047
REMARK INTER:                 -10.230
REMARK INTRA:                  -1.817
REMARK UNBOUND:                -1.817
REMARK  Name = No_2883-gen_results/8p0m/2024-11-26-14-13-15/
REMARK  5 active torsions:
REMARK  status: ('A' for Active; 'I' for Inactive)
REMARK    1  A    between atoms: C_4  and  C_11
REMARK    2  A    between atoms: C_7  and  O_21
REMARK    3  A    between atoms: C_11  and  C_12
REMARK    4  A    between atoms: C_12  and  C_13
REMARK    5  A    between atoms: O_21  and  C_22
REMARK                            x       y       z     vdW  Elec       q    Type
REMARK                         _______ _______ _______ _____ _____    ______ ____
ROOT
ATOM      1  C   UNL A   1     -26.548  -0.081  26.559  0.00  0.00    +0.037 A 
ATOM      2  C   UNL A   1     -25.872   0.022  27.557  0.00  0.00    +0.003 A 
ATOM      3  C   UNL A   1     -24.594   0.580  27.568  0.00  0.00    -0.003 A 
ATOM      4  C   UNL A   1     -23.698   0.735  28.731  0.00  0.00    -0.015 A 
ATOM      5  C   UNL A   1     -22.365   1.279  28.698  0.00  0.00    -0.004 A 
ATOM      6  C   UNL A   1     -22.006   1.877  27.486  0.00  0.00    -0.000 A 
ATOM      7  C   UNL A   1     -25.901   0.267  25.248  0.00  0.00    +0.145 A 
ATOM      8  C   UNL A   1     -24.684   0.903  25.173  0.00  0.00    +0.037 A 
ATOM      9  C   UNL A   1     -23.934   1.059  26.325  0.00  0.00    +0.003 A 
ATOM     10  C   UNL A   1     -22.699   1.706  26.306  0.00  0.00    +0.000 A 
ENDROOT
BRANCH   4  11
ATOM     11  C   UNL A   1     -24.140   0.265  30.084  0.00  0.00    +0.084 C 
ATOM     12  C   UNL A   1     -24.977   1.202  30.700  0.00  0.00    +0.013 C 
BRANCH  11  13
ATOM     13  C   UNL A   1     -23.855  -0.940  30.420  0.00  0.00    +0.177 C 
ATOM     14  O   UNL A   1     -22.929  -1.092  31.445  0.00  0.00    -0.291 OA
BRANCH  13  15
ATOM     15  C   UNL A   1     -24.542  -2.091  30.095  0.00  0.00    +0.035 A 
ATOM     16  C   UNL A   1     -25.599  -2.401  30.335  0.00  0.00    +0.003 A 
ATOM     17  C   UNL A   1     -26.292  -3.652  29.912  0.00  0.00    +0.000 A 
ATOM     18  C   UNL A   1     -25.526  -4.501  29.153  0.00  0.00    +0.000 A 
ATOM     19  C   UNL A   1     -24.266  -4.139  28.700  0.00  0.00    +0.000 A 
ATOM     20  C   UNL A   1     -23.736  -3.045  29.120  0.00  0.00    +0.003 A 
ENDBRANCH  13  15
ENDBRANCH  11  13
ENDBRANCH   4  11
BRANCH   7  21
ATOM     21  O   UNL A   1     -26.662   0.070  24.107  0.00  0.00    -0.452 OA
BRANCH  21  22
ATOM     22  C   UNL A   1     -27.850   0.656  23.993  0.00  0.00    +0.164 A 
ATOM     23  C   UNL A   1     -28.024   1.855  23.974  0.00  0.00    +0.041 A 
ATOM     24  C   UNL A   1     -29.303   2.450  23.687  0.00  0.00    +0.024 A 
ATOM     25  C   UNL A   1     -30.337   1.589  23.588  0.00  0.00    +0.099 A 
ATOM     26  C   UNL A   1     -28.950  -0.262  23.818  0.00  0.00    +0.136 A 
ATOM     27  N   UNL A   1     -30.148   0.252  23.604  0.00  0.00    -0.239 NA
ENDBRANCH  21  22
ENDBRANCH   7  21
TORSDOF 5
ENDMDL
ENDMDL
