REMARK  Name = No_2883-gen_results/8p0m/2024-11-26-14-13-15/
REMARK  5 active torsions:
REMARK  status: ('A' for Active; 'I' for Inactive)
REMARK    1  A    between atoms: C_4  and  C_11
REMARK    2  A    between atoms: C_7  and  O_21
REMARK    3  A    between atoms: C_11  and  C_12
REMARK    4  A    between atoms: C_12  and  C_13
REMARK    5  A    between atoms: O_21  and  C_22
REMARK                            x       y       z     vdW  Elec       q    Type
REMARK                         _______ _______ _______ _____ _____    ______ ____
ROOT
ATOM      1  C   UNL A   1     -28.016  -0.814  28.878  0.00  0.00    +0.037 A 
ATOM      2  C   UNL A   1     -27.064  -0.119  28.608  0.00  0.00    +0.003 A 
ATOM      3  C   UNL A   1     -25.765  -0.390  29.036  0.00  0.00    -0.003 A 
ATOM      4  C   UNL A   1     -24.552   0.406  28.765  0.00  0.00    -0.015 A 
ATOM      5  C   UNL A   1     -23.230   0.118  29.258  0.00  0.00    -0.004 A 
ATOM      6  C   UNL A   1     -23.094  -1.131  29.873  0.00  0.00    -0.000 A 
ATOM      7  C   UNL A   1     -27.798  -1.934  29.856  0.00  0.00    +0.145 A 
ATOM      8  C   UNL A   1     -26.542  -2.327  30.258  0.00  0.00    +0.037 A 
ATOM      9  C   UNL A   1     -25.451  -1.552  29.908  0.00  0.00    +0.003 A 
ATOM     10  C   UNL A   1     -24.156  -1.910  30.281  0.00  0.00    +0.000 A 
ENDROOT
BRANCH   4  11
ATOM     11  C   UNL A   1     -24.645   1.658  27.946  0.00  0.00    +0.084 C 
ATOM     12  C   UNL A   1     -24.621   1.374  26.576  0.00  0.00    +0.013 C 
BRANCH  11  13
ATOM     13  C   UNL A   1     -24.896   2.756  28.561  0.00  0.00    +0.177 C 
ATOM     14  O   UNL A   1     -24.940   3.904  27.779  0.00  0.00    -0.291 OA
BRANCH  13  15
ATOM     15  C   UNL A   1     -25.397   2.914  29.836  0.00  0.00    +0.035 A 
ATOM     16  C   UNL A   1     -25.667   2.143  30.613  0.00  0.00    +0.003 A 
ATOM     17  C   UNL A   1     -26.168   2.391  31.996  0.00  0.00    +0.000 A 
ATOM     18  C   UNL A   1     -26.311   3.717  32.323  0.00  0.00    +0.000 A 
ATOM     19  C   UNL A   1     -25.877   4.728  31.478  0.00  0.00    +0.000 A 
ATOM     20  C   UNL A   1     -25.466   4.428  30.297  0.00  0.00    +0.003 A 
ENDBRANCH  13  15
ENDBRANCH  11  13
ENDBRANCH   4  11
BRANCH   7  21
ATOM     21  O   UNL A   1     -28.913  -2.674  30.215  0.00  0.00    -0.452 OA
BRANCH  21  22
ATOM     22  C   UNL A   1     -29.959  -2.069  30.771  0.00  0.00    +0.164 A 
ATOM     23  C   UNL A   1     -29.881  -1.149  31.555  0.00  0.00    +0.041 A 
ATOM     24  C   UNL A   1     -31.034  -0.416  32.008  0.00  0.00    +0.024 A 
ATOM     25  C   UNL A   1     -32.229  -0.912  31.624  0.00  0.00    +0.099 A 
ATOM     26  C   UNL A   1     -31.238  -2.553  30.310  0.00  0.00    +0.136 A 
ATOM     27  N   UNL A   1     -32.320  -1.935  30.747  0.00  0.00    -0.239 NA
ENDBRANCH  21  22
ENDBRANCH   7  21
TORSDOF 5
