MODEL 2884
MODEL 1
REMARK VINA RESULT:    -5.078      0.000      0.000
REMARK INTER + INTRA:          -5.413
REMARK INTER:                  -5.375
REMARK INTRA:                  -0.038
REMARK UNBOUND:                -0.038
REMARK  Name = No_2884-gen_results/8p0m/2024-11-26-14-13-15/
REMARK  1 active torsions:
REMARK  status: ('A' for Active; 'I' for Inactive)
REMARK    1  A    between atoms: C_2  and  C_7
REMARK                            x       y       z     vdW  Elec       q    Type
REMARK                         _______ _______ _______ _____ _____    ______ ____
ROOT
ATOM      1  C   UNL A   1      -8.535 -10.583  18.493  0.00  0.00    +0.007 A 
ATOM      2  C   UNL A   1      -9.417 -10.083  18.207  0.00  0.00    +0.080 A 
ATOM      3  C   UNL A   1      -7.707  -9.886  19.550  0.00  0.00    +0.000 A 
ATOM      4  C   UNL A   1      -8.345  -9.475  20.710  0.00  0.00    +0.000 A 
ATOM      5  C   UNL A   1     -10.407  -9.472  19.211  0.00  0.00    +0.007 A 
ATOM      6  C   UNL A   1      -9.761  -9.027  20.401  0.00  0.00    +0.000 A 
ENDROOT
BRANCH   2   7
ATOM      7  C   UNL A   1     -10.256 -10.542  16.967  0.00  0.00    +0.388 C 
ATOM      8  O   UNL A   1      -9.507 -11.046  16.044  0.00  0.00    -0.241 OA
ATOM      9  O   UNL A   1     -11.495 -10.518  16.994  0.00  0.00    -0.241 OA
ENDBRANCH   2   7
TORSDOF 1
ENDMDL
ENDMDL
