REMARK  Name = No_2885-gen_results/8p0m/2024-11-26-14-13-15/
REMARK  7 active torsions:
REMARK  status: ('A' for Active; 'I' for Inactive)
REMARK    1  A    between atoms: C_2  and  C_19
REMARK    2  A    between atoms: C_14  and  O_27
REMARK    3  A    between atoms: C_19  and  O_21
REMARK    4  A    between atoms: O_21  and  C_22
REMARK    5  A    between atoms: C_22  and  C_23
REMARK    6  A    between atoms: O_27  and  C_28
REMARK    7  A    between atoms: C_28  and  C_29
REMARK                            x       y       z     vdW  Elec       q    Type
REMARK                         _______ _______ _______ _____ _____    ______ ____
ROOT
ATOM      1  C   UNL A   1     -28.016  -0.814  28.878  0.00  0.00    +0.006 A 
ATOM      2  C   UNL A   1     -28.469  -0.785  29.829  0.00  0.00    +0.076 A 
ATOM      3  C   UNL A   1     -26.546  -0.876  28.850  0.00  0.00    +0.003 A 
ATOM      4  C   UNL A   1     -25.804  -1.032  30.057  0.00  0.00    +0.001 A 
ATOM      5  C   UNL A   1     -27.944  -0.987  31.207  0.00  0.00    +0.006 A 
ATOM      6  C   UNL A   1     -26.582  -1.039  31.223  0.00  0.00    +0.000 A 
ATOM      7  C   UNL A   1     -24.425  -0.957  29.910  0.00  0.00    +0.018 A 
ATOM      8  C   UNL A   1     -23.665  -1.552  30.500  0.00  0.00    +0.095 C 
ATOM      9  C   UNL A   1     -23.891  -0.131  28.820  0.00  0.00    +0.019 A 
ATOM     10  C   UNL A   1     -24.429   0.876  28.075  0.00  0.00    +0.002 A 
ATOM     11  C   UNL A   1     -24.087   1.777  27.645  0.00  0.00    -0.000 A 
ATOM     12  C   UNL A   1     -24.789   2.779  26.773  0.00  0.00    +0.003 A 
ATOM     13  C   UNL A   1     -26.115   2.552  26.587  0.00  0.00    +0.037 A 
ATOM     14  C   UNL A   1     -26.610   1.460  27.047  0.00  0.00    +0.139 A 
ATOM     15  C   UNL A   1     -25.892   0.564  27.799  0.00  0.00    +0.034 A 
ATOM     16  N   UNL A   1     -22.339  -1.369  30.215  0.00  0.00    -0.247 NA
ATOM     17  C   UNL A   1     -22.507  -0.397  29.160  0.00  0.00    +0.216 C 
ATOM     18  N   UNL A   1     -21.364   0.070  28.537  0.00  0.00    -0.101 NA
ENDROOT
BRANCH   2  19
ATOM     19  C   UNL A   1     -30.047  -0.950  30.043  0.00  0.00    +0.342 C 
ATOM     20  O   UNL A   1     -30.659  -1.620  30.559  0.00  0.00    -0.245 OA
BRANCH  19  21
ATOM     21  O   UNL A   1     -30.693  -0.014  29.218  0.00  0.00    -0.436 OA
BRANCH  21  22
ATOM     22  C   UNL A   1     -31.854   0.279  29.252  0.00  0.00    +0.311 C 
BRANCH  22  23
ATOM     23  C   UNL A   1     -32.200   1.255  28.279  0.00  0.00    +0.438 C 
ATOM     24  F   UNL A   1     -31.458   2.161  28.189  0.00  0.00    -0.166 F 
ATOM     25  F   UNL A   1     -32.251   0.661  26.980  0.00  0.00    -0.166 F 
ATOM     26  F   UNL A   1     -33.526   1.703  28.398  0.00  0.00    -0.166 F 
ENDBRANCH  22  23
ENDBRANCH  21  22
ENDBRANCH  19  21
ENDBRANCH   2  19
BRANCH  14  27
ATOM     27  O   UNL A   1     -27.967   1.139  26.898  0.00  0.00    -0.471 OA
BRANCH  27  28
ATOM     28  C   UNL A   1     -28.477   1.381  25.593  0.00  0.00    +0.232 C 
BRANCH  28  29
ATOM     29  C   UNL A   1     -29.430   0.467  25.190  0.00  0.00    +0.021 A 
ATOM     30  C   UNL A   1     -29.481   0.301  23.928  0.00  0.00    -0.001 A 
ATOM     31  C   UNL A   1     -30.443  -0.689  23.613  0.00  0.00    -0.000 A 
ATOM     32  C   UNL A   1     -31.122  -1.515  24.541  0.00  0.00    -0.000 A 
ATOM     33  C   UNL A   1     -31.199  -1.237  25.551  0.00  0.00    -0.000 A 
ATOM     34  C   UNL A   1     -30.205  -0.227  26.197  0.00  0.00    -0.001 A 
ENDBRANCH  28  29
ENDBRANCH  27  28
ENDBRANCH  14  27
TORSDOF 7
