MODEL 2885
MODEL 1
REMARK VINA RESULT:    -8.015      0.000      0.000
REMARK INTER + INTRA:         -13.391
REMARK INTER:                 -11.294
REMARK INTRA:                  -2.097
REMARK UNBOUND:                -2.097
REMARK  Name = No_2885-gen_results/8p0m/2024-11-26-14-13-15/
REMARK  7 active torsions:
REMARK  status: ('A' for Active; 'I' for Inactive)
REMARK    1  A    between atoms: C_2  and  C_19
REMARK    2  A    between atoms: C_14  and  O_27
REMARK    3  A    between atoms: C_19  and  O_21
REMARK    4  A    between atoms: O_21  and  C_22
REMARK    5  A    between atoms: C_22  and  C_23
REMARK    6  A    between atoms: O_27  and  C_28
REMARK    7  A    between atoms: C_28  and  C_29
REMARK                            x       y       z     vdW  Elec       q    Type
REMARK                         _______ _______ _______ _____ _____    ______ ____
ROOT
ATOM      1  C   UNL A   1     -11.655   1.369  36.065  0.00  0.00    +0.006 A 
ATOM      2  C   UNL A   1     -11.504   1.891  35.162  0.00  0.00    +0.076 A 
ATOM      3  C   UNL A   1     -12.825   1.762  36.867  0.00  0.00    +0.003 A 
ATOM      4  C   UNL A   1     -13.768   2.702  36.358  0.00  0.00    +0.001 A 
ATOM      5  C   UNL A   1     -12.346   2.848  34.394  0.00  0.00    +0.006 A 
ATOM      6  C   UNL A   1     -13.436   3.244  35.109  0.00  0.00    +0.000 A 
ATOM      7  C   UNL A   1     -14.760   3.078  37.255  0.00  0.00    +0.018 A 
ATOM      8  C   UNL A   1     -15.835   3.313  36.990  0.00  0.00    +0.095 C 
ATOM      9  C   UNL A   1     -14.439   3.060  38.687  0.00  0.00    +0.019 A 
ATOM     10  C   UNL A   1     -13.258   3.066  39.370  0.00  0.00    +0.002 A 
ATOM     11  C   UNL A   1     -12.895   3.484  40.268  0.00  0.00    -0.000 A 
ATOM     12  C   UNL A   1     -11.561   3.350  40.946  0.00  0.00    +0.003 A 
ATOM     13  C   UNL A   1     -10.624   2.663  40.243  0.00  0.00    +0.037 A 
ATOM     14  C   UNL A   1     -10.988   2.090  39.154  0.00  0.00    +0.139 A 
ATOM     15  C   UNL A   1     -12.244   2.219  38.616  0.00  0.00    +0.034 A 
ATOM     16  N   UNL A   1     -16.690   3.652  38.003  0.00  0.00    -0.247 NA
ATOM     17  C   UNL A   1     -15.746   3.539  39.091  0.00  0.00    +0.216 C 
ATOM     18  N   UNL A   1     -16.215   3.784  40.369  0.00  0.00    -0.101 NA
ENDROOT
BRANCH   2  19
ATOM     19  C   UNL A   1     -10.427   1.438  34.069  0.00  0.00    +0.342 C 
ATOM     20  O   UNL A   1     -10.349   1.509  33.030  0.00  0.00    -0.245 OA
BRANCH  19  21
ATOM     21  O   UNL A   1      -9.449   0.668  34.721  0.00  0.00    -0.436 OA
BRANCH  21  22
ATOM     22  C   UNL A   1      -8.267   0.717  34.534  0.00  0.00    +0.311 C 
BRANCH  22  23
ATOM     23  C   UNL A   1      -7.600  -0.471  34.937  0.00  0.00    +0.438 C 
ATOM     24  F   UNL A   1      -8.152  -1.105  35.758  0.00  0.00    -0.166 F 
ATOM     25  F   UNL A   1      -7.429  -1.345  33.819  0.00  0.00    -0.166 F 
ATOM     26  F   UNL A   1      -6.257  -0.255  35.290  0.00  0.00    -0.166 F 
ENDBRANCH  22  23
ENDBRANCH  21  22
ENDBRANCH  19  21
ENDBRANCH   2  19
BRANCH  14  27
ATOM     27  O   UNL A   1     -10.090   1.355  38.365  0.00  0.00    -0.471 OA
BRANCH  27  28
ATOM     28  C   UNL A   1      -9.589   0.185  38.999  0.00  0.00    +0.232 C 
BRANCH  28  29
ATOM     29  C   UNL A   1     -10.465  -0.882  38.969  0.00  0.00    +0.021 A 
ATOM     30  C   UNL A   1     -10.935  -1.193  40.112  0.00  0.00    -0.001 A 
ATOM     31  C   UNL A   1     -11.860  -2.256  39.976  0.00  0.00    -0.000 A 
ATOM     32  C   UNL A   1     -12.348  -2.785  38.757  0.00  0.00    -0.000 A 
ATOM     33  C   UNL A   1     -11.820  -2.642  37.860  0.00  0.00    -0.000 A 
ATOM     34  C   UNL A   1     -10.795  -1.481  37.693  0.00  0.00    -0.001 A 
ENDBRANCH  28  29
ENDBRANCH  27  28
ENDBRANCH  14  27
TORSDOF 7
ENDMDL
ENDMDL
