MODEL 2886
MODEL 1
REMARK VINA RESULT:    -6.628      0.000      0.000
REMARK INTER + INTRA:          -9.160
REMARK INTER:                  -8.565
REMARK INTRA:                  -0.595
REMARK UNBOUND:                -0.595
REMARK  Name = No_2886-gen_results/8p0m/2024-11-26-14-13-15/
REMARK  5 active torsions:
REMARK  status: ('A' for Active; 'I' for Inactive)
REMARK    1  A    between atoms: C_3  and  C_7
REMARK    2  A    between atoms: N_9  and  C_11
REMARK    3  A    between atoms: C_11  and  C_12
REMARK    4  A    between atoms: C_12  and  C_13
REMARK    5  A    between atoms: C_14  and  C_15
REMARK                            x       y       z     vdW  Elec       q    Type
REMARK                         _______ _______ _______ _____ _____    ______ ____
ROOT
ATOM      1  C   UNL A   1      -9.278  -0.060  36.954  0.00  0.00    +0.098 C 
ENDROOT
BRANCH   1   4
ATOM      2  C   UNL A   1      -8.589   0.705  34.753  0.00  0.00    +0.249 C 
ATOM      3  O   UNL A   1      -8.830   1.413  33.725  0.00  0.00    -0.270 OA
ATOM      4  N   UNL A   1      -9.476   0.676  35.736  0.00  0.00    -0.274 N 
ATOM      5  C   UNL A   1     -10.750   1.311  35.621  0.00  0.00    +0.115 C 
BRANCH   2   8
ATOM      6  C   UNL A   1      -7.305  -1.458  34.390  0.00  0.00    +0.004 A 
ATOM      7  C   UNL A   1      -6.357  -1.919  34.377  0.00  0.00    +0.000 A 
ATOM      8  C   UNL A   1      -7.266  -0.053  34.814  0.00  0.00    +0.054 A 
ATOM      9  C   UNL A   1      -6.165   0.516  35.307  0.00  0.00    +0.004 A 
ATOM     10  C   UNL A   1      -5.060  -1.525  34.870  0.00  0.00    +0.000 A 
ATOM     11  C   UNL A   1      -5.050  -0.225  35.282  0.00  0.00    +0.000 A 
ENDBRANCH   2   8
ENDBRANCH   1   4
BRANCH   1  12
ATOM     12  C   UNL A   1     -10.413  -0.946  37.239  0.00  0.00    +0.047 C 
BRANCH  12  13
ATOM     13  C   UNL A   1     -10.751  -1.007  38.563  0.00  0.00    -0.029 C 
ATOM     14  C   UNL A   1     -11.414  -1.733  39.039  0.00  0.00    -0.025 C 
ATOM     15  C   UNL A   1     -12.210  -2.817  38.365  0.00  0.00    +0.031 C 
BRANCH  14  16
ATOM     16  C   UNL A   1     -11.618  -1.884  40.540  0.00  0.00    +0.015 A 
ATOM     17  C   UNL A   1     -10.489  -2.305  41.264  0.00  0.00    +0.099 A 
ATOM     18  N   UNL A   1     -10.706  -2.342  42.582  0.00  0.00    -0.242 NA
ATOM     19  C   UNL A   1     -10.862  -1.327  43.264  0.00  0.00    +0.099 A 
ATOM     20  C   UNL A   1     -12.049  -0.531  42.774  0.00  0.00    +0.021 A 
ATOM     21  C   UNL A   1     -12.151  -0.540  41.297  0.00  0.00    +0.003 A 
ENDBRANCH  14  16
ENDBRANCH  12  13
ENDBRANCH   1  12
TORSDOF 5
ENDMDL
ENDMDL
