REMARK  Name = No_2886-gen_results/8p0m/2024-11-26-14-13-15/
REMARK  5 active torsions:
REMARK  status: ('A' for Active; 'I' for Inactive)
REMARK    1  A    between atoms: C_3  and  C_7
REMARK    2  A    between atoms: N_9  and  C_11
REMARK    3  A    between atoms: C_11  and  C_12
REMARK    4  A    between atoms: C_12  and  C_13
REMARK    5  A    between atoms: C_14  and  C_15
REMARK                            x       y       z     vdW  Elec       q    Type
REMARK                         _______ _______ _______ _____ _____    ______ ____
ROOT
ATOM      1  C   UNL A   1     -29.407   1.377  25.618  0.00  0.00    +0.098 C 
ENDROOT
BRANCH   1   4
ATOM      2  C   UNL A   1     -27.459   0.493  26.770  0.00  0.00    +0.249 C 
ATOM      3  O   UNL A   1     -26.237   0.144  26.727  0.00  0.00    -0.270 OA
ATOM      4  N   UNL A   1     -28.044   0.923  25.663  0.00  0.00    -0.274 N 
ATOM      5  C   UNL A   1     -27.384   0.885  24.397  0.00  0.00    +0.115 C 
BRANCH   2   8
ATOM      6  C   UNL A   1     -28.016  -0.814  28.878  0.00  0.00    +0.004 A 
ATOM      7  C   UNL A   1     -28.469  -0.785  29.829  0.00  0.00    +0.000 A 
ATOM      8  C   UNL A   1     -28.182   0.428  28.113  0.00  0.00    +0.054 A 
ATOM      9  C   UNL A   1     -28.984   1.415  28.515  0.00  0.00    +0.004 A 
ATOM     10  C   UNL A   1     -29.380   0.138  30.461  0.00  0.00    +0.000 A 
ATOM     11  C   UNL A   1     -29.541   1.274  29.724  0.00  0.00    +0.000 A 
ENDBRANCH   2   8
ENDBRANCH   1   4
BRANCH   1  12
ATOM     12  C   UNL A   1     -30.171   0.686  24.573  0.00  0.00    +0.047 C 
BRANCH  12  13
ATOM     13  C   UNL A   1     -30.902  -0.376  25.029  0.00  0.00    -0.029 C 
ATOM     14  C   UNL A   1     -31.990  -0.443  25.101  0.00  0.00    -0.025 C 
ATOM     15  C   UNL A   1     -32.990   0.641  24.803  0.00  0.00    +0.031 C 
BRANCH  14  16
ATOM     16  C   UNL A   1     -32.773  -1.705  25.435  0.00  0.00    +0.015 A 
ATOM     17  C   UNL A   1     -31.998  -2.859  25.642  0.00  0.00    +0.099 A 
ATOM     18  N   UNL A   1     -32.732  -3.914  26.010  0.00  0.00    -0.242 NA
ATOM     19  C   UNL A   1     -33.287  -3.994  27.108  0.00  0.00    +0.099 A 
ATOM     20  C   UNL A   1     -34.259  -2.854  27.300  0.00  0.00    +0.021 A 
ATOM     21  C   UNL A   1     -33.741  -1.584  26.743  0.00  0.00    +0.003 A 
ENDBRANCH  14  16
ENDBRANCH  12  13
ENDBRANCH   1  12
TORSDOF 5
