REMARK  Name = No_2887-gen_results/8p0m/2024-11-26-14-13-15/
REMARK  2 active torsions:
REMARK  status: ('A' for Active; 'I' for Inactive)
REMARK    1  A    between atoms: C_2  and  C_5
REMARK    2  A    between atoms: C_13  and  C_15
REMARK                            x       y       z     vdW  Elec       q    Type
REMARK                         _______ _______ _______ _____ _____    ______ ____
ROOT
ATOM      1  C   UNL A   1     -28.016  -0.814  28.878  0.00  0.00    +0.002 A 
ATOM      2  C   UNL A   1     -28.469  -0.785  29.829  0.00  0.00    +0.079 A 
ATOM      3  C   UNL A   1     -27.087   0.290  28.638  0.00  0.00    -0.025 A 
ATOM      4  C   UNL A   1     -26.832   1.249  29.587  0.00  0.00    -0.009 A 
ATOM      5  C   UNL A   1     -27.496   1.130  30.822  0.00  0.00    -0.003 A 
ATOM      6  C   UNL A   1     -28.338   0.036  31.033  0.00  0.00    +0.006 A 
ATOM      7  C   UNL A   1     -26.315   0.440  27.345  0.00  0.00    +0.034 C 
ATOM      8  C   UNL A   1     -25.253   1.126  27.234  0.00  0.00    +0.070 C 
ATOM      9  C   UNL A   1     -24.982   2.118  28.277  0.00  0.00    +0.166 C 
ATOM     10  C   UNL A   1     -25.643   2.104  29.459  0.00  0.00    +0.182 C 
ATOM     11  O   UNL A   1     -23.876   2.928  28.014  0.00  0.00    -0.295 OA
ENDROOT
BRANCH   2  12
ATOM     12  C   UNL A   1     -29.444  -1.948  30.184  0.00  0.00    +0.388 C 
ATOM     13  O   UNL A   1     -30.393  -1.834  29.864  0.00  0.00    -0.241 OA
ATOM     14  O   UNL A   1     -28.910  -3.004  30.838  0.00  0.00    -0.241 OA
ENDBRANCH   2  12
BRANCH  10  15
ATOM     15  C   UNL A   1     -25.275   3.091  30.520  0.00  0.00    +0.375 C 
ATOM     16  O   UNL A   1     -25.990   3.910  30.955  0.00  0.00    -0.245 OA
ATOM     17  O   UNL A   1     -24.150   2.639  31.209  0.00  0.00    -0.245 OA
ENDBRANCH  10  15
TORSDOF 2
