MODEL 2887
MODEL 1
REMARK VINA RESULT:    -6.612      0.000      0.000
REMARK INTER + INTRA:          -7.665
REMARK INTER:                  -7.385
REMARK INTRA:                  -0.280
REMARK UNBOUND:                -0.280
REMARK  Name = No_2887-gen_results/8p0m/2024-11-26-14-13-15/
REMARK  2 active torsions:
REMARK  status: ('A' for Active; 'I' for Inactive)
REMARK    1  A    between atoms: C_2  and  C_5
REMARK    2  A    between atoms: C_13  and  C_15
REMARK                            x       y       z     vdW  Elec       q    Type
REMARK                         _______ _______ _______ _____ _____    ______ ____
ROOT
ATOM      1  C   UNL A   1     -28.015 -11.942  31.646  0.00  0.00    +0.002 A 
ATOM      2  C   UNL A   1     -28.108 -11.428  32.561  0.00  0.00    +0.079 A 
ATOM      3  C   UNL A   1     -28.955 -11.488  30.621  0.00  0.00    -0.025 A 
ATOM      4  C   UNL A   1     -29.851 -10.473  30.851  0.00  0.00    -0.009 A 
ATOM      5  C   UNL A   1     -29.830  -9.866  32.120  0.00  0.00    -0.003 A 
ATOM      6  C   UNL A   1     -28.885 -10.292  33.056  0.00  0.00    +0.006 A 
ATOM      7  C   UNL A   1     -28.990 -12.078  29.228  0.00  0.00    +0.034 C 
ATOM      8  C   UNL A   1     -29.495 -11.486  28.225  0.00  0.00    +0.070 C 
ATOM      9  C   UNL A   1     -30.420 -10.382  28.492  0.00  0.00    +0.166 C 
ATOM     10  C   UNL A   1     -30.503  -9.805  29.715  0.00  0.00    +0.182 C 
ATOM     11  O   UNL A   1     -31.042  -9.876  27.350  0.00  0.00    -0.295 OA
ENDROOT
BRANCH   2  12
ATOM     12  C   UNL A   1     -27.116 -11.821  33.697  0.00  0.00    +0.388 C 
ATOM     13  O   UNL A   1     -26.735 -12.752  33.640  0.00  0.00    -0.241 OA
ATOM     14  O   UNL A   1     -26.832 -10.862  34.608  0.00  0.00    -0.241 OA
ENDBRANCH   2  12
BRANCH  10  15
ATOM     15  C   UNL A   1     -31.407  -8.631  29.915  0.00  0.00    +0.375 C 
ATOM     16  O   UNL A   1     -31.152  -7.527  29.619  0.00  0.00    -0.245 OA
ATOM     17  O   UNL A   1     -32.717  -9.075  30.090  0.00  0.00    -0.245 OA
ENDBRANCH  10  15
TORSDOF 2
ENDMDL
ENDMDL
