MODEL 2888
MODEL 1
REMARK VINA RESULT:    -7.223      0.000      0.000
REMARK INTER + INTRA:          -9.419
REMARK INTER:                  -8.490
REMARK INTRA:                  -0.929
REMARK UNBOUND:                -0.929
REMARK  Name = No_2888-gen_results/8p0m/2024-11-26-14-13-15/
REMARK  3 active torsions:
REMARK  status: ('A' for Active; 'I' for Inactive)
REMARK    1  A    between atoms: C_3  and  C_7
REMARK    2  A    between atoms: C_7  and  C_8
REMARK    3  A    between atoms: C_8  and  C_10
REMARK                            x       y       z     vdW  Elec       q    Type
REMARK                         _______ _______ _______ _____ _____    ______ ____
ROOT
ATOM      1  C   UNL A   1     -23.581  -1.301  29.922  0.00  0.00    +0.059 C 
ATOM      2  C   UNL A   1     -23.796  -0.666  31.213  0.00  0.00    +0.008 C 
ENDROOT
BRANCH   1   5
ATOM      3  C   UNL A   1     -23.839  -3.656  28.944  0.00  0.00    -0.004 A 
ATOM      4  C   UNL A   1     -24.462  -4.496  28.814  0.00  0.00    -0.000 A 
ATOM      5  C   UNL A   1     -24.364  -2.549  29.646  0.00  0.00    -0.019 A 
ATOM      6  C   UNL A   1     -25.653  -2.543  30.142  0.00  0.00    -0.004 A 
ATOM      7  C   UNL A   1     -26.401  -3.690  29.933  0.00  0.00    -0.000 A 
ATOM      8  C   UNL A   1     -25.834  -4.760  29.274  0.00  0.00    -0.000 A 
ENDBRANCH   1   5
BRANCH   1   9
ATOM      9  C   UNL A   1     -22.786  -0.802  29.118  0.00  0.00    +0.187 C 
ATOM     10  F   UNL A   1     -21.564  -1.203  28.965  0.00  0.00    -0.232 F 
BRANCH   9  11
ATOM     11  C   UNL A   1     -23.133   0.204  28.169  0.00  0.00    +0.010 A 
ATOM     12  C   UNL A   1     -24.237   0.052  27.356  0.00  0.00    -0.002 A 
ATOM     13  C   UNL A   1     -24.529   1.003  26.383  0.00  0.00    -0.000 A 
ATOM     14  C   UNL A   1     -23.614   1.993  26.044  0.00  0.00    -0.000 A 
ATOM     15  C   UNL A   1     -22.436   2.065  26.792  0.00  0.00    -0.000 A 
ATOM     16  C   UNL A   1     -22.157   1.203  27.757  0.00  0.00    -0.002 A 
ENDBRANCH   9  11
ENDBRANCH   1   9
TORSDOF 3
ENDMDL
ENDMDL
