REMARK  Name = No_2888-gen_results/8p0m/2024-11-26-14-13-15/
REMARK  3 active torsions:
REMARK  status: ('A' for Active; 'I' for Inactive)
REMARK    1  A    between atoms: C_3  and  C_7
REMARK    2  A    between atoms: C_7  and  C_8
REMARK    3  A    between atoms: C_8  and  C_10
REMARK                            x       y       z     vdW  Elec       q    Type
REMARK                         _______ _______ _______ _____ _____    ______ ____
ROOT
ATOM      1  C   UNL A   1     -26.408   0.307  27.226  0.00  0.00    +0.059 C 
ATOM      2  C   UNL A   1     -25.081  -0.288  27.183  0.00  0.00    +0.008 C 
ENDROOT
BRANCH   1   5
ATOM      3  C   UNL A   1     -28.016  -0.814  28.878  0.00  0.00    -0.004 A 
ATOM      4  C   UNL A   1     -28.469  -0.785  29.829  0.00  0.00    -0.000 A 
ATOM      5  C   UNL A   1     -27.136   0.236  28.535  0.00  0.00    -0.019 A 
ATOM      6  C   UNL A   1     -26.875   1.282  29.398  0.00  0.00    -0.004 A 
ATOM      7  C   UNL A   1     -27.507   1.238  30.630  0.00  0.00    -0.000 A 
ATOM      8  C   UNL A   1     -28.329   0.174  30.935  0.00  0.00    -0.000 A 
ENDBRANCH   1   5
BRANCH   1   9
ATOM      9  C   UNL A   1     -26.875   0.839  26.213  0.00  0.00    +0.187 C 
ATOM     10  F   UNL A   1     -26.280   0.851  25.063  0.00  0.00    -0.232 F 
BRANCH   9  11
ATOM     11  C   UNL A   1     -28.178   1.412  26.139  0.00  0.00    +0.010 A 
ATOM     12  C   UNL A   1     -28.734   1.740  24.920  0.00  0.00    -0.002 A 
ATOM     13  C   UNL A   1     -29.975   2.365  24.859  0.00  0.00    -0.000 A 
ATOM     14  C   UNL A   1     -30.579   2.883  25.999  0.00  0.00    -0.000 A 
ATOM     15  C   UNL A   1     -29.946   2.655  27.224  0.00  0.00    -0.000 A 
ATOM     16  C   UNL A   1     -28.789   2.018  27.314  0.00  0.00    -0.002 A 
ENDBRANCH   9  11
ENDBRANCH   1   9
TORSDOF 3
