MODEL 2889
MODEL 1
REMARK VINA RESULT:    -6.229      0.000      0.000
REMARK INTER + INTRA:          -6.797
REMARK INTER:                  -6.594
REMARK INTRA:                  -0.204
REMARK UNBOUND:                -0.204
REMARK  Name = No_2889-gen_results/8p0m/2024-11-26-14-13-15/
REMARK  1 active torsions:
REMARK  status: ('A' for Active; 'I' for Inactive)
REMARK    1  A    between atoms: C_9  and  C_11
REMARK                            x       y       z     vdW  Elec       q    Type
REMARK                         _______ _______ _______ _____ _____    ______ ____
ROOT
ATOM      1  C   UNL A   1     -22.132   1.600  27.189  0.00  0.00    -0.000 A 
ATOM      2  C   UNL A   1     -22.795   0.801  27.808  0.00  0.00    -0.000 A 
ATOM      3  C   UNL A   1     -24.053   0.411  27.362  0.00  0.00    -0.000 A 
ATOM      4  C   UNL A   1     -24.626   0.982  26.170  0.00  0.00    -0.000 A 
ATOM      5  C   UNL A   1     -23.801   1.915  25.528  0.00  0.00    -0.000 A 
ATOM      6  C   UNL A   1     -22.626   2.262  26.001  0.00  0.00    -0.000 A 
ATOM      7  C   UNL A   1     -22.376   0.133  29.070  0.00  0.00    -0.000 A 
ATOM      8  C   UNL A   1     -22.752  -1.053  29.397  0.00  0.00    +0.004 A 
ATOM      9  C   UNL A   1     -24.112  -1.526  28.898  0.00  0.00    +0.071 A 
ATOM     10  C   UNL A   1     -24.671  -0.866  27.811  0.00  0.00    +0.004 A 
ENDROOT
BRANCH   9  11
ATOM     11  C   UNL A   1     -24.749  -2.705  29.469  0.00  0.00    +0.419 C 
ATOM     12  F   UNL A   1     -25.737  -3.054  28.906  0.00  0.00    -0.166 F 
ATOM     13  F   UNL A   1     -23.817  -3.770  29.236  0.00  0.00    -0.166 F 
ATOM     14  F   UNL A   1     -24.891  -2.542  30.784  0.00  0.00    -0.166 F 
ENDBRANCH   9  11
TORSDOF 1
ENDMDL
ENDMDL
