REMARK  Name = No_289-gen_results/8p0m/2024-11-26-14-13-15/
REMARK  3 active torsions:
REMARK  status: ('A' for Active; 'I' for Inactive)
REMARK    1  A    between atoms: C_3  and  C_4
REMARK    2  A    between atoms: C_7  and  C_13
REMARK    3  A    between atoms: N_14  and  C_15
REMARK                            x       y       z     vdW  Elec       q    Type
REMARK                         _______ _______ _______ _____ _____    ______ ____
ROOT
ATOM      1  C   UNL A   1     -28.016  -0.814  28.878  0.00  0.00    +0.005 A 
ATOM      2  C   UNL A   1     -27.064  -0.119  28.608  0.00  0.00    +0.000 A 
ATOM      3  C   UNL A   1     -25.792  -0.430  29.076  0.00  0.00    +0.000 A 
ATOM      4  C   UNL A   1     -27.905  -1.898  29.873  0.00  0.00    +0.055 A 
ATOM      5  C   UNL A   1     -26.680  -2.314  30.318  0.00  0.00    +0.005 A 
ATOM      6  C   UNL A   1     -25.520  -1.556  29.977  0.00  0.00    +0.000 A 
ENDROOT
BRANCH   3   7
ATOM      7  C   UNL A   1     -24.546   0.349  28.823  0.00  0.00    +0.000 A 
ATOM      8  C   UNL A   1     -23.241   0.022  29.332  0.00  0.00    +0.000 A 
ATOM      9  C   UNL A   1     -22.136   0.769  29.006  0.00  0.00    +0.000 A 
ATOM     10  C   UNL A   1     -22.125   1.736  28.024  0.00  0.00    +0.000 A 
ATOM     11  C   UNL A   1     -24.544   1.386  27.792  0.00  0.00    +0.000 A 
ATOM     12  C   UNL A   1     -23.337   2.047  27.452  0.00  0.00    +0.000 A 
ENDBRANCH   3   7
BRANCH   4  13
ATOM     13  C   UNL A   1     -29.060  -2.717  30.289  0.00  0.00    +0.269 C 
ATOM     14  N   UNL A   1     -28.966  -4.014  30.446  0.00  0.00    -0.175 NA
ATOM     15  O   UNL A   1     -30.174  -2.160  30.405  0.00  0.00    -0.268 OA
BRANCH  14  16
ATOM     16  C   UNL A   1     -30.027  -4.868  30.237  0.00  0.00    +0.074 A 
ATOM     17  C   UNL A   1     -30.738  -4.830  29.108  0.00  0.00    +0.017 A 
ATOM     18  C   UNL A   1     -31.565  -5.958  28.772  0.00  0.00    +0.001 A 
ATOM     19  C   UNL A   1     -31.711  -7.013  29.663  0.00  0.00    +0.000 A 
ATOM     20  C   UNL A   1     -30.060  -6.103  31.062  0.00  0.00    +0.017 A 
ATOM     21  C   UNL A   1     -30.916  -7.039  30.849  0.00  0.00    +0.001 A 
ENDBRANCH  14  16
ENDBRANCH   4  13
TORSDOF 3
