MODEL 2890
MODEL 1
REMARK VINA RESULT:    -6.290      0.000      0.000
REMARK INTER + INTRA:          -9.013
REMARK INTER:                  -8.129
REMARK INTRA:                  -0.884
REMARK UNBOUND:                -0.884
REMARK  Name = No_2890-gen_results/8p0m/2024-11-26-14-13-15/
REMARK  5 active torsions:
REMARK  status: ('A' for Active; 'I' for Inactive)
REMARK    1  A    between atoms: C_3  and  C_7
REMARK    2  A    between atoms: C_7  and  C_8
REMARK    3  A    between atoms: C_7  and  C_14
REMARK    4  A    between atoms: C_8  and  C_9
REMARK    5  A    between atoms: C_10  and  C_11
REMARK                            x       y       z     vdW  Elec       q    Type
REMARK                         _______ _______ _______ _____ _____    ______ ____
ROOT
ATOM      1  C   UNL A   1     -24.636  -1.225  28.754  0.00  0.00    +0.046 C 
ENDROOT
BRANCH   1   4
ATOM      2  C   UNL A   1     -26.058  -3.119  29.665  0.00  0.00    -0.004 A 
ATOM      3  C   UNL A   1     -26.249  -4.153  29.722  0.00  0.00    -0.000 A 
ATOM      4  C   UNL A   1     -24.875  -2.731  28.952  0.00  0.00    -0.021 A 
ATOM      5  C   UNL A   1     -23.964  -3.607  28.519  0.00  0.00    -0.004 A 
ATOM      6  C   UNL A   1     -25.400  -5.274  29.345  0.00  0.00    -0.000 A 
ATOM      7  C   UNL A   1     -24.290  -4.932  28.704  0.00  0.00    -0.000 A 
ENDBRANCH   1   4
BRANCH   1   8
ATOM      8  C   UNL A   1     -25.458  -0.415  28.031  0.00  0.00    +0.114 C 
ATOM      9  N   UNL A   1     -25.568  -0.440  26.872  0.00  0.00    -0.131 NA
ENDBRANCH   1   8
BRANCH   1  10
ATOM     10  C   UNL A   1     -23.424  -0.672  29.384  0.00  0.00    +0.032 C 
BRANCH  10  11
ATOM     11  C   UNL A   1     -22.341  -0.287  28.578  0.00  0.00    -0.026 C 
ATOM     12  C   UNL A   1     -22.094   1.081  28.367  0.00  0.00    -0.005 C 
BRANCH  12  13
ATOM     13  C   UNL A   1     -21.890   1.759  27.415  0.00  0.00    -0.005 C 
ATOM     14  C   UNL A   1     -22.563   2.066  26.636  0.00  0.00    -0.026 C 
ATOM     15  C   UNL A   1     -23.433   2.076  25.667  0.00  0.00    +0.031 C 
ENDBRANCH  12  13
ENDBRANCH  10  11
ENDBRANCH   1  10
TORSDOF 5
ENDMDL
ENDMDL
