REMARK  Name = No_2890-gen_results/8p0m/2024-11-26-14-13-15/
REMARK  5 active torsions:
REMARK  status: ('A' for Active; 'I' for Inactive)
REMARK    1  A    between atoms: C_3  and  C_7
REMARK    2  A    between atoms: C_7  and  C_8
REMARK    3  A    between atoms: C_7  and  C_14
REMARK    4  A    between atoms: C_8  and  C_9
REMARK    5  A    between atoms: C_10  and  C_11
REMARK                            x       y       z     vdW  Elec       q    Type
REMARK                         _______ _______ _______ _____ _____    ______ ____
ROOT
ATOM      1  C   UNL A   1     -27.448   0.380  26.712  0.00  0.00    +0.046 C 
ENDROOT
BRANCH   1   4
ATOM      2  C   UNL A   1     -28.016  -0.814  28.878  0.00  0.00    -0.004 A 
ATOM      3  C   UNL A   1     -28.469  -0.785  29.829  0.00  0.00    -0.000 A 
ATOM      4  C   UNL A   1     -28.196   0.348  28.055  0.00  0.00    -0.021 A 
ATOM      5  C   UNL A   1     -29.019   1.350  28.378  0.00  0.00    -0.004 A 
ATOM      6  C   UNL A   1     -29.411   0.180  30.378  0.00  0.00    -0.000 A 
ATOM      7  C   UNL A   1     -29.606   1.250  29.619  0.00  0.00    -0.000 A 
ENDBRANCH   1   4
BRANCH   1   8
ATOM      8  C   UNL A   1     -28.063   0.496  25.504  0.00  0.00    +0.114 C 
ATOM      9  N   UNL A   1     -27.687   0.010  24.514  0.00  0.00    -0.131 NA
ENDBRANCH   1   8
BRANCH   1  10
ATOM     10  C   UNL A   1     -25.981   0.255  26.784  0.00  0.00    +0.032 C 
BRANCH  10  11
ATOM     11  C   UNL A   1     -25.238   1.232  27.467  0.00  0.00    -0.026 C 
ATOM     12  C   UNL A   1     -23.885   0.984  27.761  0.00  0.00    -0.005 C 
BRANCH  12  13
ATOM     13  C   UNL A   1     -23.209   1.070  28.732  0.00  0.00    -0.005 C 
ATOM     14  C   UNL A   1     -22.410   0.436  29.068  0.00  0.00    -0.026 C 
ATOM     15  C   UNL A   1     -21.699  -0.591  29.439  0.00  0.00    +0.031 C 
ENDBRANCH  12  13
ENDBRANCH  10  11
ENDBRANCH   1  10
TORSDOF 5
