MODEL 2891
MODEL 1
REMARK VINA RESULT:    -5.166      0.000      0.000
REMARK INTER + INTRA:          -5.166
REMARK INTER:                  -5.166
REMARK INTRA:                   0.000
REMARK UNBOUND:                 0.000
REMARK  Name = No_2891-gen_results/8p0m/2024-11-26-14-13-15/
REMARK  0 active torsions:
REMARK  status: ('A' for Active; 'I' for Inactive)
REMARK                            x       y       z     vdW  Elec       q    Type
REMARK                         _______ _______ _______ _____ _____    ______ ____
ROOT
ATOM      1  C   UNL A   1     -24.707  -2.070  28.464  0.00  0.00    +0.000 A 
ATOM      2  C   UNL A   1     -23.758  -2.132  29.210  0.00  0.00    +0.000 A 
ATOM      3  C   UNL A   1     -22.773  -1.165  29.330  0.00  0.00    +0.000 A 
ATOM      4  C   UNL A   1     -22.913   0.005  28.527  0.00  0.00    +0.000 A 
ATOM      5  C   UNL A   1     -24.057   0.107  27.820  0.00  0.00    +0.000 A 
ATOM      6  C   UNL A   1     -24.987  -0.850  27.845  0.00  0.00    +0.000 A 
ATOM      7  C   UNL A   1     -24.191   1.352  27.039  0.00  0.00    +0.000 A 
ATOM      8  C   UNL A   1     -23.168   1.928  26.481  0.00  0.00    +0.000 A 
ATOM      9  C   UNL A   1     -21.860   1.763  27.218  0.00  0.00    +0.000 A 
ATOM     10  C   UNL A   1     -21.706   0.708  28.132  0.00  0.00    +0.000 A 
ENDROOT
TORSDOF 0
ENDMDL
ENDMDL
