MODEL 2892
MODEL 1
REMARK VINA RESULT:    -8.467      0.000      0.000
REMARK INTER + INTRA:         -11.096
REMARK INTER:                  -9.952
REMARK INTRA:                  -1.144
REMARK UNBOUND:                -1.144
REMARK  Name = No_2892-gen_results/8p0m/2024-11-26-14-13-15/
REMARK  3 active torsions:
REMARK  status: ('A' for Active; 'I' for Inactive)
REMARK    1  A    between atoms: C_1  and  C_11
REMARK    2  A    between atoms: C_3  and  C_14
REMARK    3  A    between atoms: C_14  and  C_15
REMARK                            x       y       z     vdW  Elec       q    Type
REMARK                         _______ _______ _______ _____ _____    ______ ____
ROOT
ATOM      1  C   UNL A   1     -25.172   0.402  26.261  0.00  0.00    +0.080 A 
ATOM      2  C   UNL A   1     -25.425  -0.270  27.234  0.00  0.00    +0.003 A 
ATOM      3  C   UNL A   1     -24.588  -0.442  28.324  0.00  0.00    -0.018 A 
ATOM      4  C   UNL A   1     -23.344   0.255  28.303  0.00  0.00    -0.004 A 
ATOM      5  C   UNL A   1     -23.161   1.111  27.276  0.00  0.00    -0.000 A 
ATOM      6  C   UNL A   1     -24.077   1.267  26.318  0.00  0.00    +0.007 A 
ATOM      7  C   UNL A   1     -21.888   1.857  27.305  0.00  0.00    -0.000 A 
ATOM      8  C   UNL A   1     -20.747   1.264  27.603  0.00  0.00    -0.000 A 
ATOM      9  C   UNL A   1     -20.875   0.126  28.568  0.00  0.00    -0.000 A 
ATOM     10  C   UNL A   1     -22.156  -0.469  28.818  0.00  0.00    -0.000 A 
ENDROOT
BRANCH   1  11
ATOM     11  C   UNL A   1     -26.357   0.457  25.249  0.00  0.00    +0.388 C 
ATOM     12  O   UNL A   1     -26.500  -0.386  24.419  0.00  0.00    -0.241 OA
ATOM     13  O   UNL A   1     -27.009   1.571  25.195  0.00  0.00    -0.241 OA
ENDBRANCH   1  11
BRANCH   3  14
ATOM     14  C   UNL A   1     -24.965  -1.537  29.288  0.00  0.00    +0.045 C 
ATOM     15  C   UNL A   1     -25.390  -1.052  30.635  0.00  0.00    +0.009 C 
BRANCH  14  16
ATOM     16  C   UNL A   1     -25.045  -2.752  28.990  0.00  0.00    -0.018 A 
ATOM     17  C   UNL A   1     -24.055  -3.531  28.518  0.00  0.00    -0.004 A 
ATOM     18  C   UNL A   1     -24.015  -4.943  28.511  0.00  0.00    -0.000 A 
ATOM     19  C   UNL A   1     -25.096  -5.560  29.030  0.00  0.00    -0.000 A 
ATOM     20  C   UNL A   1     -26.139  -4.897  29.653  0.00  0.00    -0.000 A 
ATOM     21  C   UNL A   1     -26.088  -3.535  29.728  0.00  0.00    -0.004 A 
ENDBRANCH  14  16
ENDBRANCH   3  14
TORSDOF 3
ENDMDL
ENDMDL
