REMARK  Name = No_2892-gen_results/8p0m/2024-11-26-14-13-15/
REMARK  3 active torsions:
REMARK  status: ('A' for Active; 'I' for Inactive)
REMARK    1  A    between atoms: C_1  and  C_11
REMARK    2  A    between atoms: C_3  and  C_14
REMARK    3  A    between atoms: C_14  and  C_15
REMARK                            x       y       z     vdW  Elec       q    Type
REMARK                         _______ _______ _______ _____ _____    ______ ____
ROOT
ATOM      1  C   UNL A   1     -28.016  -0.814  28.878  0.00  0.00    +0.080 A 
ATOM      2  C   UNL A   1     -27.064  -0.119  28.608  0.00  0.00    +0.003 A 
ATOM      3  C   UNL A   1     -26.972   0.714  27.506  0.00  0.00    -0.018 A 
ATOM      4  C   UNL A   1     -28.105   0.774  26.642  0.00  0.00    -0.004 A 
ATOM      5  C   UNL A   1     -29.201   0.104  27.053  0.00  0.00    -0.000 A 
ATOM      6  C   UNL A   1     -29.210  -0.603  28.185  0.00  0.00    +0.007 A 
ATOM      7  C   UNL A   1     -30.375   0.223  26.167  0.00  0.00    -0.000 A 
ATOM      8  C   UNL A   1     -30.261   0.134  24.855  0.00  0.00    -0.000 A 
ATOM      9  C   UNL A   1     -28.961   0.639  24.311  0.00  0.00    -0.000 A 
ATOM     10  C   UNL A   1     -27.839   0.832  25.183  0.00  0.00    -0.000 A 
ENDROOT
BRANCH   1  11
ATOM     11  C   UNL A   1     -27.839  -1.570  30.230  0.00  0.00    +0.388 C 
ATOM     12  O   UNL A   1     -26.810  -2.103  30.510  0.00  0.00    -0.241 OA
ATOM     13  O   UNL A   1     -28.919  -1.801  30.899  0.00  0.00    -0.241 OA
ENDBRANCH   1  11
BRANCH   3  14
ATOM     14  C   UNL A   1     -25.604   1.268  27.201  0.00  0.00    +0.045 C 
ATOM     15  C   UNL A   1     -25.615   2.596  26.520  0.00  0.00    +0.009 C 
BRANCH  14  16
ATOM     16  C   UNL A   1     -24.526   0.749  27.576  0.00  0.00    -0.018 A 
ATOM     17  C   UNL A   1     -23.418   1.398  27.977  0.00  0.00    -0.004 A 
ATOM     18  C   UNL A   1     -22.344   0.863  28.724  0.00  0.00    -0.000 A 
ATOM     19  C   UNL A   1     -22.454  -0.439  29.054  0.00  0.00    -0.000 A 
ATOM     20  C   UNL A   1     -23.581  -1.205  28.811  0.00  0.00    -0.000 A 
ATOM     21  C   UNL A   1     -24.638  -0.619  28.176  0.00  0.00    -0.004 A 
ENDBRANCH  14  16
ENDBRANCH   3  14
TORSDOF 3
