MODEL 2893
MODEL 1
REMARK VINA RESULT:    -4.482      0.000      0.000
REMARK INTER + INTRA:          -4.482
REMARK INTER:                  -4.482
REMARK INTRA:                   0.000
REMARK UNBOUND:                 0.000
REMARK  Name = No_2893-gen_results/8p0m/2024-11-26-14-13-15/
REMARK  0 active torsions:
REMARK  status: ('A' for Active; 'I' for Inactive)
REMARK                            x       y       z     vdW  Elec       q    Type
REMARK                         _______ _______ _______ _____ _____    ______ ____
ROOT
ATOM      1  C   UNL A   1      -9.182  -9.273  20.086  0.00  0.00    +0.011 A 
ATOM      2  C   UNL A   1      -8.343  -9.864  19.846  0.00  0.00    +0.058 A 
ATOM      3  C   UNL A   1     -10.269  -9.238  19.095  0.00  0.00    +0.001 A 
ATOM      4  C   UNL A   1     -10.228 -10.080  17.945  0.00  0.00    +0.000 A 
ATOM      5  C   UNL A   1      -8.079 -10.857  18.770  0.00  0.00    +0.011 A 
ATOM      6  C   UNL A   1      -9.061 -10.847  17.825  0.00  0.00    +0.001 A 
ATOM      7 CL   UNL A   1      -6.999  -9.930  21.063  0.00  0.00    -0.082 Cl
ENDROOT
TORSDOF 0
ENDMDL
ENDMDL
