MODEL 2894
MODEL 1
REMARK VINA RESULT:    -5.254      0.000      0.000
REMARK INTER + INTRA:          -6.217
REMARK INTER:                  -5.868
REMARK INTRA:                  -0.348
REMARK UNBOUND:                -0.348
REMARK  Name = No_2894-gen_results/8p0m/2024-11-26-14-13-15/
REMARK  2 active torsions:
REMARK  status: ('A' for Active; 'I' for Inactive)
REMARK    1  A    between atoms: C_3  and  C_8
REMARK    2  A    between atoms: C_8  and  C_9
REMARK                            x       y       z     vdW  Elec       q    Type
REMARK                         _______ _______ _______ _____ _____    ______ ____
ROOT
ATOM      1  C   UNL A   1     -23.897   0.806  30.805  0.00  0.00    +0.042 A 
ATOM      2  C   UNL A   1     -23.756   1.526  29.843  0.00  0.00    +0.006 A 
ATOM      3  C   UNL A   1     -22.858   1.203  28.831  0.00  0.00    +0.035 A 
ATOM      4  C   UNL A   1     -22.035   0.025  28.918  0.00  0.00    +0.006 A 
ATOM      5  C   UNL A   1     -22.246  -0.737  30.074  0.00  0.00    +0.042 A 
ATOM      6  C   UNL A   1     -23.095  -0.380  31.011  0.00  0.00    +0.196 A 
ATOM      7  O   UNL A   1     -23.212  -1.157  32.122  0.00  0.00    -0.287 OA
ENDROOT
BRANCH   3   8
ATOM      8  C   UNL A   1     -22.516   1.822  27.489  0.00  0.00    +0.172 C 
ATOM      9  O   UNL A   1     -21.249   1.913  27.245  0.00  0.00    -0.291 OA
BRANCH   8  10
ATOM     10  C   UNL A   1     -23.451   1.855  26.515  0.00  0.00    +0.056 C 
ATOM     11  C   UNL A   1     -24.375   0.977  26.295  0.00  0.00    +0.008 C 
ATOM     12  C   UNL A   1     -22.748   2.287  25.241  0.00  0.00    +0.008 C 
ATOM     13  C   UNL A   1     -24.343   3.206  26.946  0.00  0.00    +0.008 C 
ENDBRANCH   8  10
ENDBRANCH   3   8
TORSDOF 2
ENDMDL
ENDMDL
