REMARK  Name = No_2894-gen_results/8p0m/2024-11-26-14-13-15/
REMARK  2 active torsions:
REMARK  status: ('A' for Active; 'I' for Inactive)
REMARK    1  A    between atoms: C_3  and  C_8
REMARK    2  A    between atoms: C_8  and  C_9
REMARK                            x       y       z     vdW  Elec       q    Type
REMARK                         _______ _______ _______ _____ _____    ______ ____
ROOT
ATOM      1  C   UNL A   1     -28.016  -0.814  28.878  0.00  0.00    +0.042 A 
ATOM      2  C   UNL A   1     -27.064  -0.119  28.608  0.00  0.00    +0.006 A 
ATOM      3  C   UNL A   1     -25.792  -0.430  29.076  0.00  0.00    +0.035 A 
ATOM      4  C   UNL A   1     -25.576  -1.565  29.936  0.00  0.00    +0.006 A 
ATOM      5  C   UNL A   1     -26.735  -2.300  30.217  0.00  0.00    +0.042 A 
ATOM      6  C   UNL A   1     -27.918  -1.954  29.763  0.00  0.00    +0.196 A 
ATOM      7  O   UNL A   1     -29.000  -2.701  30.115  0.00  0.00    -0.287 OA
ENDROOT
BRANCH   3   8
ATOM      8  C   UNL A   1     -24.413   0.162  28.855  0.00  0.00    +0.172 C 
ATOM      9  O   UNL A   1     -23.848  -0.188  27.746  0.00  0.00    -0.291 OA
BRANCH   8  10
ATOM     10  C   UNL A   1     -24.044   1.261  29.547  0.00  0.00    +0.056 C 
ATOM     11  C   UNL A   1     -24.729   1.872  30.459  0.00  0.00    +0.008 C 
ATOM     12  C   UNL A   1     -23.419   2.222  28.552  0.00  0.00    +0.008 C 
ATOM     13  C   UNL A   1     -22.730   0.690  30.416  0.00  0.00    +0.008 C 
ENDBRANCH   8  10
ENDBRANCH   3   8
TORSDOF 2
