MODEL 2895
MODEL 1
REMARK VINA RESULT:    -7.062      0.000      0.000
REMARK INTER + INTRA:         -14.811
REMARK INTER:                 -11.190
REMARK INTRA:                  -3.621
REMARK UNBOUND:                -3.621
REMARK  Name = No_2895-gen_results/8p0m/2024-11-26-14-13-15/
REMARK  10 active torsions:
REMARK  status: ('A' for Active; 'I' for Inactive)
REMARK    1  A    between atoms: C_2  and  C_7
REMARK    2  A    between atoms: C_6  and  C_13
REMARK    3  A    between atoms: C_11  and  C_17
REMARK    4  A    between atoms: C_17  and  N_18
REMARK    5  A    between atoms: N_18  and  C_28
REMARK    6  A    between atoms: C_22  and  C_24
REMARK    7  A    between atoms: C_24  and  N_25
REMARK    8  A    between atoms: C_29  and  C_31
REMARK    9  A    between atoms: C_31  and  C_32
REMARK   10  A    between atoms: C_33  and  C_34
REMARK                            x       y       z     vdW  Elec       q    Type
REMARK                         _______ _______ _______ _____ _____    ______ ____
ROOT
ATOM      1  C   UNL A   1     -28.041 -16.604   7.869  0.00  0.00    +0.004 A 
ATOM      2  C   UNL A   1     -29.247 -16.537   7.800  0.00  0.00    +0.000 A 
ATOM      3  C   UNL A   1     -29.925 -16.950   6.659  0.00  0.00    +0.000 A 
ATOM      4  C   UNL A   1     -29.209 -17.428   5.504  0.00  0.00    +0.000 A 
ATOM      5  C   UNL A   1     -27.817 -17.450   5.661  0.00  0.00    +0.004 A 
ATOM      6  C   UNL A   1     -27.223 -17.032   6.756  0.00  0.00    +0.054 A 
ENDROOT
BRANCH   6   7
ATOM      7  C   UNL A   1     -25.745 -17.063   6.622  0.00  0.00    +0.249 C 
ATOM      8  N   UNL A   1     -25.146 -16.100   6.079  0.00  0.00    -0.276 N 
ATOM      9  O   UNL A   1     -25.085 -17.982   7.147  0.00  0.00    -0.270 OA
ATOM     10  C   UNL A   1     -23.670 -15.969   5.977  0.00  0.00    +0.094 C 
ATOM     11  C   UNL A   1     -23.201 -14.873   6.221  0.00  0.00    +0.022 C 
ATOM     12  C   UNL A   1     -23.855 -13.787   5.705  0.00  0.00    +0.013 C 
ATOM     13  C   UNL A   1     -25.302 -13.794   5.591  0.00  0.00    +0.098 C 
ATOM     14  C   UNL A   1     -25.863 -14.889   5.825  0.00  0.00    +0.103 C 
BRANCH  13  15
ATOM     15  C   UNL A   1     -25.988 -12.495   5.300  0.00  0.00    +0.247 C 
ATOM     16  O   UNL A   1     -26.977 -12.450   4.537  0.00  0.00    -0.273 OA
BRANCH  15  17
ATOM     17  N   UNL A   1     -25.757 -11.470   6.036  0.00  0.00    -0.176 NA
ATOM     18  C   UNL A   1     -25.854 -10.276   5.712  0.00  0.00    +0.106 C 
ENDBRANCH  15  17
ENDBRANCH  13  15
ENDBRANCH   6   7
BRANCH   2  19
ATOM     19  C   UNL A   1     -30.143 -16.046   8.882  0.00  0.00    -0.000 A 
ATOM     20  C   UNL A   1     -31.116 -15.736   8.874  0.00  0.00    -0.000 A 
ATOM     21  C   UNL A   1     -31.917 -15.213   9.467  0.00  0.00    -0.000 A 
ATOM     22  C   UNL A   1     -31.562 -14.905  10.894  0.00  0.00    +0.000 A 
ATOM     23  C   UNL A   1     -30.293 -15.198  11.257  0.00  0.00    +0.031 A 
ATOM     24  C   UNL A   1     -29.475 -15.753  10.268  0.00  0.00    +0.000 A 
BRANCH  23  25
ATOM     25  C   UNL A   1     -29.733 -14.959  12.581  0.00  0.00    +0.278 C 
ATOM     26  F   UNL A   1     -29.082 -15.819  13.163  0.00  0.00    -0.208 F 
BRANCH  25  27
ATOM     27  N   UNL A   1     -30.074 -13.867  13.235  0.00  0.00    -0.176 NA
BRANCH  27  28
ATOM     28  C   UNL A   1     -30.349 -12.663  12.751  0.00  0.00    +0.206 C 
ATOM     29  C   UNL A   1     -29.426 -12.041  11.819  0.00  0.00    +0.025 C 
ATOM     30  F   UNL A   1     -31.026 -11.930  13.474  0.00  0.00    -0.187 F 
BRANCH  29  31
ATOM     31  C   UNL A   1     -29.845 -11.488  10.834  0.00  0.00    +0.056 C 
BRANCH  31  32
ATOM     32  C   UNL A   1     -29.713 -11.829   9.580  0.00  0.00    -0.021 C 
ATOM     33  C   UNL A   1     -28.645 -12.597   9.023  0.00  0.00    -0.004 C 
BRANCH  33  34
ATOM     34  C   UNL A   1     -28.588 -12.937   7.657  0.00  0.00    -0.000 C 
ATOM     35  C   UNL A   1     -29.802 -12.899   6.933  0.00  0.00    -0.000 C 
ENDBRANCH  33  34
ENDBRANCH  31  32
ENDBRANCH  29  31
ENDBRANCH  27  28
ENDBRANCH  25  27
ENDBRANCH  23  25
ENDBRANCH   2  19
TORSDOF 10
ENDMDL
ENDMDL
