REMARK  Name = No_2895-gen_results/8p0m/2024-11-26-14-13-15/
REMARK  10 active torsions:
REMARK  status: ('A' for Active; 'I' for Inactive)
REMARK    1  A    between atoms: C_2  and  C_7
REMARK    2  A    between atoms: C_6  and  C_13
REMARK    3  A    between atoms: C_11  and  C_17
REMARK    4  A    between atoms: C_17  and  N_18
REMARK    5  A    between atoms: N_18  and  C_28
REMARK    6  A    between atoms: C_22  and  C_24
REMARK    7  A    between atoms: C_24  and  N_25
REMARK    8  A    between atoms: C_29  and  C_31
REMARK    9  A    between atoms: C_31  and  C_32
REMARK   10  A    between atoms: C_33  and  C_34
REMARK                            x       y       z     vdW  Elec       q    Type
REMARK                         _______ _______ _______ _____ _____    ______ ____
ROOT
ATOM      1  C   UNL A   1     -28.016  -0.814  28.878  0.00  0.00    +0.004 A 
ATOM      2  C   UNL A   1     -27.064  -0.119  28.608  0.00  0.00    +0.000 A 
ATOM      3  C   UNL A   1     -25.792  -0.430  29.076  0.00  0.00    +0.000 A 
ATOM      4  C   UNL A   1     -25.576  -1.565  29.936  0.00  0.00    +0.000 A 
ATOM      5  C   UNL A   1     -26.735  -2.300  30.217  0.00  0.00    +0.004 A 
ATOM      6  C   UNL A   1     -27.918  -1.954  29.763  0.00  0.00    +0.054 A 
ENDROOT
BRANCH   6   7
ATOM      7  C   UNL A   1     -28.987  -2.838  30.293  0.00  0.00    +0.249 C 
ATOM      8  N   UNL A   1     -30.136  -2.373  30.502  0.00  0.00    -0.276 N 
ATOM      9  O   UNL A   1     -28.784  -4.062  30.423  0.00  0.00    -0.270 OA
ATOM     10  C   UNL A   1     -31.309  -3.175  30.933  0.00  0.00    +0.094 C 
ATOM     11  C   UNL A   1     -32.365  -2.943  30.374  0.00  0.00    +0.022 C 
ATOM     12  C   UNL A   1     -32.684  -1.629  30.165  0.00  0.00    +0.013 C 
ATOM     13  C   UNL A   1     -31.640  -0.663  29.873  0.00  0.00    +0.098 C 
ATOM     14  C   UNL A   1     -30.464  -1.076  29.997  0.00  0.00    +0.103 C 
BRANCH  13  15
ATOM     15  C   UNL A   1     -32.054   0.685  29.370  0.00  0.00    +0.247 C 
ATOM     16  O   UNL A   1     -32.040   0.944  28.148  0.00  0.00    -0.273 OA
BRANCH  15  17
ATOM     17  N   UNL A   1     -32.689   1.489  30.142  0.00  0.00    -0.176 NA
ATOM     18  C   UNL A   1     -33.084   2.634  29.872  0.00  0.00    +0.106 C 
ENDBRANCH  15  17
ENDBRANCH  13  15
ENDBRANCH   6   7
BRANCH   2  19
ATOM     19  C   UNL A   1     -27.106   1.102  27.759  0.00  0.00    -0.000 A 
ATOM     20  C   UNL A   1     -27.858   1.531  27.216  0.00  0.00    -0.000 A 
ATOM     21  C   UNL A   1     -28.099   2.299  26.430  0.00  0.00    -0.000 A 
ATOM     22  C   UNL A   1     -26.954   3.184  26.025  0.00  0.00    +0.000 A 
ATOM     23  C   UNL A   1     -25.757   2.881  26.576  0.00  0.00    +0.031 A 
ATOM     24  C   UNL A   1     -25.734   1.792  27.454  0.00  0.00    +0.000 A 
BRANCH  23  25
ATOM     25  C   UNL A   1     -24.515   3.592  26.304  0.00  0.00    +0.278 C 
ATOM     26  F   UNL A   1     -23.503   2.998  25.951  0.00  0.00    -0.208 F 
BRANCH  25  27
ATOM     27  N   UNL A   1     -24.429   4.872  26.606  0.00  0.00    -0.176 NA
BRANCH  27  28
ATOM     28  C   UNL A   1     -25.046   5.540  27.572  0.00  0.00    +0.206 C 
ATOM     29  C   UNL A   1     -24.951   6.988  27.610  0.00  0.00    +0.025 C 
ATOM     30  F   UNL A   1     -25.195   4.939  28.637  0.00  0.00    -0.187 F 
BRANCH  29  31
ATOM     31  C   UNL A   1     -25.933   7.652  27.825  0.00  0.00    +0.056 C 
BRANCH  31  32
ATOM     32  C   UNL A   1     -27.129   7.263  28.175  0.00  0.00    -0.021 C 
ATOM     33  C   UNL A   1     -28.271   8.103  28.351  0.00  0.00    -0.004 C 
BRANCH  33  34
ATOM     34  C   UNL A   1     -29.535   7.598  28.715  0.00  0.00    -0.000 C 
ATOM     35  C   UNL A   1     -29.637   6.202  28.916  0.00  0.00    -0.000 C 
ENDBRANCH  33  34
ENDBRANCH  31  32
ENDBRANCH  29  31
ENDBRANCH  27  28
ENDBRANCH  25  27
ENDBRANCH  23  25
ENDBRANCH   2  19
TORSDOF 10
