MODEL 2896
MODEL 1
REMARK VINA RESULT:    -3.255      0.000      0.000
REMARK INTER + INTRA:          -3.488
REMARK INTER:                  -3.446
REMARK INTRA:                  -0.043
REMARK UNBOUND:                -0.043
REMARK  Name = No_2896-gen_results/8p0m/2024-11-26-14-13-15/
REMARK  1 active torsions:
REMARK  status: ('A' for Active; 'I' for Inactive)
REMARK    1  A    between atoms: C_3  and  C_4
REMARK                            x       y       z     vdW  Elec       q    Type
REMARK                         _______ _______ _______ _____ _____    ______ ____
ROOT
ATOM      1  F   UNL A   1     -22.764  -2.167  28.877  0.00  0.00    -0.202 F 
ATOM      2  C   UNL A   1     -23.801  -2.116  29.361  0.00  0.00    +0.167 C 
ATOM      3  C   UNL A   1     -24.525  -3.174  29.243  0.00  0.00    +0.032 C 
ENDROOT
BRANCH   3   4
ATOM      4  C   UNL A   1     -24.087  -4.442  28.544  0.00  0.00    +0.002 C 
ATOM      5  C   UNL A   1     -24.855  -5.551  28.936  0.00  0.00    +0.000 C 
ENDBRANCH   3   4
TORSDOF 1
ENDMDL
ENDMDL
