REMARK  Name = No_2897-gen_results/8p0m/2024-11-26-14-13-15/
REMARK  3 active torsions:
REMARK  status: ('A' for Active; 'I' for Inactive)
REMARK    1  A    between atoms: C_3  and  C_4
REMARK    2  A    between atoms: C_4  and  C_8
REMARK    3  A    between atoms: C_8  and  C_10
REMARK                            x       y       z     vdW  Elec       q    Type
REMARK                         _______ _______ _______ _____ _____    ______ ____
ROOT
ATOM      1  C   UNL A   1     -25.213   0.692  27.383  0.00  0.00    +0.074 C 
ATOM      2  C   UNL A   1     -25.365   1.100  26.094  0.00  0.00    +0.011 C 
ATOM      3  C   UNL A   1     -26.060   1.825  28.236  0.00  0.00    +0.011 C 
ATOM      4  C   UNL A   1     -26.443   2.878  27.631  0.00  0.00    +0.001 C 
ATOM      5  C   UNL A   1     -26.526   3.071  26.305  0.00  0.00    +0.000 C 
ATOM      6  C   UNL A   1     -24.816   0.141  25.194  0.00  0.00    +0.001 C 
ATOM      7  C   UNL A   1     -25.942   2.196  25.518  0.00  0.00    +0.001 C 
ENDROOT
BRANCH   1   8
ATOM      8  C   UNL A   1     -23.770   0.982  27.761  0.00  0.00    -0.016 A 
ATOM      9  C   UNL A   1     -23.394   2.062  28.286  0.00  0.00    -0.004 A 
ATOM     10  C   UNL A   1     -21.932   2.198  28.578  0.00  0.00    -0.000 A 
ATOM     11  C   UNL A   1     -21.076   1.048  28.276  0.00  0.00    -0.000 A 
ATOM     12  C   UNL A   1     -21.589  -0.113  28.025  0.00  0.00    -0.000 A 
ATOM     13  C   UNL A   1     -22.921  -0.180  27.761  0.00  0.00    -0.004 A 
ENDBRANCH   1   8
BRANCH   1  14
ATOM     14  C   UNL A   1     -25.654  -0.660  27.719  0.00  0.00    +0.176 C 
ATOM     15  O   UNL A   1     -25.350  -1.592  27.137  0.00  0.00    -0.291 OA
BRANCH  14  18
ATOM     16  C   UNL A   1     -28.016  -0.814  28.878  0.00  0.00    +0.003 A 
ATOM     17  C   UNL A   1     -28.469  -0.785  29.829  0.00  0.00    +0.000 A 
ATOM     18  C   UNL A   1     -26.504  -0.778  28.877  0.00  0.00    +0.035 A 
ATOM     19  C   UNL A   1     -27.918  -0.937  31.182  0.00  0.00    +0.000 A 
ATOM     20  C   UNL A   1     -26.542  -0.940  31.261  0.00  0.00    +0.000 A 
ATOM     21  C   UNL A   1     -25.783  -0.893  30.120  0.00  0.00    +0.003 A 
ENDBRANCH  14  18
ENDBRANCH   1  14
TORSDOF 3
