MODEL 2897
MODEL 1
REMARK VINA RESULT:    -7.911      0.000      0.000
REMARK INTER + INTRA:          -9.798
REMARK INTER:                  -9.299
REMARK INTRA:                  -0.499
REMARK UNBOUND:                -0.499
REMARK  Name = No_2897-gen_results/8p0m/2024-11-26-14-13-15/
REMARK  3 active torsions:
REMARK  status: ('A' for Active; 'I' for Inactive)
REMARK    1  A    between atoms: C_3  and  C_4
REMARK    2  A    between atoms: C_4  and  C_8
REMARK    3  A    between atoms: C_8  and  C_10
REMARK                            x       y       z     vdW  Elec       q    Type
REMARK                         _______ _______ _______ _____ _____    ______ ____
ROOT
ATOM      1  C   UNL A   1     -24.905  -1.089  29.202  0.00  0.00    +0.074 C 
ATOM      2  C   UNL A   1     -26.071  -0.506  29.592  0.00  0.00    +0.011 C 
ATOM      3  C   UNL A   1     -24.871  -0.806  27.575  0.00  0.00    +0.011 C 
ATOM      4  C   UNL A   1     -25.927  -0.368  27.014  0.00  0.00    +0.001 C 
ATOM      5  C   UNL A   1     -26.991   0.197  27.607  0.00  0.00    +0.000 C 
ATOM      6  C   UNL A   1     -26.193  -0.523  31.012  0.00  0.00    +0.001 C 
ATOM      7  C   UNL A   1     -27.095   0.092  28.913  0.00  0.00    +0.001 C 
ENDROOT
BRANCH   1   8
ATOM      8  C   UNL A   1     -25.124  -2.591  29.287  0.00  0.00    -0.016 A 
ATOM      9  C   UNL A   1     -26.203  -3.114  29.668  0.00  0.00    -0.004 A 
ATOM     10  C   UNL A   1     -26.248  -4.610  29.716  0.00  0.00    -0.000 A 
ATOM     11  C   UNL A   1     -25.054  -5.333  29.269  0.00  0.00    -0.000 A 
ATOM     12  C   UNL A   1     -24.116  -4.726  28.617  0.00  0.00    -0.000 A 
ATOM     13  C   UNL A   1     -24.119  -3.367  28.610  0.00  0.00    -0.004 A 
ENDBRANCH   1   8
BRANCH   1  14
ATOM     14  C   UNL A   1     -23.675  -0.631  29.843  0.00  0.00    +0.176 C 
ATOM     15  O   UNL A   1     -23.361  -0.923  30.900  0.00  0.00    -0.291 OA
BRANCH  14  18
ATOM     16  C   UNL A   1     -23.202   1.561  28.458  0.00  0.00    +0.003 A 
ATOM     17  C   UNL A   1     -22.491   1.984  27.806  0.00  0.00    +0.000 A 
ATOM     18  C   UNL A   1     -22.826   0.219  29.047  0.00  0.00    +0.035 A 
ATOM     19  C   UNL A   1     -21.095   1.632  27.516  0.00  0.00    +0.000 A 
ATOM     20  C   UNL A   1     -20.668   0.431  28.042  0.00  0.00    +0.000 A 
ATOM     21  C   UNL A   1     -21.497  -0.304  28.849  0.00  0.00    +0.003 A 
ENDBRANCH  14  18
ENDBRANCH   1  14
TORSDOF 3
ENDMDL
ENDMDL
