MODEL 2898
MODEL 1
REMARK VINA RESULT:    -6.773      0.000      0.000
REMARK INTER + INTRA:          -8.084
REMARK INTER:                  -7.564
REMARK INTRA:                  -0.519
REMARK UNBOUND:                -0.519
REMARK  Name = No_2898-gen_results/8p0m/2024-11-26-14-13-15/
REMARK  2 active torsions:
REMARK  status: ('A' for Active; 'I' for Inactive)
REMARK    1  A    between atoms: C_2  and  C_8
REMARK    2  A    between atoms: C_5  and  C_6
REMARK                            x       y       z     vdW  Elec       q    Type
REMARK                         _______ _______ _______ _____ _____    ______ ____
ROOT
ATOM      1  C   UNL A   1     -22.908  -1.134  29.050  0.00  0.00    -0.000 A 
ATOM      2  C   UNL A   1     -23.970  -1.525  28.623  0.00  0.00    -0.000 A 
ATOM      3  C   UNL A   1     -24.673  -0.795  27.671  0.00  0.00    -0.000 A 
ATOM      4  C   UNL A   1     -24.181   0.473  27.197  0.00  0.00    -0.004 A 
ATOM      5  C   UNL A   1     -22.959   0.861  27.761  0.00  0.00    -0.022 A 
ATOM      6  C   UNL A   1     -22.276   0.090  28.666  0.00  0.00    -0.004 A 
ENDROOT
BRANCH   2   7
ATOM      7  C   UNL A   1     -24.688  -2.791  29.056  0.00  0.00    -0.000 A 
ATOM      8  C   UNL A   1     -24.439  -3.766  28.908  0.00  0.00    -0.000 A 
ATOM      9  C   UNL A   1     -25.260  -5.011  29.251  0.00  0.00    +0.000 A 
ATOM     10  C   UNL A   1     -26.505  -4.832  29.801  0.00  0.00    +0.000 A 
ATOM     11  C   UNL A   1     -26.950  -3.511  30.028  0.00  0.00    +0.000 A 
ATOM     12  C   UNL A   1     -26.132  -2.463  29.715  0.00  0.00    -0.000 A 
ENDBRANCH   2   7
BRANCH   5  13
ATOM     13  C   UNL A   1     -22.351   2.066  27.262  0.00  0.00    +0.026 C 
ATOM     14  C   UNL A   1     -23.342   2.466  26.125  0.00  0.00    +0.005 C 
ENDBRANCH   5  13
TORSDOF 2
ENDMDL
ENDMDL
