REMARK  Name = No_2898-gen_results/8p0m/2024-11-26-14-13-15/
REMARK  2 active torsions:
REMARK  status: ('A' for Active; 'I' for Inactive)
REMARK    1  A    between atoms: C_2  and  C_8
REMARK    2  A    between atoms: C_5  and  C_6
REMARK                            x       y       z     vdW  Elec       q    Type
REMARK                         _______ _______ _______ _____ _____    ______ ____
ROOT
ATOM      1  C   UNL A   1     -28.016  -0.814  28.878  0.00  0.00    -0.000 A 
ATOM      2  C   UNL A   1     -27.064  -0.119  28.608  0.00  0.00    -0.000 A 
ATOM      3  C   UNL A   1     -25.792  -0.430  29.076  0.00  0.00    -0.000 A 
ATOM      4  C   UNL A   1     -25.576  -1.565  29.936  0.00  0.00    -0.004 A 
ATOM      5  C   UNL A   1     -26.735  -2.300  30.217  0.00  0.00    -0.022 A 
ATOM      6  C   UNL A   1     -27.964  -1.983  29.700  0.00  0.00    -0.004 A 
ENDROOT
BRANCH   2   7
ATOM      7  C   UNL A   1     -27.103   1.158  27.786  0.00  0.00    -0.000 A 
ATOM      8  C   UNL A   1     -27.899   1.702  27.463  0.00  0.00    -0.000 A 
ATOM      9  C   UNL A   1     -27.896   2.913  26.527  0.00  0.00    +0.000 A 
ATOM     10  C   UNL A   1     -26.693   3.330  26.015  0.00  0.00    +0.000 A 
ATOM     11  C   UNL A   1     -25.528   2.624  26.390  0.00  0.00    +0.000 A 
ATOM     12  C   UNL A   1     -25.629   1.573  27.256  0.00  0.00    -0.000 A 
ENDBRANCH   2   7
BRANCH   5  13
ATOM     13  C   UNL A   1     -26.584  -3.508  30.985  0.00  0.00    +0.026 C 
ATOM     14  C   UNL A   1     -26.737  -4.599  29.880  0.00  0.00    +0.005 C 
ENDBRANCH   5  13
TORSDOF 2
