MODEL 2899
MODEL 1
REMARK VINA RESULT:    -8.815      0.000      0.000
REMARK INTER + INTRA:         -14.262
REMARK INTER:                 -12.937
REMARK INTRA:                  -1.325
REMARK UNBOUND:                -1.325
REMARK  Name = No_2899-gen_results/8p0m/2024-11-26-14-13-15/
REMARK  8 active torsions:
REMARK  status: ('A' for Active; 'I' for Inactive)
REMARK    1  A    between atoms: C_4  and  C_11
REMARK    2  A    between atoms: C_7  and  C_28
REMARK    3  A    between atoms: C_11  and  C_14
REMARK    4  A    between atoms: C_14  and  C_16
REMARK    5  A    between atoms: C_20  and  C_22
REMARK    6  A    between atoms: N_30  and  C_31
REMARK    7  A    between atoms: C_31  and  C_32
REMARK    8  A    between atoms: C_33  and  C_34
REMARK                            x       y       z     vdW  Elec       q    Type
REMARK                         _______ _______ _______ _____ _____    ______ ____
ROOT
ATOM      1  C   UNL A   1     -28.574   3.411  25.441  0.00  0.00    +0.005 A 
ATOM      2  C   UNL A   1     -27.406   3.192  25.665  0.00  0.00    -0.000 A 
ATOM      3  C   UNL A   1     -26.764   2.004  25.317  0.00  0.00    -0.004 A 
ATOM      4  C   UNL A   1     -25.353   1.648  25.562  0.00  0.00    -0.019 A 
ATOM      5  C   UNL A   1     -24.731   0.394  25.225  0.00  0.00    -0.004 A 
ATOM      6  C   UNL A   1     -25.511  -0.450  24.427  0.00  0.00    -0.000 A 
ATOM      7  C   UNL A   1     -29.399   2.275  24.904  0.00  0.00    +0.055 A 
ATOM      8  C   UNL A   1     -28.835   1.104  24.452  0.00  0.00    +0.005 A 
ATOM      9  C   UNL A   1     -27.488   0.878  24.671  0.00  0.00    -0.000 A 
ATOM     10  C   UNL A   1     -26.865  -0.287  24.225  0.00  0.00    -0.000 A 
ENDROOT
BRANCH   4  11
ATOM     11  C   UNL A   1     -24.445   2.619  26.255  0.00  0.00    +0.038 C 
ATOM     12  C   UNL A   1     -24.698   3.913  26.161  0.00  0.00    +0.009 C 
ATOM     13  C   UNL A   1     -22.979   2.316  25.844  0.00  0.00    +0.009 C 
BRANCH  11  14
ATOM     14  C   UNL A   1     -24.463   2.183  27.788  0.00  0.00    -0.019 C 
ATOM     15  C   UNL A   1     -25.254   2.941  28.634  0.00  0.00    -0.004 C 
BRANCH  14  16
ATOM     16  C   UNL A   1     -23.651   1.129  28.331  0.00  0.00    -0.004 A 
ATOM     17  C   UNL A   1     -22.488   1.018  28.612  0.00  0.00    -0.000 A 
ATOM     18  C   UNL A   1     -21.838  -0.117  29.238  0.00  0.00    -0.000 A 
ATOM     19  C   UNL A   1     -22.554  -1.317  29.279  0.00  0.00    -0.000 A 
ATOM     20  C   UNL A   1     -23.876  -1.295  28.860  0.00  0.00    -0.000 A 
ATOM     21  C   UNL A   1     -24.483  -0.149  28.412  0.00  0.00    -0.000 A 
BRANCH  20  22
ATOM     22  C   UNL A   1     -24.613  -2.586  28.950  0.00  0.00    -0.000 A 
ATOM     23  C   UNL A   1     -25.864  -2.572  29.522  0.00  0.00    -0.000 A 
ATOM     24  C   UNL A   1     -23.987  -3.786  28.637  0.00  0.00    -0.000 A 
ATOM     25  C   UNL A   1     -26.493  -3.747  29.907  0.00  0.00    +0.000 A 
ATOM     26  C   UNL A   1     -24.670  -4.999  28.951  0.00  0.00    +0.000 A 
ATOM     27  C   UNL A   1     -25.935  -4.949  29.526  0.00  0.00    +0.000 A 
ENDBRANCH  20  22
ENDBRANCH  14  16
ENDBRANCH  11  14
ENDBRANCH   4  11
BRANCH   7  28
ATOM     28  C   UNL A   1     -30.883   2.552  24.709  0.00  0.00    +0.265 C 
ATOM     29  O   UNL A   1     -31.442   3.454  25.264  0.00  0.00    -0.268 OA
ATOM     30  N   UNL A   1     -31.461   1.873  23.646  0.00  0.00    -0.197 NA
BRANCH  30  31
ATOM     31  C   UNL A   1     -32.862   2.072  23.347  0.00  0.00    +0.141 C 
BRANCH  31  32
ATOM     32  C   UNL A   1     -33.144   2.434  22.084  0.00  0.00    -0.003 C 
ATOM     33  C   UNL A   1     -32.820   3.461  21.534  0.00  0.00    -0.003 C 
BRANCH  33  34
ATOM     34  C   UNL A   1     -32.875   3.823  20.134  0.00  0.00    -0.000 C 
ATOM     35  C   UNL A   1     -33.247   5.092  19.828  0.00  0.00    -0.000 C 
ENDBRANCH  33  34
ENDBRANCH  31  32
ENDBRANCH  30  31
ENDBRANCH   7  28
TORSDOF 8
ENDMDL
ENDMDL
