REMARK  Name = No_2899-gen_results/8p0m/2024-11-26-14-13-15/
REMARK  8 active torsions:
REMARK  status: ('A' for Active; 'I' for Inactive)
REMARK    1  A    between atoms: C_4  and  C_11
REMARK    2  A    between atoms: C_7  and  C_28
REMARK    3  A    between atoms: C_11  and  C_14
REMARK    4  A    between atoms: C_14  and  C_16
REMARK    5  A    between atoms: C_20  and  C_22
REMARK    6  A    between atoms: N_30  and  C_31
REMARK    7  A    between atoms: C_31  and  C_32
REMARK    8  A    between atoms: C_33  and  C_34
REMARK                            x       y       z     vdW  Elec       q    Type
REMARK                         _______ _______ _______ _____ _____    ______ ____
ROOT
ATOM      1  C   UNL A   1     -28.016  -0.814  28.878  0.00  0.00    +0.005 A 
ATOM      2  C   UNL A   1     -27.064  -0.119  28.608  0.00  0.00    -0.000 A 
ATOM      3  C   UNL A   1     -25.765  -0.390  29.036  0.00  0.00    -0.004 A 
ATOM      4  C   UNL A   1     -24.552   0.406  28.765  0.00  0.00    -0.019 A 
ATOM      5  C   UNL A   1     -23.230   0.118  29.258  0.00  0.00    -0.004 A 
ATOM      6  C   UNL A   1     -23.094  -1.131  29.873  0.00  0.00    -0.000 A 
ATOM      7  C   UNL A   1     -27.798  -1.934  29.856  0.00  0.00    +0.055 A 
ATOM      8  C   UNL A   1     -26.542  -2.327  30.258  0.00  0.00    +0.005 A 
ATOM      9  C   UNL A   1     -25.451  -1.552  29.908  0.00  0.00    -0.000 A 
ATOM     10  C   UNL A   1     -24.156  -1.910  30.281  0.00  0.00    -0.000 A 
ENDROOT
BRANCH   4  11
ATOM     11  C   UNL A   1     -24.645   1.658  27.946  0.00  0.00    +0.038 C 
ATOM     12  C   UNL A   1     -25.076   1.578  26.699  0.00  0.00    +0.009 C 
ATOM     13  C   UNL A   1     -23.284   2.401  28.009  0.00  0.00    +0.009 C 
BRANCH  11  14
ATOM     14  C   UNL A   1     -25.598   2.629  28.778  0.00  0.00    -0.019 C 
ATOM     15  C   UNL A   1     -26.359   3.522  28.043  0.00  0.00    -0.004 C 
BRANCH  14  16
ATOM     16  C   UNL A   1     -25.635   2.679  30.213  0.00  0.00    -0.004 A 
ATOM     17  C   UNL A   1     -24.853   3.000  31.068  0.00  0.00    -0.000 A 
ATOM     18  C   UNL A   1     -25.088   3.064  32.497  0.00  0.00    -0.000 A 
ATOM     19  C   UNL A   1     -26.240   2.436  32.981  0.00  0.00    -0.000 A 
ATOM     20  C   UNL A   1     -27.140   1.935  32.053  0.00  0.00    -0.000 A 
ATOM     21  C   UNL A   1     -26.930   2.035  30.701  0.00  0.00    -0.000 A 
BRANCH  20  22
ATOM     22  C   UNL A   1     -28.369   1.302  32.609  0.00  0.00    -0.000 A 
ATOM     23  C   UNL A   1     -28.256   0.035  33.134  0.00  0.00    -0.000 A 
ATOM     24  C   UNL A   1     -29.614   1.893  32.436  0.00  0.00    -0.000 A 
ATOM     25  C   UNL A   1     -29.378  -0.734  33.403  0.00  0.00    +0.000 A 
ATOM     26  C   UNL A   1     -30.769   1.136  32.795  0.00  0.00    +0.000 A 
ATOM     27  C   UNL A   1     -30.620  -0.140  33.326  0.00  0.00    +0.000 A 
ENDBRANCH  20  22
ENDBRANCH  14  16
ENDBRANCH  11  14
ENDBRANCH   4  11
BRANCH   7  28
ATOM     28  C   UNL A   1     -29.028  -2.741  30.243  0.00  0.00    +0.265 C 
ATOM     29  O   UNL A   1     -30.140  -2.321  30.095  0.00  0.00    -0.268 OA
ATOM     30  N   UNL A   1     -28.779  -4.080  30.507  0.00  0.00    -0.197 NA
BRANCH  30  31
ATOM     31  C   UNL A   1     -29.875  -4.955  30.864  0.00  0.00    +0.141 C 
BRANCH  31  32
ATOM     32  C   UNL A   1     -30.763  -5.206  29.887  0.00  0.00    -0.003 C 
ATOM     33  C   UNL A   1     -30.601  -5.045  28.700  0.00  0.00    -0.003 C 
BRANCH  33  34
ATOM     34  C   UNL A   1     -31.399  -5.502  27.582  0.00  0.00    -0.000 C 
ATOM     35  C   UNL A   1     -32.551  -6.163  27.863  0.00  0.00    -0.000 C 
ENDBRANCH  33  34
ENDBRANCH  31  32
ENDBRANCH  30  31
ENDBRANCH   7  28
TORSDOF 8
