MODEL 289
MODEL 1
REMARK VINA RESULT:    -7.022      0.000      0.000
REMARK INTER + INTRA:          -8.972
REMARK INTER:                  -8.254
REMARK INTRA:                  -0.719
REMARK UNBOUND:                -0.719
REMARK  Name = No_289-gen_results/8p0m/2024-11-26-14-13-15/
REMARK  3 active torsions:
REMARK  status: ('A' for Active; 'I' for Inactive)
REMARK    1  A    between atoms: C_3  and  C_4
REMARK    2  A    between atoms: C_7  and  C_13
REMARK    3  A    between atoms: N_14  and  C_15
REMARK                            x       y       z     vdW  Elec       q    Type
REMARK                         _______ _______ _______ _____ _____    ______ ____
ROOT
ATOM      1  C   UNL A   1     -27.965   2.028  24.273  0.00  0.00    +0.005 A 
ATOM      2  C   UNL A   1     -28.950   2.328  23.639  0.00  0.00    +0.000 A 
ATOM      3  C   UNL A   1     -29.877   1.365  23.254  0.00  0.00    +0.000 A 
ATOM      4  C   UNL A   1     -27.603   0.614  24.487  0.00  0.00    +0.055 A 
ATOM      5  C   UNL A   1     -28.495  -0.385  24.208  0.00  0.00    +0.005 A 
ATOM      6  C   UNL A   1     -29.700  -0.069  23.511  0.00  0.00    +0.000 A 
ENDROOT
BRANCH   3   7
ATOM      7  C   UNL A   1     -31.119   1.604  22.465  0.00  0.00    +0.000 A 
ATOM      8  C   UNL A   1     -31.310   2.664  21.511  0.00  0.00    +0.000 A 
ATOM      9  C   UNL A   1     -32.473   2.779  20.790  0.00  0.00    +0.000 A 
ATOM     10  C   UNL A   1     -33.449   1.808  20.747  0.00  0.00    +0.000 A 
ATOM     11  C   UNL A   1     -32.161   0.578  22.436  0.00  0.00    +0.000 A 
ATOM     12  C   UNL A   1     -33.289   0.735  21.593  0.00  0.00    +0.000 A 
ENDBRANCH   3   7
BRANCH   4  13
ATOM     13  C   UNL A   1     -26.369   0.206  25.186  0.00  0.00    +0.269 C 
ATOM     14  N   UNL A   1     -25.889   0.889  26.196  0.00  0.00    -0.175 NA
ATOM     15  O   UNL A   1     -25.724  -0.767  24.737  0.00  0.00    -0.268 OA
BRANCH  14  16
ATOM     16  C   UNL A   1     -24.542   0.948  26.482  0.00  0.00    +0.074 A 
ATOM     17  C   UNL A   1     -23.748   1.853  25.905  0.00  0.00    +0.017 A 
ATOM     18  C   UNL A   1     -22.467   2.129  26.499  0.00  0.00    +0.001 A 
ATOM     19  C   UNL A   1     -22.019   1.383  27.581  0.00  0.00    +0.000 A 
ATOM     20  C   UNL A   1     -24.104   0.318  27.753  0.00  0.00    +0.017 A 
ATOM     21  C   UNL A   1     -22.901   0.443  28.193  0.00  0.00    +0.001 A 
ENDBRANCH  14  16
ENDBRANCH   4  13
TORSDOF 3
ENDMDL
ENDMDL
