MODEL 28
MODEL 1
REMARK VINA RESULT:    -6.348      0.000      0.000
REMARK INTER + INTRA:         -10.607
REMARK INTER:                  -9.688
REMARK INTRA:                  -0.919
REMARK UNBOUND:                -0.919
REMARK  Name = No_28-gen_results/8p0m/2024-11-26-14-13-15/
REMARK  9 active torsions:
REMARK  status: ('A' for Active; 'I' for Inactive)
REMARK    1  A    between atoms: P_1  and  O_2
REMARK    2  A    between atoms: P_1  and  O_3
REMARK    3  A    between atoms: P_1  and  O_5
REMARK    4  A    between atoms: O_2  and  C_6
REMARK    5  A    between atoms: O_5  and  C_16
REMARK    6  A    between atoms: C_8  and  C_12
REMARK    7  A    between atoms: C_10  and  C_22
REMARK    8  A    between atoms: C_16  and  C_17
REMARK    9  A    between atoms: C_22  and  C_23
REMARK                            x       y       z     vdW  Elec       q    Type
REMARK                         _______ _______ _______ _____ _____    ______ ____
ROOT
ATOM      1  C   UNL A   1     -24.351   0.508  28.176  0.00  0.00    +0.149 A 
ATOM      2  C   UNL A   1     -23.378   1.139  27.294  0.00  0.00    +0.041 A 
ATOM      3  C   UNL A   1     -23.995   1.861  26.222  0.00  0.00    +0.074 A 
ATOM      4  C   UNL A   1     -24.988   1.531  25.751  0.00  0.00    -0.000 A 
ATOM      5  C   UNL A   1     -26.023   0.802  26.447  0.00  0.00    -0.018 A 
ATOM      6  C   UNL A   1     -25.586   0.204  27.617  0.00  0.00    +0.033 A 
ENDROOT
BRANCH   3   7
ATOM      7  C   UNL A   1     -22.870   2.314  25.260  0.00  0.00    +0.419 C 
ATOM      8  F   UNL A   1     -21.718   2.159  25.837  0.00  0.00    -0.166 F 
ATOM      9  F   UNL A   1     -22.911   3.609  24.879  0.00  0.00    -0.166 F 
ATOM     10  F   UNL A   1     -22.723   1.610  24.132  0.00  0.00    -0.166 F 
ENDBRANCH   3   7
BRANCH   1  11
ATOM     11  O   UNL A   1     -23.930  -0.153  29.248  0.00  0.00    -0.401 OA
BRANCH  11  12
ATOM     12  P   UNL A   1     -23.572  -1.228  29.325  0.00  0.00    +0.567 P 
ATOM     13  O   UNL A   1     -23.556  -1.784  30.821  0.00  0.00    -0.213 OA
BRANCH  12  14
ATOM     14  O   UNL A   1     -22.001  -1.288  28.992  0.00  0.00    -0.073 OA
ATOM     15  F   UNL A   1     -21.322  -0.293  29.381  0.00  0.00    -0.036 F 
ENDBRANCH  12  14
BRANCH  12  16
ATOM     16  O   UNL A   1     -24.206  -2.427  28.602  0.00  0.00    -0.224 OA
BRANCH  16  17
ATOM     17  C   UNL A   1     -24.952  -3.288  29.441  0.00  0.00    +0.382 C 
ATOM     18  O   UNL A   1     -26.249  -2.972  29.624  0.00  0.00    -0.176 OA
BRANCH  17  19
ATOM     19  C   UNL A   1     -24.685  -4.673  29.111  0.00  0.00    +0.424 C 
ATOM     20  O   UNL A   1     -25.323  -5.495  29.525  0.00  0.00    -0.240 OA
ATOM     21  O   UNL A   1     -23.605  -4.925  28.382  0.00  0.00    -0.240 OA
ENDBRANCH  17  19
ENDBRANCH  16  17
ENDBRANCH  12  16
ENDBRANCH  11  12
ENDBRANCH   1  11
BRANCH   5  22
ATOM     22  C   UNL A   1     -27.339   0.551  25.851  0.00  0.00    +0.039 C 
BRANCH  22  23
ATOM     23  C   UNL A   1     -27.268   0.029  24.436  0.00  0.00    +0.072 C 
ATOM     24 BR   UNL A   1     -28.201   0.765  23.810  0.00  0.00    -0.080 Br
ENDBRANCH  22  23
ENDBRANCH   5  22
TORSDOF 9
ENDMDL
ENDMDL
