REMARK  Name = No_29-gen_results/8p0m/2024-11-26-14-13-15/
REMARK  0 active torsions:
REMARK  status: ('A' for Active; 'I' for Inactive)
REMARK                            x       y       z     vdW  Elec       q    Type
REMARK                         _______ _______ _______ _____ _____    ______ ____
ROOT
ATOM      1  C   UNL A   1     -28.016  -0.814  28.878  0.00  0.00    +0.033 A 
ATOM      2  C   UNL A   1     -28.469  -0.785  29.829  0.00  0.00    +0.146 A 
ATOM      3  C   UNL A   1     -27.136   0.236  28.535  0.00  0.00    -0.016 A 
ATOM      4  C   UNL A   1     -26.875   1.282  29.398  0.00  0.00    +0.034 A 
ATOM      5  C   UNL A   1     -28.361   0.199  30.924  0.00  0.00    +0.042 A 
ATOM      6  C   UNL A   1     -27.528   1.223  30.636  0.00  0.00    +0.006 A 
ATOM      7  C   UNL A   1     -26.350   0.507  27.258  0.00  0.00    +0.030 C 
ATOM      8  C   UNL A   1     -25.216   0.864  27.171  0.00  0.00    +0.048 C 
ATOM      9  C   UNL A   1     -24.800   1.850  28.198  0.00  0.00    +0.222 C 
ATOM     10  C   UNL A   1     -25.572   1.955  29.378  0.00  0.00    +0.205 C 
ATOM     11  F   UNL A   1     -23.688   2.567  28.011  0.00  0.00    -0.229 F 
ATOM     12  O   UNL A   1     -25.177   2.848  30.326  0.00  0.00    -0.288 OA
ATOM     13  O   UNL A   1     -29.483  -1.794  30.188  0.00  0.00    -0.442 OA
ATOM     14  C   UNL A   1     -29.779  -2.140  31.451  0.00  0.00    +0.222 C 
ATOM     15  C   UNL A   1     -29.044   0.013  32.193  0.00  0.00    +0.048 C 
ATOM     16  C   UNL A   1     -29.935  -1.081  32.395  0.00  0.00    -0.061 C 
ENDROOT
TORSDOF 0
