MODEL 2900
MODEL 1
REMARK VINA RESULT:    -7.412      0.000      0.000
REMARK INTER + INTRA:         -13.165
REMARK INTER:                 -10.879
REMARK INTRA:                  -2.286
REMARK UNBOUND:                -2.286
REMARK  Name = No_2900-gen_results/8p0m/2024-11-26-14-13-15/
REMARK  8 active torsions:
REMARK  status: ('A' for Active; 'I' for Inactive)
REMARK    1  A    between atoms: C_2  and  C_3
REMARK    2  A    between atoms: C_5  and  C_26
REMARK    3  A    between atoms: C_6  and  C_21
REMARK    4  A    between atoms: C_21  and  C_23
REMARK    5  A    between atoms: C_23  and  C_24
REMARK    6  A    between atoms: N_27  and  C_28
REMARK    7  A    between atoms: C_30  and  C_31
REMARK    8  A    between atoms: C_32  and  C_33
REMARK                            x       y       z     vdW  Elec       q    Type
REMARK                         _______ _______ _______ _____ _____    ______ ____
ROOT
ATOM      1  C   UNL A   1     -23.947   0.710  28.423  0.00  0.00    +0.058 A 
ATOM      2  C   UNL A   1     -23.287  -0.296  29.176  0.00  0.00    +0.060 A 
ATOM      3  C   UNL A   1     -23.068   1.528  27.606  0.00  0.00    +0.001 A 
ATOM      4  C   UNL A   1     -21.876  -0.366  29.215  0.00  0.00    +0.005 A 
ATOM      5  C   UNL A   1     -21.669   1.313  27.511  0.00  0.00    -0.000 A 
ATOM      6  C   UNL A   1     -21.104   0.358  28.350  0.00  0.00    +0.000 A 
ENDROOT
BRANCH   1   8
ATOM      7  O   UNL A   1     -25.802   1.689  29.128  0.00  0.00    -0.269 OA
ATOM      8  C   UNL A   1     -25.313   0.903  28.441  0.00  0.00    +0.259 C 
ATOM      9  N   UNL A   1     -26.056   0.140  27.420  0.00  0.00    -0.200 N 
ATOM     10  C   UNL A   1     -27.501   0.368  27.351  0.00  0.00    +0.259 C 
ATOM     11  C   UNL A   1     -25.463  -0.751  26.529  0.00  0.00    +0.071 C 
ATOM     12  C   UNL A   1     -25.308  -0.509  25.446  0.00  0.00    -0.005 C 
ATOM     13  C   UNL A   1     -25.843   0.227  24.526  0.00  0.00    +0.054 C 
ATOM     14  C   UNL A   1     -26.975   0.584  24.551  0.00  0.00    -0.013 A 
ATOM     15  C   UNL A   1     -27.752   1.229  23.510  0.00  0.00    -0.004 A 
ATOM     16  C   UNL A   1     -29.122   1.638  23.653  0.00  0.00    -0.000 A 
ATOM     17  C   UNL A   1     -29.694   1.477  24.893  0.00  0.00    +0.000 A 
ATOM     18  C   UNL A   1     -29.040   0.918  25.932  0.00  0.00    +0.004 A 
ATOM     19  C   UNL A   1     -27.841   0.513  25.812  0.00  0.00    +0.051 A 
ATOM     20  O   UNL A   1     -28.056  -0.284  28.059  0.00  0.00    -0.269 OA
ENDBRANCH   1   8
BRANCH   2  21
ATOM     21  C   UNL A   1     -24.093  -1.066  30.165  0.00  0.00    +0.269 C 
ATOM     22  N   UNL A   1     -24.688  -0.929  31.007  0.00  0.00    -0.174 NA
ATOM     23  O   UNL A   1     -23.910  -2.381  29.694  0.00  0.00    -0.268 OA
BRANCH  22  24
ATOM     24  C   UNL A   1     -24.458   0.050  31.947  0.00  0.00    +0.089 C 
ATOM     25  C   UNL A   1     -25.694   0.738  32.318  0.00  0.00    +0.018 C 
BRANCH  25  26
ATOM     26  C   UNL A   1     -25.465   2.035  32.994  0.00  0.00    +0.001 C 
ATOM     27  C   UNL A   1     -24.895   2.981  32.232  0.00  0.00    -0.000 C 
BRANCH  27  28
ATOM     28  C   UNL A   1     -24.988   4.312  32.831  0.00  0.00    -0.005 C 
ATOM     29  C   UNL A   1     -25.409   5.422  31.949  0.00  0.00    -0.026 C 
ATOM     30  C   UNL A   1     -26.006   5.172  30.761  0.00  0.00    +0.031 C 
ENDBRANCH  27  28
ENDBRANCH  25  26
ENDBRANCH  22  24
ENDBRANCH   2  21
BRANCH   3  31
ATOM     31  C   UNL A   1     -23.645   2.545  26.688  0.00  0.00    -0.021 C 
ATOM     32  C   UNL A   1     -23.417   2.718  25.441  0.00  0.00    -0.004 C 
BRANCH  31  33
ATOM     33  C   UNL A   1     -24.475   3.627  27.249  0.00  0.00    +0.047 C 
BRANCH  33  34
ATOM     34  C   UNL A   1     -25.541   4.073  26.431  0.00  0.00    +0.114 C 
ATOM     35  N   UNL A   1     -26.708   3.878  26.691  0.00  0.00    -0.131 NA
ENDBRANCH  33  34
ENDBRANCH  31  33
ENDBRANCH   3  31
TORSDOF 8
ENDMDL
ENDMDL
