REMARK  Name = No_2900-gen_results/8p0m/2024-11-26-14-13-15/
REMARK  8 active torsions:
REMARK  status: ('A' for Active; 'I' for Inactive)
REMARK    1  A    between atoms: C_2  and  C_3
REMARK    2  A    between atoms: C_5  and  C_26
REMARK    3  A    between atoms: C_6  and  C_21
REMARK    4  A    between atoms: C_21  and  C_23
REMARK    5  A    between atoms: C_23  and  C_24
REMARK    6  A    between atoms: N_27  and  C_28
REMARK    7  A    between atoms: C_30  and  C_31
REMARK    8  A    between atoms: C_32  and  C_33
REMARK                            x       y       z     vdW  Elec       q    Type
REMARK                         _______ _______ _______ _____ _____    ______ ____
ROOT
ATOM      1  C   UNL A   1     -26.380  -0.087  27.939  0.00  0.00    +0.058 A 
ATOM      2  C   UNL A   1     -26.409   0.857  26.880  0.00  0.00    +0.060 A 
ATOM      3  C   UNL A   1     -25.082  -0.697  28.170  0.00  0.00    +0.001 A 
ATOM      4  C   UNL A   1     -25.284   1.049  26.047  0.00  0.00    +0.005 A 
ATOM      5  C   UNL A   1     -23.916  -0.344  27.444  0.00  0.00    -0.000 A 
ATOM      6  C   UNL A   1     -24.062   0.529  26.371  0.00  0.00    +0.000 A 
ENDROOT
BRANCH   1   8
ATOM      7  O   UNL A   1     -28.123  -1.335  28.487  0.00  0.00    -0.269 OA
ATOM      8  C   UNL A   1     -27.481  -0.404  28.709  0.00  0.00    +0.259 C 
ATOM      9  N   UNL A   1     -27.666   0.447  29.899  0.00  0.00    -0.200 N 
ATOM     10  C   UNL A   1     -28.778   0.103  30.787  0.00  0.00    +0.259 C 
ATOM     11  C   UNL A   1     -26.845   1.525  30.221  0.00  0.00    +0.071 C 
ATOM     12  C   UNL A   1     -26.088   1.482  31.046  0.00  0.00    -0.005 C 
ATOM     13  C   UNL A   1     -25.904   0.864  32.168  0.00  0.00    +0.054 C 
ATOM     14  C   UNL A   1     -26.788   0.406  32.815  0.00  0.00    -0.013 A 
ATOM     15  C   UNL A   1     -26.753  -0.124  34.164  0.00  0.00    -0.004 A 
ATOM     16  C   UNL A   1     -27.888  -0.675  34.851  0.00  0.00    -0.000 A 
ATOM     17  C   UNL A   1     -29.059  -0.776  34.138  0.00  0.00    +0.000 A 
ATOM     18  C   UNL A   1     -29.180  -0.341  32.867  0.00  0.00    +0.004 A 
ATOM     19  C   UNL A   1     -28.198   0.186  32.257  0.00  0.00    +0.051 A 
ATOM     20  O   UNL A   1     -29.730   0.574  30.459  0.00  0.00    -0.269 OA
ENDBRANCH   1   8
BRANCH   2  21
ATOM     21  C   UNL A   1     -27.734   1.402  26.470  0.00  0.00    +0.269 C 
ATOM     22  N   UNL A   1     -28.717   1.103  26.306  0.00  0.00    -0.174 NA
ATOM     23  O   UNL A   1     -27.417   2.761  26.277  0.00  0.00    -0.268 OA
BRANCH  22  24
ATOM     24  C   UNL A   1     -29.061  -0.130  25.801  0.00  0.00    +0.089 C 
ATOM     25  C   UNL A   1     -30.179  -0.033  24.863  0.00  0.00    +0.018 C 
BRANCH  25  26
ATOM     26  C   UNL A   1     -30.847  -1.329  24.608  0.00  0.00    +0.001 C 
ATOM     27  C   UNL A   1     -30.597  -2.286  25.514  0.00  0.00    -0.000 C 
BRANCH  27  28
ATOM     28  C   UNL A   1     -31.517  -3.417  25.400  0.00  0.00    -0.005 C 
ATOM     29  C   UNL A   1     -32.836  -3.156  24.785  0.00  0.00    -0.026 C 
ATOM     30  C   UNL A   1     -33.050  -2.034  24.059  0.00  0.00    +0.031 C 
ENDBRANCH  27  28
ENDBRANCH  25  26
ENDBRANCH  22  24
ENDBRANCH   2  21
BRANCH   3  31
ATOM     31  C   UNL A   1     -24.893  -1.621  29.319  0.00  0.00    -0.021 C 
ATOM     32  C   UNL A   1     -23.862  -2.313  29.627  0.00  0.00    -0.004 C 
BRANCH  31  33
ATOM     33  C   UNL A   1     -26.052  -1.956  30.167  0.00  0.00    +0.047 C 
BRANCH  33  34
ATOM     34  C   UNL A   1     -26.337  -3.336  30.304  0.00  0.00    +0.114 C 
ATOM     35  N   UNL A   1     -26.830  -4.005  29.422  0.00  0.00    -0.131 NA
ENDBRANCH  33  34
ENDBRANCH  31  33
ENDBRANCH   3  31
TORSDOF 8
