MODEL 2901
MODEL 1
REMARK VINA RESULT:    -5.226      0.000      0.000
REMARK INTER + INTRA:          -5.226
REMARK INTER:                  -5.226
REMARK INTRA:                   0.000
REMARK UNBOUND:                 0.000
REMARK  Name = No_2901-gen_results/8p0m/2024-11-26-14-13-15/
REMARK  0 active torsions:
REMARK  status: ('A' for Active; 'I' for Inactive)
REMARK                            x       y       z     vdW  Elec       q    Type
REMARK                         _______ _______ _______ _____ _____    ______ ____
ROOT
ATOM      1  C   UNL A   1     -23.078   2.399  25.952  0.00  0.00    +0.000 A 
ATOM      2  C   UNL A   1     -24.025   1.942  25.892  0.00  0.00    +0.000 A 
ATOM      3  C   UNL A   1     -22.170   1.872  27.040  0.00  0.00    +0.000 A 
ATOM      4  C   UNL A   1     -22.570   0.744  27.788  0.00  0.00    +0.000 A 
ATOM      5  C   UNL A   1     -24.664   0.758  26.510  0.00  0.00    +0.000 A 
ATOM      6  C   UNL A   1     -23.855   0.241  27.512  0.00  0.00    +0.000 A 
ATOM      7  C   UNL A   1     -21.765   0.216  28.836  0.00  0.00    +0.000 A 
ATOM      8  C   UNL A   1     -21.958  -0.714  29.406  0.00  0.00    +0.000 A 
ATOM      9  C   UNL A   1     -23.281  -1.389  29.178  0.00  0.00    +0.000 A 
ATOM     10  C   UNL A   1     -24.201  -0.886  28.317  0.00  0.00    +0.000 A 
ENDROOT
TORSDOF 0
ENDMDL
ENDMDL
