MODEL 2902
MODEL 1
REMARK VINA RESULT:    -6.178      0.000      0.000
REMARK INTER + INTRA:          -8.043
REMARK INTER:                  -7.623
REMARK INTRA:                  -0.420
REMARK UNBOUND:                -0.420
REMARK  Name = No_2902-gen_results/8p0m/2024-11-26-14-13-15/
REMARK  4 active torsions:
REMARK  status: ('A' for Active; 'I' for Inactive)
REMARK    1  A    between atoms: C_2  and  C_9
REMARK    2  A    between atoms: C_3  and  C_7
REMARK    3  A    between atoms: N_11  and  C_13
REMARK    4  A    between atoms: C_17  and  C_19
REMARK                            x       y       z     vdW  Elec       q    Type
REMARK                         _______ _______ _______ _____ _____    ______ ____
ROOT
ATOM      1  C   UNL A   1     -22.451   1.071  27.761  0.00  0.00    +0.229 C 
ATOM      2  O   UNL A   1     -21.489   1.675  27.442  0.00  0.00    -0.275 OA
ATOM      3  N   UNL A   1     -22.334   0.035  28.625  0.00  0.00    -0.257 N 
ATOM      4  C   UNL A   1     -21.057  -0.366  29.180  0.00  0.00    +0.120 C 
ENDROOT
BRANCH   1   6
ATOM      5  C   UNL A   1     -24.164   0.757  26.221  0.00  0.00    +0.009 C 
ATOM      6  C   UNL A   1     -23.808   1.174  27.121  0.00  0.00    +0.077 C 
ATOM      7  C   UNL A   1     -25.609   0.532  26.212  0.00  0.00    +0.001 C 
ATOM      8  C   UNL A   1     -26.394   1.479  26.200  0.00  0.00    +0.000 C 
ATOM      9  C   UNL A   1     -26.201   2.415  27.438  0.00  0.00    +0.001 C 
ATOM     10  C   UNL A   1     -24.351   2.482  27.796  0.00  0.00    +0.009 C 
BRANCH   7  11
ATOM     11  C   UNL A   1     -26.094  -0.415  24.978  0.00  0.00    +0.000 C 
ATOM     12  C   UNL A   1     -27.319  -0.037  24.360  0.00  0.00    +0.000 C 
ENDBRANCH   7  11
ENDBRANCH   1   6
BRANCH   3  13
ATOM     13  C   UNL A   1     -23.493  -0.745  29.063  0.00  0.00    +0.054 A 
ATOM     14  C   UNL A   1     -24.376  -0.117  29.768  0.00  0.00    +0.015 A 
ATOM     15  C   UNL A   1     -25.474  -0.933  30.201  0.00  0.00    +0.001 A 
ATOM     16  C   UNL A   1     -25.474  -2.300  29.965  0.00  0.00    +0.003 A 
ATOM     17  C   UNL A   1     -24.495  -2.867  29.161  0.00  0.00    +0.043 A 
ATOM     18  C   UNL A   1     -23.496  -2.093  28.732  0.00  0.00    +0.018 A 
BRANCH  17  19
ATOM     19  C   UNL A   1     -24.565  -4.334  28.861  0.00  0.00    +0.234 C 
ATOM     20  O   UNL A   1     -23.777  -4.901  28.442  0.00  0.00    -0.283 OA
ENDBRANCH  17  19
ENDBRANCH   3  13
TORSDOF 4
ENDMDL
ENDMDL
