REMARK  Name = No_2902-gen_results/8p0m/2024-11-26-14-13-15/
REMARK  4 active torsions:
REMARK  status: ('A' for Active; 'I' for Inactive)
REMARK    1  A    between atoms: C_2  and  C_9
REMARK    2  A    between atoms: C_3  and  C_7
REMARK    3  A    between atoms: N_11  and  C_13
REMARK    4  A    between atoms: C_17  and  C_19
REMARK                            x       y       z     vdW  Elec       q    Type
REMARK                         _______ _______ _______ _____ _____    ______ ____
ROOT
ATOM      1  C   UNL A   1     -29.794  -1.332  30.283  0.00  0.00    +0.229 C 
ATOM      2  O   UNL A   1     -29.985  -2.415  30.711  0.00  0.00    -0.275 OA
ATOM      3  N   UNL A   1     -30.848  -0.549  29.952  0.00  0.00    -0.257 N 
ATOM      4  C   UNL A   1     -32.219  -0.995  30.106  0.00  0.00    +0.120 C 
ENDROOT
BRANCH   1   6
ATOM      5  C   UNL A   1     -28.016  -0.814  28.878  0.00  0.00    +0.009 C 
ATOM      6  C   UNL A   1     -28.469  -0.785  29.829  0.00  0.00    +0.077 C 
ATOM      7  C   UNL A   1     -27.087   0.290  28.638  0.00  0.00    +0.001 C 
ATOM      8  C   UNL A   1     -26.024   0.364  29.253  0.00  0.00    +0.000 C 
ATOM      9  C   UNL A   1     -26.246   0.433  30.799  0.00  0.00    +0.001 C 
ATOM     10  C   UNL A   1     -27.708  -0.688  31.198  0.00  0.00    +0.009 C 
BRANCH   7  11
ATOM     11  C   UNL A   1     -26.663   0.430  27.071  0.00  0.00    +0.000 C 
ATOM     12  C   UNL A   1     -26.294   1.739  26.651  0.00  0.00    +0.000 C 
ENDBRANCH   7  11
ENDBRANCH   1   6
BRANCH   3  13
ATOM     13  C   UNL A   1     -30.674   0.805  29.424  0.00  0.00    +0.054 A 
ATOM     14  C   UNL A   1     -31.111   1.015  28.225  0.00  0.00    +0.015 A 
ATOM     15  C   UNL A   1     -30.887   2.347  27.741  0.00  0.00    +0.001 A 
ATOM     16  C   UNL A   1     -30.146   3.254  28.485  0.00  0.00    +0.003 A 
ATOM     17  C   UNL A   1     -29.757   2.938  29.779  0.00  0.00    +0.043 A 
ATOM     18  C   UNL A   1     -30.002   1.708  30.236  0.00  0.00    +0.018 A 
BRANCH  17  19
ATOM     19  C   UNL A   1     -29.024   3.967  30.586  0.00  0.00    +0.234 C 
ATOM     20  O   UNL A   1     -28.950   4.991  30.331  0.00  0.00    -0.283 OA
ENDBRANCH  17  19
ENDBRANCH   3  13
TORSDOF 4
