MODEL 2903
MODEL 1
REMARK VINA RESULT:    -4.530      0.000      0.000
REMARK INTER + INTRA:          -4.530
REMARK INTER:                  -4.530
REMARK INTRA:                   0.000
REMARK UNBOUND:                 0.000
REMARK  Name = No_2903-gen_results/8p0m/2024-11-26-14-13-15/
REMARK  0 active torsions:
REMARK  status: ('A' for Active; 'I' for Inactive)
REMARK                            x       y       z     vdW  Elec       q    Type
REMARK                         _______ _______ _______ _____ _____    ______ ____
ROOT
ATOM      1  C   UNL A   1      -8.103 -10.597  18.797  0.00  0.00    +0.030 A 
ATOM      2  C   UNL A   1      -9.030 -10.436  18.037  0.00  0.00    +0.140 A 
ATOM      3  F   UNL A   1      -9.061 -11.003  16.912  0.00  0.00    -0.204 F 
ATOM      4  C   UNL A   1     -10.292  -9.762  18.344  0.00  0.00    +0.030 A 
ATOM      5  C   UNL A   1      -8.077  -9.768  20.009  0.00  0.00    +0.002 A 
ATOM      6  C   UNL A   1     -10.322  -9.082  19.562  0.00  0.00    +0.002 A 
ATOM      7  C   UNL A   1      -9.220  -9.121  20.376  0.00  0.00    +0.000 A 
ENDROOT
TORSDOF 0
ENDMDL
ENDMDL
