REMARK  Name = No_2903-gen_results/8p0m/2024-11-26-14-13-15/
REMARK  0 active torsions:
REMARK  status: ('A' for Active; 'I' for Inactive)
REMARK                            x       y       z     vdW  Elec       q    Type
REMARK                         _______ _______ _______ _____ _____    ______ ____
ROOT
ATOM      1  C   UNL A   1     -28.016  -0.814  28.878  0.00  0.00    +0.030 A 
ATOM      2  C   UNL A   1     -27.064  -0.119  28.608  0.00  0.00    +0.140 A 
ATOM      3  F   UNL A   1     -25.884  -0.525  28.783  0.00  0.00    -0.204 F 
ATOM      4  C   UNL A   1     -27.101   1.156  27.891  0.00  0.00    +0.030 A 
ATOM      5  C   UNL A   1     -29.345  -0.195  28.797  0.00  0.00    +0.002 A 
ATOM      6  C   UNL A   1     -28.375   1.688  27.689  0.00  0.00    +0.002 A 
ATOM      7  C   UNL A   1     -29.469   0.986  28.127  0.00  0.00    +0.000 A 
ENDROOT
TORSDOF 0
