MODEL 2904
MODEL 1
REMARK VINA RESULT:    -4.594      0.000      0.000
REMARK INTER + INTRA:          -4.594
REMARK INTER:                  -4.594
REMARK INTRA:                   0.000
REMARK UNBOUND:                 0.000
REMARK  Name = No_2904-gen_results/8p0m/2024-11-26-14-13-15/
REMARK  0 active torsions:
REMARK  status: ('A' for Active; 'I' for Inactive)
REMARK                            x       y       z     vdW  Elec       q    Type
REMARK                         _______ _______ _______ _____ _____    ______ ____
ROOT
ATOM      1  C   UNL A   1      -9.516  -9.101  20.300  0.00  0.00    +0.030 A 
ATOM      2  C   UNL A   1     -10.183  -9.202  19.490  0.00  0.00    +0.002 A 
ATOM      3  C   UNL A   1      -8.249  -9.806  20.105  0.00  0.00    +0.140 A 
ATOM      4  C   UNL A   1      -7.973 -10.509  18.958  0.00  0.00    +0.030 A 
ATOM      5  C   UNL A   1     -10.161  -9.860  18.184  0.00  0.00    +0.000 A 
ATOM      6  C   UNL A   1      -8.939 -10.545  17.986  0.00  0.00    +0.002 A 
ATOM      7  F   UNL A   1      -7.292  -9.733  21.039  0.00  0.00    -0.204 F 
ENDROOT
TORSDOF 0
ENDMDL
ENDMDL
