REMARK  Name = No_2905-gen_results/8p0m/2024-11-26-14-13-15/
REMARK  6 active torsions:
REMARK  status: ('A' for Active; 'I' for Inactive)
REMARK    1  A    between atoms: C_6  and  O_8
REMARK    2  A    between atoms: O_8  and  C_9
REMARK    3  A    between atoms: C_9  and  C_10
REMARK    4  A    between atoms: C_11  and  C_12
REMARK    5  A    between atoms: C_12  and  C_13
REMARK    6  A    between atoms: C_14  and  C_15
REMARK                            x       y       z     vdW  Elec       q    Type
REMARK                         _______ _______ _______ _____ _____    ______ ____
ROOT
ATOM      1  C   UNL A   1     -30.000  -4.733  30.318  0.00  0.00    +0.018 A 
ATOM      2  C   UNL A   1     -31.170  -4.281  30.742  0.00  0.00    -0.018 A 
ATOM      3  C   UNL A   1     -32.328  -5.243  30.252  0.00  0.00    -0.004 A 
ATOM      4  C   UNL A   1     -32.105  -6.117  29.470  0.00  0.00    -0.000 A 
ATOM      5  C   UNL A   1     -30.781  -6.512  28.908  0.00  0.00    -0.000 A 
ATOM      6  C   UNL A   1     -29.757  -5.772  29.375  0.00  0.00    -0.001 A 
ENDROOT
BRANCH   1   7
ATOM      7  C   UNL A   1     -28.886  -3.924  30.675  0.00  0.00    +0.232 C 
BRANCH   7   8
ATOM      8  O   UNL A   1     -29.010  -2.695  30.116  0.00  0.00    -0.471 OA
BRANCH   8  14
ATOM      9  C   UNL A   1     -28.016  -0.814  28.878  0.00  0.00    +0.048 A 
ATOM     10  C   UNL A   1     -27.064  -0.119  28.608  0.00  0.00    +0.061 A 
ATOM     11  C   UNL A   1     -25.792  -0.430  29.076  0.00  0.00    +0.012 A 
ATOM     12  C   UNL A   1     -25.576  -1.565  29.936  0.00  0.00    +0.004 A 
ATOM     13  C   UNL A   1     -26.735  -2.300  30.217  0.00  0.00    +0.037 A 
ATOM     14  C   UNL A   1     -27.918  -1.954  29.763  0.00  0.00    +0.140 A 
ATOM     15 CL   UNL A   1     -26.977   1.269  27.531  0.00  0.00    -0.082 Cl
ENDBRANCH   8  14
ENDBRANCH   7   8
ENDBRANCH   1   7
BRANCH   2  16
ATOM     16  C   UNL A   1     -31.435  -3.412  31.373  0.00  0.00    +0.053 C 
BRANCH  16  17
ATOM     17  C   UNL A   1     -31.983  -2.670  31.768  0.00  0.00    -0.013 C 
ATOM     18  C   UNL A   1     -32.661  -1.605  32.395  0.00  0.00    +0.046 C 
BRANCH  18  19
ATOM     19  C   UNL A   1     -32.886  -0.464  32.797  0.00  0.00    -0.051 C 
ATOM     20  C   UNL A   1     -33.051   0.656  33.233  0.00  0.00    -0.009 C 
ENDBRANCH  18  19
ENDBRANCH  16  17
ENDBRANCH   2  16
TORSDOF 6
