MODEL 2906
MODEL 1
REMARK VINA RESULT:    -4.540      0.000      0.000
REMARK INTER + INTRA:          -4.540
REMARK INTER:                  -4.540
REMARK INTRA:                   0.000
REMARK UNBOUND:                 0.000
REMARK  Name = No_2906-gen_results/8p0m/2024-11-26-14-13-15/
REMARK  0 active torsions:
REMARK  status: ('A' for Active; 'I' for Inactive)
REMARK                            x       y       z     vdW  Elec       q    Type
REMARK                         _______ _______ _______ _____ _____    ______ ____
ROOT
ATOM      1  C   UNL A   1     -10.222  -9.153  19.495  0.00  0.00    +0.002 A 
ATOM      2  C   UNL A   1      -9.326  -9.188  20.306  0.00  0.00    +0.030 A 
ATOM      3  C   UNL A   1      -8.127  -9.871  20.103  0.00  0.00    +0.140 A 
ATOM      4  C   UNL A   1      -7.948 -10.635  18.883  0.00  0.00    +0.030 A 
ATOM      5  C   UNL A   1      -9.039 -10.555  17.988  0.00  0.00    +0.002 A 
ATOM      6  C   UNL A   1     -10.131  -9.891  18.271  0.00  0.00    +0.000 A 
ATOM      7  F   UNL A   1      -7.130  -9.946  20.978  0.00  0.00    -0.204 F 
ENDROOT
TORSDOF 0
ENDMDL
ENDMDL
