MODEL 2907
MODEL 1
REMARK VINA RESULT:    -6.943      0.000      0.000
REMARK INTER + INTRA:          -8.242
REMARK INTER:                  -7.754
REMARK INTRA:                  -0.487
REMARK UNBOUND:                -0.487
REMARK  Name = No_2907-gen_results/8p0m/2024-11-26-14-13-15/
REMARK  2 active torsions:
REMARK  status: ('A' for Active; 'I' for Inactive)
REMARK    1  A    between atoms: C_2  and  C_13
REMARK    2  A    between atoms: C_4  and  C_7
REMARK                            x       y       z     vdW  Elec       q    Type
REMARK                         _______ _______ _______ _____ _____    ______ ____
ROOT
ATOM      1  C   UNL A   1     -29.114 -10.220  32.724  0.00  0.00    +0.007 A 
ATOM      2  C   UNL A   1     -28.337 -10.917  32.869  0.00  0.00    +0.080 A 
ATOM      3  C   UNL A   1     -29.619 -10.182  31.352  0.00  0.00    +0.000 A 
ATOM      4  C   UNL A   1     -29.300 -10.954  30.550  0.00  0.00    +0.000 A 
ATOM      5  C   UNL A   1     -27.744 -11.953  32.045  0.00  0.00    +0.007 A 
ATOM      6  C   UNL A   1     -28.299 -11.913  30.738  0.00  0.00    +0.000 A 
ENDROOT
BRANCH   4   7
ATOM      7  C   UNL A   1     -29.857 -10.958  29.105  0.00  0.00    +0.000 A 
ATOM      8  C   UNL A   1     -30.622 -10.394  28.646  0.00  0.00    +0.000 A 
ATOM      9  C   UNL A   1     -29.040 -11.909  28.210  0.00  0.00    +0.000 A 
ATOM     10  C   UNL A   1     -29.390 -11.954  26.814  0.00  0.00    +0.000 A 
ATOM     11  C   UNL A   1     -31.183 -10.389  27.224  0.00  0.00    +0.000 A 
ATOM     12  C   UNL A   1     -30.462 -11.212  26.379  0.00  0.00    +0.000 A 
ENDBRANCH   4   7
BRANCH   2  13
ATOM     13  C   UNL A   1     -27.575 -11.232  34.297  0.00  0.00    +0.388 C 
ATOM     14  O   UNL A   1     -26.998 -10.574  34.914  0.00  0.00    -0.241 OA
ATOM     15  O   UNL A   1     -27.580 -12.564  34.499  0.00  0.00    -0.241 OA
ENDBRANCH   2  13
TORSDOF 2
ENDMDL
ENDMDL
