MODEL 2908
MODEL 1
REMARK VINA RESULT:    -4.875      0.000      0.000
REMARK INTER + INTRA:          -5.205
REMARK INTER:                  -5.160
REMARK INTRA:                  -0.045
REMARK UNBOUND:                -0.045
REMARK  Name = No_2908-gen_results/8p0m/2024-11-26-14-13-15/
REMARK  1 active torsions:
REMARK  status: ('A' for Active; 'I' for Inactive)
REMARK    1  A    between atoms: C_4  and  N_8
REMARK                            x       y       z     vdW  Elec       q    Type
REMARK                         _______ _______ _______ _____ _____    ______ ____
ROOT
ATOM      1  C   UNL A   1     -26.507  -2.821  30.057  0.00  0.00    +0.013 A 
ATOM      2  C   UNL A   1     -26.455  -3.862  29.899  0.00  0.00    +0.058 A 
ATOM      3  C   UNL A   1     -25.229  -2.058  29.790  0.00  0.00    +0.020 A 
ATOM      4  C   UNL A   1     -24.126  -2.733  29.227  0.00  0.00    +0.083 A 
ATOM      5  C   UNL A   1     -25.466  -4.787  29.299  0.00  0.00    +0.013 A 
ATOM      6  C   UNL A   1     -24.279  -4.119  29.035  0.00  0.00    +0.020 A 
ATOM      7 CL   UNL A   1     -27.998  -4.786  30.210  0.00  0.00    -0.082 Cl
ENDROOT
BRANCH   4   8
ATOM      8  N   UNL A   1     -22.968  -2.070  28.987  0.00  0.00    -0.225 NA
ATOM      9  C   UNL A   1     -22.486  -1.204  29.220  0.00  0.00    +0.205 C 
ATOM     10  N   UNL A   1     -21.242  -0.711  28.744  0.00  0.00    -0.104 NA
ENDBRANCH   4   8
TORSDOF 1
ENDMDL
ENDMDL
