MODEL 2909
MODEL 1
REMARK VINA RESULT:    -5.659      0.000      0.000
REMARK INTER + INTRA:          -6.596
REMARK INTER:                  -6.321
REMARK INTRA:                  -0.275
REMARK UNBOUND:                -0.275
REMARK  Name = No_2909-gen_results/8p0m/2024-11-26-14-13-15/
REMARK  2 active torsions:
REMARK  status: ('A' for Active; 'I' for Inactive)
REMARK    1  A    between atoms: C_3  and  C_8
REMARK    2  A    between atoms: C_8  and  C_11
REMARK                            x       y       z     vdW  Elec       q    Type
REMARK                         _______ _______ _______ _____ _____    ______ ____
ROOT
ATOM      1  C   UNL A   1     -24.068   0.450  27.629  0.00  0.00    +0.042 A 
ATOM      2  C   UNL A   1     -24.492  -0.633  27.959  0.00  0.00    +0.003 A 
ATOM      3  C   UNL A   1     -23.919  -1.517  28.724  0.00  0.00    -0.003 A 
ATOM      4  C   UNL A   1     -22.625  -1.214  29.247  0.00  0.00    +0.003 A 
ATOM      5  C   UNL A   1     -22.810   0.877  28.214  0.00  0.00    +0.196 A 
ATOM      6  C   UNL A   1     -22.148   0.023  28.994  0.00  0.00    +0.042 A 
ATOM      7  O   UNL A   1     -22.400   2.141  27.909  0.00  0.00    -0.287 OA
ENDROOT
BRANCH   3   8
ATOM      8  C   UNL A   1     -24.514  -2.890  29.008  0.00  0.00    -0.007 C 
ATOM      9  C   UNL A   1     -24.115  -3.880  28.814  0.00  0.00    -0.029 C 
ATOM     10  C   UNL A   1     -24.771  -5.197  29.016  0.00  0.00    +0.030 C 
BRANCH   8  11
ATOM     11  C   UNL A   1     -25.893  -2.843  29.653  0.00  0.00    +0.135 C 
ATOM     12  N   UNL A   1     -26.203  -2.058  30.723  0.00  0.00    -0.126 NA
ENDBRANCH   8  11
ENDBRANCH   3   8
TORSDOF 2
ENDMDL
ENDMDL
