REMARK  Name = No_2909-gen_results/8p0m/2024-11-26-14-13-15/
REMARK  2 active torsions:
REMARK  status: ('A' for Active; 'I' for Inactive)
REMARK    1  A    between atoms: C_3  and  C_8
REMARK    2  A    between atoms: C_8  and  C_11
REMARK                            x       y       z     vdW  Elec       q    Type
REMARK                         _______ _______ _______ _____ _____    ______ ____
ROOT
ATOM      1  C   UNL A   1     -28.016  -0.814  28.878  0.00  0.00    +0.042 A 
ATOM      2  C   UNL A   1     -27.064  -0.119  28.608  0.00  0.00    +0.003 A 
ATOM      3  C   UNL A   1     -26.876   1.133  28.913  0.00  0.00    -0.003 A 
ATOM      4  C   UNL A   1     -27.901   1.807  29.644  0.00  0.00    +0.003 A 
ATOM      5  C   UNL A   1     -29.046  -0.232  29.718  0.00  0.00    +0.196 A 
ATOM      6  C   UNL A   1     -28.940   1.052  30.060  0.00  0.00    +0.042 A 
ATOM      7  O   UNL A   1     -30.059  -1.063  30.095  0.00  0.00    -0.287 OA
ENDROOT
BRANCH   3   8
ATOM      8  C   UNL A   1     -25.668   1.936  28.448  0.00  0.00    -0.007 C 
ATOM      9  C   UNL A   1     -24.935   1.716  27.680  0.00  0.00    -0.029 C 
ATOM     10  C   UNL A   1     -23.712   2.480  27.323  0.00  0.00    +0.030 C 
BRANCH   8  11
ATOM     11  C   UNL A   1     -25.469   3.243  29.204  0.00  0.00    +0.135 C 
ATOM     12  N   UNL A   1     -26.261   3.652  30.234  0.00  0.00    -0.126 NA
ENDBRANCH   8  11
ENDBRANCH   3   8
TORSDOF 2
