MODEL 290
MODEL 1
REMARK VINA RESULT:    -5.146      0.000      0.000
REMARK INTER + INTRA:          -5.555
REMARK INTER:                  -5.446
REMARK INTRA:                  -0.108
REMARK UNBOUND:                -0.108
REMARK  Name = No_290-gen_results/8p0m/2024-11-26-14-13-15/
REMARK  1 active torsions:
REMARK  status: ('A' for Active; 'I' for Inactive)
REMARK    1  A    between atoms: N_7  and  C_8
REMARK                            x       y       z     vdW  Elec       q    Type
REMARK                         _______ _______ _______ _____ _____    ______ ____
ROOT
ATOM      1  N   UNL A   1     -23.645  -3.519  28.701  0.00  0.00    -0.227 NA
ATOM      2  C   UNL A   1     -24.449  -2.720  29.188  0.00  0.00    +0.152 A 
ATOM      3  C   UNL A   1     -25.715  -3.152  29.543  0.00  0.00    +0.036 A 
ATOM      4  C   UNL A   1     -25.978  -4.499  29.585  0.00  0.00    +0.004 A 
ATOM      5  C   UNL A   1     -25.102  -5.346  29.032  0.00  0.00    +0.021 A 
ATOM      6  C   UNL A   1     -23.983  -4.803  28.494  0.00  0.00    +0.100 A 
ATOM      7  N   UNL A   1     -24.060  -1.414  29.125  0.00  0.00    -0.193 NA
ENDROOT
BRANCH   7   8
ATOM      8  C   UNL A   1     -23.699  -0.647  28.478  0.00  0.00    +0.083 C 
ATOM      9  C   UNL A   1     -22.835   0.164  28.822  0.00  0.00    -0.008 C 
ATOM     10  C   UNL A   1     -22.389   1.324  27.958  0.00  0.00    +0.032 C 
ENDBRANCH   7   8
TORSDOF 1
ENDMDL
ENDMDL
