MODEL 2910
MODEL 1
REMARK VINA RESULT:    -8.172      0.000      0.000
REMARK INTER + INTRA:          -8.746
REMARK INTER:                  -8.650
REMARK INTRA:                  -0.096
REMARK UNBOUND:                -0.096
REMARK  Name = No_2910-gen_results/8p0m/2024-11-26-14-13-15/
REMARK  1 active torsions:
REMARK  status: ('A' for Active; 'I' for Inactive)
REMARK    1  A    between atoms: C_9  and  C_13
REMARK                            x       y       z     vdW  Elec       q    Type
REMARK                         _______ _______ _______ _____ _____    ______ ____
ROOT
ATOM      1  C   UNL A   1     -28.519 -11.582  31.119  0.00  0.00    +0.006 A 
ATOM      2  C   UNL A   1     -29.379 -10.917  30.589  0.00  0.00    -0.003 A 
ATOM      3  C   UNL A   1     -29.755 -11.011  29.260  0.00  0.00    -0.001 A 
ATOM      4  C   UNL A   1     -30.718 -10.177  28.583  0.00  0.00    -0.001 A 
ATOM      5  C   UNL A   1     -31.084 -10.291  27.265  0.00  0.00    +0.019 A 
ATOM      6  C   UNL A   1     -30.296 -11.161  26.507  0.00  0.00    +0.002 A 
ATOM      7  C   UNL A   1     -29.325 -11.938  27.024  0.00  0.00    +0.000 A 
ATOM      8  C   UNL A   1     -29.066 -11.787  28.391  0.00  0.00    -0.000 A 
ATOM      9  C   UNL A   1     -28.268 -11.491  32.580  0.00  0.00    +0.080 A 
ATOM     10  C   UNL A   1     -28.789 -10.408  33.285  0.00  0.00    +0.006 A 
ATOM     11  C   UNL A   1     -29.600  -9.477  32.661  0.00  0.00    -0.004 A 
ATOM     12  C   UNL A   1     -29.937  -9.710  31.335  0.00  0.00    -0.018 A 
ATOM     13  C   UNL A   1     -32.167  -9.455  26.743  0.00  0.00    +0.099 A 
ATOM     14  N   UNL A   1     -32.389  -8.261  27.317  0.00  0.00    -0.243 NA
ATOM     15  C   UNL A   1     -32.325  -8.126  28.693  0.00  0.00    +0.095 A 
ATOM     16  C   UNL A   1     -31.351  -9.019  29.359  0.00  0.00    +0.001 A 
ATOM     17  C   UNL A   1     -30.898  -8.901  30.589  0.00  0.00    +0.054 C 
ENDROOT
BRANCH   9  18
ATOM     18  C   UNL A   1     -27.322 -12.398  33.258  0.00  0.00    +0.388 C 
ATOM     19  O   UNL A   1     -27.141 -12.382  34.460  0.00  0.00    -0.241 OA
ATOM     20  O   UNL A   1     -26.359 -12.910  32.508  0.00  0.00    -0.241 OA
ENDBRANCH   9  18
TORSDOF 1
ENDMDL
ENDMDL
