MODEL 2911
MODEL 1
REMARK VINA RESULT:    -8.995      0.000      0.000
REMARK INTER + INTRA:         -13.574
REMARK INTER:                 -12.149
REMARK INTRA:                  -1.424
REMARK UNBOUND:                -1.424
REMARK  Name = No_2911-gen_results/8p0m/2024-11-26-14-13-15/
REMARK  6 active torsions:
REMARK  status: ('A' for Active; 'I' for Inactive)
REMARK    1  A    between atoms: C_5  and  C_14
REMARK    2  A    between atoms: C_11  and  C_13
REMARK    3  A    between atoms: C_14  and  C_15
REMARK    4  A    between atoms: C_15  and  C_16
REMARK    5  A    between atoms: C_16  and  C_17
REMARK    6  A    between atoms: C_23  and  C_33
REMARK                            x       y       z     vdW  Elec       q    Type
REMARK                         _______ _______ _______ _____ _____    ______ ____
ROOT
ATOM      1  C   UNL A   1     -23.141   0.684  27.568  0.00  0.00    +0.052 A 
ATOM      2  C   UNL A   1     -22.669   1.105  28.411  0.00  0.00    +0.271 C 
ATOM      3  C   UNL A   1     -24.238  -0.230  27.909  0.00  0.00    -0.006 A 
ATOM      4  C   UNL A   1     -25.139  -0.754  26.864  0.00  0.00    -0.008 A 
ATOM      5  C   UNL A   1     -25.385   0.064  25.738  0.00  0.00    -0.023 A 
ATOM      6  C   UNL A   1     -24.578   1.236  25.556  0.00  0.00    -0.004 A 
ATOM      7  C   UNL A   1     -23.657   1.582  26.457  0.00  0.00    +0.004 A 
ATOM      8  N   UNL A   1     -22.353   0.560  29.549  0.00  0.00    -0.140 NA
ATOM      9  O   UNL A   1     -21.942   2.308  28.291  0.00  0.00    -0.268 OA
ATOM     10  C   UNL A   1     -22.942  -0.581  29.995  0.00  0.00    +0.256 C 
ATOM     11  C   UNL A   1     -23.941  -1.069  29.093  0.00  0.00    +0.123 C 
ATOM     12  O   UNL A   1     -22.740  -1.147  31.070  0.00  0.00    -0.272 OA
ENDROOT
BRANCH  11  13
ATOM     13  C   UNL A   1     -24.733  -2.256  29.305  0.00  0.00    -0.010 A 
ATOM     14  C   UNL A   1     -25.933  -2.298  29.744  0.00  0.00    -0.004 A 
ATOM     15  C   UNL A   1     -26.637  -3.492  29.935  0.00  0.00    -0.000 A 
ATOM     16  C   UNL A   1     -25.970  -4.745  29.570  0.00  0.00    -0.000 A 
ATOM     17  C   UNL A   1     -24.679  -4.717  29.066  0.00  0.00    -0.000 A 
ATOM     18  C   UNL A   1     -24.059  -3.553  28.880  0.00  0.00    -0.004 A 
ENDBRANCH  11  13
BRANCH   5  19
ATOM     19  C   UNL A   1     -26.401  -0.283  24.773  0.00  0.00    +0.023 C 
ATOM     20  C   UNL A   1     -26.284  -1.491  24.131  0.00  0.00    +0.005 C 
BRANCH  19  21
ATOM     21  C   UNL A   1     -27.595   0.483  24.824  0.00  0.00    +0.013 C 
BRANCH  21  22
ATOM     22  C   UNL A   1     -28.679   0.432  25.437  0.00  0.00    +0.077 C 
ATOM     23  C   UNL A   1     -28.865   0.940  26.809  0.00  0.00    +0.010 C 
BRANCH  22  24
ATOM     24  C   UNL A   1     -29.902   0.075  24.761  0.00  0.00    +0.231 C 
ATOM     25  N   UNL A   1     -30.531   0.868  23.991  0.00  0.00    -0.230 N 
ATOM     26  C   UNL A   1     -30.236   2.140  23.722  0.00  0.00    +0.101 C 
ATOM     27  C   UNL A   1     -31.106   2.790  22.684  0.00  0.00    +0.023 C 
ATOM     28  C   UNL A   1     -31.568   0.302  23.088  0.00  0.00    +0.235 C 
ATOM     29  O   UNL A   1     -31.871  -0.949  23.225  0.00  0.00    -0.274 OA
ATOM     30  C   UNL A   1     -32.151   1.121  22.086  0.00  0.00    +0.099 C 
ATOM     31  C   UNL A   1     -31.962   2.363  21.924  0.00  0.00    +0.015 C 
ATOM     32  O   UNL A   1     -30.420  -1.049  25.203  0.00  0.00    -0.275 OA
BRANCH  30  33
ATOM     33  C   UNL A   1     -33.195   0.367  21.203  0.00  0.00    -0.022 C 
ATOM     34  C   UNL A   1     -34.531   0.554  21.477  0.00  0.00    -0.030 C 
ATOM     35  C   UNL A   1     -34.988   1.059  22.669  0.00  0.00    +0.030 C 
ENDBRANCH  30  33
ENDBRANCH  22  24
ENDBRANCH  21  22
ENDBRANCH  19  21
ENDBRANCH   5  19
TORSDOF 6
ENDMDL
ENDMDL
