REMARK  Name = No_2911-gen_results/8p0m/2024-11-26-14-13-15/
REMARK  6 active torsions:
REMARK  status: ('A' for Active; 'I' for Inactive)
REMARK    1  A    between atoms: C_5  and  C_14
REMARK    2  A    between atoms: C_11  and  C_13
REMARK    3  A    between atoms: C_14  and  C_15
REMARK    4  A    between atoms: C_15  and  C_16
REMARK    5  A    between atoms: C_16  and  C_17
REMARK    6  A    between atoms: C_23  and  C_33
REMARK                            x       y       z     vdW  Elec       q    Type
REMARK                         _______ _______ _______ _____ _____    ______ ____
ROOT
ATOM      1  C   UNL A   1     -28.016  -0.814  28.878  0.00  0.00    +0.052 A 
ATOM      2  C   UNL A   1     -28.469  -0.785  29.829  0.00  0.00    +0.271 C 
ATOM      3  C   UNL A   1     -28.182   0.428  28.113  0.00  0.00    -0.006 A 
ATOM      4  C   UNL A   1     -27.450   0.643  26.850  0.00  0.00    -0.008 A 
ATOM      5  C   UNL A   1     -26.181   0.036  26.715  0.00  0.00    -0.023 A 
ATOM      6  C   UNL A   1     -25.780  -0.933  27.694  0.00  0.00    -0.004 A 
ATOM      7  C   UNL A   1     -26.557  -1.213  28.741  0.00  0.00    +0.004 A 
ATOM      8  N   UNL A   1     -29.610  -0.278  30.194  0.00  0.00    -0.140 NA
ATOM      9  O   UNL A   1     -28.039  -1.660  30.848  0.00  0.00    -0.268 OA
ATOM     10  C   UNL A   1     -30.255   0.664  29.456  0.00  0.00    +0.256 C 
ATOM     11  C   UNL A   1     -29.524   1.032  28.281  0.00  0.00    +0.123 C 
ATOM     12  O   UNL A   1     -31.313   1.228  29.737  0.00  0.00    -0.272 OA
ENDROOT
BRANCH  11  13
ATOM     13  C   UNL A   1     -29.960   2.009  27.313  0.00  0.00    -0.010 A 
ATOM     14  C   UNL A   1     -31.140   2.128  26.835  0.00  0.00    -0.004 A 
ATOM     15  C   UNL A   1     -31.488   3.097  25.888  0.00  0.00    -0.000 A 
ATOM     16  C   UNL A   1     -30.452   4.042  25.463  0.00  0.00    -0.000 A 
ATOM     17  C   UNL A   1     -29.174   3.946  25.992  0.00  0.00    -0.000 A 
ATOM     18  C   UNL A   1     -28.897   3.021  26.910  0.00  0.00    -0.004 A 
ENDBRANCH  11  13
BRANCH   5  19
ATOM     19  C   UNL A   1     -25.317   0.355  25.603  0.00  0.00    +0.023 C 
ATOM     20  C   UNL A   1     -25.726  -0.025  24.349  0.00  0.00    +0.005 C 
BRANCH  19  21
ATOM     21  C   UNL A   1     -24.308   1.321  25.857  0.00  0.00    +0.013 C 
BRANCH  21  22
ATOM     22  C   UNL A   1     -23.600   1.659  26.826  0.00  0.00    +0.077 C 
ATOM     23  C   UNL A   1     -22.166   1.983  26.713  0.00  0.00    +0.010 C 
BRANCH  22  24
ATOM     24  C   UNL A   1     -24.188   1.983  28.102  0.00  0.00    +0.231 C 
ATOM     25  N   UNL A   1     -24.971   2.969  28.280  0.00  0.00    -0.230 N 
ATOM     26  C   UNL A   1     -25.332   3.889  27.385  0.00  0.00    +0.101 C 
ATOM     27  C   UNL A   1     -26.360   4.874  27.863  0.00  0.00    +0.023 C 
ATOM     28  C   UNL A   1     -25.782   3.012  29.526  0.00  0.00    +0.235 C 
ATOM     29  O   UNL A   1     -25.553   2.112  30.427  0.00  0.00    -0.274 OA
ATOM     30  C   UNL A   1     -26.800   3.991  29.669  0.00  0.00    +0.099 C 
ATOM     31  C   UNL A   1     -27.047   4.943  28.871  0.00  0.00    +0.015 C 
ATOM     32  O   UNL A   1     -23.652   1.311  29.096  0.00  0.00    -0.275 OA
BRANCH  30  33
ATOM     33  C   UNL A   1     -27.579   3.878  31.017  0.00  0.00    -0.022 C 
ATOM     34  C   UNL A   1     -28.950   3.997  30.985  0.00  0.00    -0.030 C 
ATOM     35  C   UNL A   1     -29.630   4.554  29.930  0.00  0.00    +0.030 C 
ENDBRANCH  30  33
ENDBRANCH  22  24
ENDBRANCH  21  22
ENDBRANCH  19  21
ENDBRANCH   5  19
TORSDOF 6
