MODEL 2912
MODEL 1
REMARK VINA RESULT:    -7.049      0.000      0.000
REMARK INTER + INTRA:          -9.126
REMARK INTER:                  -7.873
REMARK INTRA:                  -1.254
REMARK UNBOUND:                -1.254
REMARK  Name = No_2912-gen_results/8p0m/2024-11-26-14-13-15/
REMARK  3 active torsions:
REMARK  status: ('A' for Active; 'I' for Inactive)
REMARK    1  A    between atoms: C_3  and  C_7
REMARK    2  A    between atoms: C_8  and  C_9
REMARK    3  A    between atoms: C_13  and  O_18
REMARK                            x       y       z     vdW  Elec       q    Type
REMARK                         _______ _______ _______ _____ _____    ______ ____
ROOT
ATOM      1  C   UNL A   1     -22.893   0.922  28.561  0.00  0.00    +0.043 C 
ATOM      2  C   UNL A   1     -23.294   1.434  29.555  0.00  0.00    +0.003 C 
ATOM      3  C   UNL A   1     -23.951   0.761  30.672  0.00  0.00    +0.030 C 
ATOM      4  C   UNL A   1     -24.067  -0.603  30.660  0.00  0.00    +0.180 C 
ATOM      5  C   UNL A   1     -23.665  -1.238  29.539  0.00  0.00    +0.346 C 
ATOM      6  C   UNL A   1     -23.077  -0.602  28.539  0.00  0.00    +0.340 C 
ATOM      7  F   UNL A   1     -21.646  -1.094  28.952  0.00  0.00    -0.193 F 
ATOM      8  F   UNL A   1     -24.134  -0.730  27.900  0.00  0.00    -0.193 F 
ATOM      9  F   UNL A   1     -24.993  -0.803  29.076  0.00  0.00    -0.195 F 
ATOM     10  F   UNL A   1     -24.970  -0.819  31.580  0.00  0.00    -0.203 F 
ENDROOT
BRANCH   1  12
ATOM     11  C   UNL A   1     -22.671   2.072  26.355  0.00  0.00    +0.002 C 
ATOM     12  C   UNL A   1     -22.184   1.489  27.445  0.00  0.00    +0.001 C 
BRANCH  11  15
ATOM     13  C   UNL A   1     -24.932   1.171  25.627  0.00  0.00    +0.140 A 
ATOM     14  C   UNL A   1     -25.983   1.219  25.692  0.00  0.00    +0.030 A 
ATOM     15  C   UNL A   1     -24.206   2.179  26.344  0.00  0.00    +0.028 A 
ATOM     16  C   UNL A   1     -24.796   3.225  26.930  0.00  0.00    +0.002 A 
ATOM     17  C   UNL A   1     -26.163   3.246  26.901  0.00  0.00    +0.000 A 
ATOM     18  C   UNL A   1     -26.838   2.234  26.270  0.00  0.00    +0.002 A 
ATOM     19  F   UNL A   1     -24.193   0.398  24.991  0.00  0.00    -0.204 F 
ENDBRANCH  11  15
ENDBRANCH   1  12
BRANCH   5  20
ATOM     20  O   UNL A   1     -23.774  -2.564  29.528  0.00  0.00    -0.225 OA
ATOM     21 CL   UNL A   1     -23.214  -1.969  28.941  0.00  0.00    +0.065 Cl
ENDBRANCH   5  20
TORSDOF 3
ENDMDL
ENDMDL
