REMARK  Name = No_2912-gen_results/8p0m/2024-11-26-14-13-15/
REMARK  3 active torsions:
REMARK  status: ('A' for Active; 'I' for Inactive)
REMARK    1  A    between atoms: C_3  and  C_7
REMARK    2  A    between atoms: C_8  and  C_9
REMARK    3  A    between atoms: C_13  and  O_18
REMARK                            x       y       z     vdW  Elec       q    Type
REMARK                         _______ _______ _______ _____ _____    ______ ____
ROOT
ATOM      1  C   UNL A   1     -25.331   0.262  28.008  0.00  0.00    +0.043 C 
ATOM      2  C   UNL A   1     -24.230   0.651  28.222  0.00  0.00    +0.003 C 
ATOM      3  C   UNL A   1     -23.463   0.451  29.448  0.00  0.00    +0.030 C 
ATOM      4  C   UNL A   1     -23.986  -0.324  30.448  0.00  0.00    +0.180 C 
ATOM      5  C   UNL A   1     -25.251  -0.763  30.280  0.00  0.00    +0.346 C 
ATOM      6  C   UNL A   1     -25.925  -0.562  29.159  0.00  0.00    +0.340 C 
ATOM      7  F   UNL A   1     -25.686  -2.026  28.651  0.00  0.00    -0.193 F 
ATOM      8  F   UNL A   1     -26.595   0.287  29.771  0.00  0.00    -0.193 F 
ATOM      9  F   UNL A   1     -25.555   0.601  30.744  0.00  0.00    -0.195 F 
ATOM     10  F   UNL A   1     -23.238  -0.008  31.473  0.00  0.00    -0.203 F 
ENDROOT
BRANCH   1  12
ATOM     11  C   UNL A   1     -27.459   0.379  26.705  0.00  0.00    +0.002 C 
ATOM     12  C   UNL A   1     -26.135   0.356  26.818  0.00  0.00    +0.001 C 
BRANCH  11  15
ATOM     13  C   UNL A   1     -28.016  -0.814  28.878  0.00  0.00    +0.140 A 
ATOM     14  C   UNL A   1     -28.469  -0.785  29.829  0.00  0.00    +0.030 A 
ATOM     15  C   UNL A   1     -28.196   0.348  28.055  0.00  0.00    +0.028 A 
ATOM     16  C   UNL A   1     -29.019   1.350  28.378  0.00  0.00    +0.002 A 
ATOM     17  C   UNL A   1     -29.625   1.268  29.601  0.00  0.00    +0.000 A 
ATOM     18  C   UNL A   1     -29.382   0.182  30.400  0.00  0.00    +0.002 A 
ATOM     19  F   UNL A   1     -27.369  -1.714  28.314  0.00  0.00    -0.204 F 
ENDBRANCH  11  15
ENDBRANCH   1  12
BRANCH   5  20
ATOM     20  O   UNL A   1     -25.759  -1.519  31.250  0.00  0.00    -0.225 OA
ATOM     21 CL   UNL A   1     -24.795  -1.336  31.027  0.00  0.00    +0.065 Cl
ENDBRANCH   5  20
TORSDOF 3
