MODEL 2913
MODEL 1
REMARK VINA RESULT:    -4.964      0.000      0.000
REMARK INTER + INTRA:          -5.974
REMARK INTER:                  -5.835
REMARK INTRA:                  -0.139
REMARK UNBOUND:                -0.139
REMARK  Name = No_2913-gen_results/8p0m/2024-11-26-14-13-15/
REMARK  3 active torsions:
REMARK  status: ('A' for Active; 'I' for Inactive)
REMARK    1  A    between atoms: C_1  and  C_2
REMARK    2  A    between atoms: C_1  and  N_8
REMARK    3  A    between atoms: N_8  and  C_9
REMARK                            x       y       z     vdW  Elec       q    Type
REMARK                         _______ _______ _______ _____ _____    ______ ____
ROOT
ATOM      1  C   UNL A   1     -24.487  -2.618  28.894  0.00  0.00    -0.001 A 
ATOM      2  C   UNL A   1     -23.978  -3.859  28.690  0.00  0.00    -0.003 A 
ATOM      3  C   UNL A   1     -24.690  -5.121  28.995  0.00  0.00    -0.000 A 
ATOM      4  C   UNL A   1     -26.001  -5.004  29.565  0.00  0.00    -0.000 A 
ATOM      5  C   UNL A   1     -26.465  -3.696  29.828  0.00  0.00    -0.000 A 
ATOM      6  C   UNL A   1     -25.747  -2.570  29.518  0.00  0.00    -0.003 A 
ENDROOT
BRANCH   1   7
ATOM      7  C   UNL A   1     -23.893  -1.595  28.642  0.00  0.00    +0.139 C 
BRANCH   7   8
ATOM      8  N   UNL A   1     -22.567  -1.431  29.029  0.00  0.00    -0.232 NA
BRANCH   8   9
ATOM      9  C   UNL A   1     -21.846  -0.653  29.307  0.00  0.00    +0.081 C 
ATOM     10  C   UNL A   1     -20.832   0.028  28.484  0.00  0.00    +0.019 C 
ENDBRANCH   8   9
ENDBRANCH   7   8
ENDBRANCH   1   7
TORSDOF 3
ENDMDL
ENDMDL
