MODEL 2914
MODEL 1
REMARK VINA RESULT:    -6.131      0.000      0.000
REMARK INTER + INTRA:          -6.795
REMARK INTER:                  -6.490
REMARK INTRA:                  -0.306
REMARK UNBOUND:                -0.306
REMARK  Name = No_2914-gen_results/8p0m/2024-11-26-14-13-15/
REMARK  1 active torsions:
REMARK  status: ('A' for Active; 'I' for Inactive)
REMARK    1  A    between atoms: C_3  and  C_4
REMARK                            x       y       z     vdW  Elec       q    Type
REMARK                         _______ _______ _______ _____ _____    ______ ____
ROOT
ATOM      1  C   UNL A   1     -24.691  -3.935  29.225  0.00  0.00    +0.011 A 
ATOM      2  C   UNL A   1     -23.871  -3.105  28.908  0.00  0.00    +0.001 A 
ATOM      3  C   UNL A   1     -24.058  -1.733  29.074  0.00  0.00    +0.000 A 
ATOM      4  C   UNL A   1     -26.041  -3.470  29.664  0.00  0.00    +0.058 A 
ATOM      5  C   UNL A   1     -26.299  -2.156  29.937  0.00  0.00    +0.011 A 
ATOM      6  C   UNL A   1     -25.322  -1.176  29.612  0.00  0.00    +0.001 A 
ATOM      7 CL   UNL A   1     -27.319  -4.564  30.153  0.00  0.00    -0.082 Cl
ENDROOT
BRANCH   3   8
ATOM      8  C   UNL A   1     -23.121  -0.654  28.706  0.00  0.00    +0.000 A 
ATOM      9  C   UNL A   1     -21.688  -0.700  28.848  0.00  0.00    +0.000 A 
ATOM     10  C   UNL A   1     -20.889   0.389  28.448  0.00  0.00    +0.000 A 
ATOM     11  C   UNL A   1     -21.415   1.443  27.638  0.00  0.00    +0.000 A 
ATOM     12  C   UNL A   1     -23.569   0.508  27.940  0.00  0.00    +0.000 A 
ATOM     13  C   UNL A   1     -22.742   1.484  27.465  0.00  0.00    +0.000 A 
ENDBRANCH   3   8
TORSDOF 1
ENDMDL
ENDMDL
