MODEL 2915
MODEL 1
REMARK VINA RESULT:    -3.538      0.000      0.000
REMARK INTER + INTRA:          -3.992
REMARK INTER:                  -3.952
REMARK INTRA:                  -0.040
REMARK UNBOUND:                -0.040
REMARK  Name = No_2915-gen_results/8p0m/2024-11-26-14-13-15/
REMARK  2 active torsions:
REMARK  status: ('A' for Active; 'I' for Inactive)
REMARK    1  A    between atoms: C_1  and  C_2
REMARK    2  A    between atoms: C_1  and  C_4
REMARK                            x       y       z     vdW  Elec       q    Type
REMARK                         _______ _______ _______ _____ _____    ______ ____
ROOT
ATOM      1  C   UNL A   1      -8.743  -9.155  19.944  0.00  0.00    +0.047 C 
ENDROOT
BRANCH   1   2
ATOM      2  C   UNL A   1      -9.094  -9.735  18.942  0.00  0.00    +0.067 C 
ATOM      3  N   UNL A   1     -10.193  -9.455  18.301  0.00  0.00    -0.271 NA
ATOM      4  C   UNL A   1     -10.718 -10.305  17.237  0.00  0.00    +0.151 C 
ENDBRANCH   1   2
BRANCH   1   5
ATOM      5  C   UNL A   1      -7.351  -8.910  20.126  0.00  0.00    +0.006 C 
ATOM      6  C   UNL A   1      -6.928  -7.904  19.525  0.00  0.00    +0.000 C 
ENDBRANCH   1   5
TORSDOF 2
ENDMDL
ENDMDL
