REMARK  Name = No_2915-gen_results/8p0m/2024-11-26-14-13-15/
REMARK  2 active torsions:
REMARK  status: ('A' for Active; 'I' for Inactive)
REMARK    1  A    between atoms: C_1  and  C_2
REMARK    2  A    between atoms: C_1  and  C_4
REMARK                            x       y       z     vdW  Elec       q    Type
REMARK                         _______ _______ _______ _____ _____    ______ ____
ROOT
ATOM      1  C   UNL A   1     -28.016  -0.814  28.878  0.00  0.00    +0.047 C 
ENDROOT
BRANCH   1   2
ATOM      2  C   UNL A   1     -27.064  -0.119  28.608  0.00  0.00    +0.067 C 
ATOM      3  N   UNL A   1     -26.985   0.597  27.522  0.00  0.00    -0.271 NA
ATOM      4  C   UNL A   1     -25.748   1.245  27.099  0.00  0.00    +0.151 C 
ENDBRANCH   1   2
BRANCH   1   5
ATOM      5  C   UNL A   1     -29.291  -0.437  28.366  0.00  0.00    +0.006 C 
ATOM      6  C   UNL A   1     -29.280   0.611  27.692  0.00  0.00    +0.000 C 
ENDBRANCH   1   5
TORSDOF 2
