MODEL 2916
MODEL 1
REMARK VINA RESULT:    -7.586      0.000      0.000
REMARK INTER + INTRA:          -8.321
REMARK INTER:                  -8.029
REMARK INTRA:                  -0.291
REMARK UNBOUND:                -0.291
REMARK  Name = No_2916-gen_results/8p0m/2024-11-26-14-13-15/
REMARK  1 active torsions:
REMARK  status: ('A' for Active; 'I' for Inactive)
REMARK    1  A    between atoms: C_4  and  C_11
REMARK                            x       y       z     vdW  Elec       q    Type
REMARK                         _______ _______ _______ _____ _____    ______ ____
ROOT
ATOM      1  C   UNL A   1     -23.875  -4.409  28.591  0.00  0.00    +0.000 A 
ATOM      2  C   UNL A   1     -23.850  -3.221  28.815  0.00  0.00    +0.000 A 
ATOM      3  C   UNL A   1     -24.882  -2.534  29.453  0.00  0.00    +0.004 A 
ATOM      4  C   UNL A   1     -24.940  -1.091  29.754  0.00  0.00    +0.054 A 
ATOM      5  C   UNL A   1     -26.042  -0.406  30.379  0.00  0.00    +0.004 A 
ATOM      6  C   UNL A   1     -27.030  -1.245  30.904  0.00  0.00    +0.000 A 
ATOM      7  C   UNL A   1     -25.157  -5.139  28.879  0.00  0.00    +0.000 A 
ATOM      8  C   UNL A   1     -26.189  -4.565  29.585  0.00  0.00    +0.000 A 
ATOM      9  C   UNL A   1     -26.134  -3.214  29.877  0.00  0.00    +0.000 A 
ATOM     10  C   UNL A   1     -27.148  -2.585  30.598  0.00  0.00    +0.000 A 
ENDROOT
BRANCH   4  11
ATOM     11  C   UNL A   1     -23.802  -0.197  29.362  0.00  0.00    +0.249 C 
ATOM     12  N   UNL A   1     -23.882   0.446  28.349  0.00  0.00    -0.276 N 
ATOM     13  O   UNL A   1     -22.776  -0.167  30.117  0.00  0.00    -0.270 OA
ATOM     14  C   UNL A   1     -24.837   0.488  27.274  0.00  0.00    +0.094 C 
ATOM     15  C   UNL A   1     -24.361   1.046  26.027  0.00  0.00    +0.022 C 
ATOM     16  C   UNL A   1     -23.201   1.828  26.006  0.00  0.00    +0.004 C 
ATOM     17  C   UNL A   1     -22.334   1.861  27.110  0.00  0.00    +0.022 C 
ATOM     18  C   UNL A   1     -22.652   1.186  28.194  0.00  0.00    +0.094 C 
ENDBRANCH   4  11
TORSDOF 1
ENDMDL
ENDMDL
