MODEL 2917
MODEL 1
REMARK VINA RESULT:    -4.584      0.000      0.000
REMARK INTER + INTRA:          -4.584
REMARK INTER:                  -4.584
REMARK INTRA:                   0.000
REMARK UNBOUND:                 0.000
REMARK  Name = No_2917-gen_results/8p0m/2024-11-26-14-13-15/
REMARK  0 active torsions:
REMARK  status: ('A' for Active; 'I' for Inactive)
REMARK                            x       y       z     vdW  Elec       q    Type
REMARK                         _______ _______ _______ _____ _____    ______ ____
ROOT
ATOM      1  C   UNL A   1     -26.134  -4.552  29.602  0.00  0.00    +0.030 A 
ATOM      2  C   UNL A   1     -26.184  -3.393  29.944  0.00  0.00    +0.002 A 
ATOM      3  C   UNL A   1     -25.147  -2.513  29.653  0.00  0.00    +0.000 A 
ATOM      4  C   UNL A   1     -23.960  -2.966  28.975  0.00  0.00    +0.002 A 
ATOM      5  C   UNL A   1     -23.976  -4.325  28.637  0.00  0.00    +0.030 A 
ATOM      6  C   UNL A   1     -24.928  -5.033  28.946  0.00  0.00    +0.140 A 
ATOM      7  F   UNL A   1     -24.888  -6.370  28.587  0.00  0.00    -0.204 F 
ENDROOT
TORSDOF 0
ENDMDL
ENDMDL
