REMARK  Name = No_2918-gen_results/8p0m/2024-11-26-14-13-15/
REMARK  4 active torsions:
REMARK  status: ('A' for Active; 'I' for Inactive)
REMARK    1  A    between atoms: C_1  and  C_2
REMARK    2  A    between atoms: C_1  and  C_9
REMARK    3  A    between atoms: C_10  and  O_21
REMARK    4  A    between atoms: O_21  and  C_22
REMARK                            x       y       z     vdW  Elec       q    Type
REMARK                         _______ _______ _______ _____ _____    ______ ____
ROOT
ATOM      1  C   UNL A   1     -28.016  -0.814  28.878  0.00  0.00    +0.059 C 
ENDROOT
BRANCH   1   2
ATOM      2  C   UNL A   1     -27.064  -0.119  28.608  0.00  0.00    +0.021 A 
ATOM      3  C   UNL A   1     -27.001   0.691  27.491  0.00  0.00    -0.001 A 
ATOM      4  C   UNL A   1     -25.855   1.482  27.083  0.00  0.00    +0.004 A 
ATOM      5  C   UNL A   1     -24.690   1.453  27.881  0.00  0.00    +0.054 A 
ATOM      6  C   UNL A   1     -23.488   2.145  27.601  0.00  0.00    +0.265 C 
ATOM      7  C   UNL A   1     -25.812  -0.166  29.430  0.00  0.00    +0.188 A 
ATOM      8  C   UNL A   1     -24.646   0.589  29.081  0.00  0.00    +0.023 A 
ATOM      9  N   UNL A   1     -22.342   1.824  28.190  0.00  0.00    -0.201 NA
ATOM     10  O   UNL A   1     -23.539   3.168  26.839  0.00  0.00    -0.268 OA
ATOM     11  C   UNL A   1     -22.067   0.670  28.868  0.00  0.00    +0.120 C 
ATOM     12  C   UNL A   1     -23.256   0.014  29.449  0.00  0.00    +0.053 C 
ATOM     13  O   UNL A   1     -25.729  -0.983  30.421  0.00  0.00    -0.287 OA
ENDBRANCH   1   2
BRANCH   1  14
ATOM     14  C   UNL A   1     -29.238  -0.100  29.374  0.00  0.00    +0.017 A 
ATOM     15  C   UNL A   1     -30.389  -0.851  29.793  0.00  0.00    +0.143 A 
ATOM     16  C   UNL A   1     -31.596  -0.344  29.691  0.00  0.00    +0.049 A 
ATOM     17  C   UNL A   1     -31.730   1.078  29.483  0.00  0.00    +0.061 A 
ATOM     18  C   UNL A   1     -30.649   1.810  29.117  0.00  0.00    +0.011 A 
ATOM     19  C   UNL A   1     -29.405   1.227  28.945  0.00  0.00    -0.000 A 
ATOM     20 CL   UNL A   1     -33.298   1.751  29.683  0.00  0.00    -0.082 Cl
BRANCH  15  21
ATOM     21  O   UNL A   1     -30.249  -2.166  29.978  0.00  0.00    -0.447 OA
BRANCH  21  22
ATOM     22  C   UNL A   1     -29.586  -2.594  31.110  0.00  0.00    +0.225 C 
ATOM     23  C   UNL A   1     -28.883  -3.857  30.891  0.00  0.00    +0.275 C 
ATOM     24  O   UNL A   1     -29.353  -4.503  29.888  0.00  0.00    -0.280 OA
ENDBRANCH  21  22
ENDBRANCH  15  21
ENDBRANCH   1  14
TORSDOF 4
