MODEL 2918
MODEL 1
REMARK VINA RESULT:    -6.343      0.000      0.000
REMARK INTER + INTRA:          -8.920
REMARK INTER:                  -7.826
REMARK INTRA:                  -1.094
REMARK UNBOUND:                -1.094
REMARK  Name = No_2918-gen_results/8p0m/2024-11-26-14-13-15/
REMARK  4 active torsions:
REMARK  status: ('A' for Active; 'I' for Inactive)
REMARK    1  A    between atoms: C_1  and  C_2
REMARK    2  A    between atoms: C_1  and  C_9
REMARK    3  A    between atoms: C_10  and  O_21
REMARK    4  A    between atoms: O_21  and  C_22
REMARK                            x       y       z     vdW  Elec       q    Type
REMARK                         _______ _______ _______ _____ _____    ______ ____
ROOT
ATOM      1  C   UNL A   1      -6.733  -0.478  10.766  0.00  0.00    +0.059 C 
ENDROOT
BRANCH   1   2
ATOM      2  C   UNL A   1      -7.430   0.373  10.263  0.00  0.00    +0.021 A 
ATOM      3  C   UNL A   1      -7.232   0.869   8.990  0.00  0.00    -0.001 A 
ATOM      4  C   UNL A   1      -7.991   1.941   8.372  0.00  0.00    +0.004 A 
ATOM      5  C   UNL A   1      -9.037   2.544   9.106  0.00  0.00    +0.054 A 
ATOM      6  C   UNL A   1      -9.844   3.614   8.653  0.00  0.00    +0.265 C 
ATOM      7  C   UNL A   1      -8.521   1.040  11.043  0.00  0.00    +0.188 A 
ATOM      8  C   UNL A   1      -9.305   2.105  10.493  0.00  0.00    +0.023 A 
ATOM      9  N   UNL A   1     -10.570   4.346   9.489  0.00  0.00    -0.201 NA
ATOM     10  O   UNL A   1      -9.949   3.806   7.395  0.00  0.00    -0.268 OA
ATOM     11  C   UNL A   1     -10.439   4.406  10.848  0.00  0.00    +0.120 C 
ATOM     12  C   UNL A   1      -9.852   3.192  11.451  0.00  0.00    +0.053 C 
ATOM     13  O   UNL A   1      -8.703   0.733  12.280  0.00  0.00    -0.287 OA
ENDBRANCH   1   2
BRANCH   1  14
ATOM     14  C   UNL A   1      -5.336  -0.065  11.122  0.00  0.00    +0.017 A 
ATOM     15  C   UNL A   1      -4.214  -0.714  10.502  0.00  0.00    +0.143 A 
ATOM     16  C   UNL A   1      -3.065  -0.816  11.130  0.00  0.00    +0.049 A 
ATOM     17  C   UNL A   1      -2.836   0.018  12.286  0.00  0.00    +0.061 A 
ATOM     18  C   UNL A   1      -3.877   0.664  12.867  0.00  0.00    +0.011 A 
ATOM     19  C   UNL A   1      -5.165   0.553  12.372  0.00  0.00    -0.000 A 
ATOM     20 CL   UNL A   1      -1.226   0.104  12.879  0.00  0.00    -0.082 Cl
BRANCH  15  21
ATOM     21  O   UNL A   1      -4.443  -1.485   9.436  0.00  0.00    -0.447 OA
BRANCH  21  22
ATOM     22  C   UNL A   1      -3.855  -1.127   8.240  0.00  0.00    +0.225 C 
ATOM     23  C   UNL A   1      -4.820  -1.088   7.143  0.00  0.00    +0.275 C 
ATOM     24  O   UNL A   1      -5.870  -1.779   7.399  0.00  0.00    -0.280 OA
ENDBRANCH  21  22
ENDBRANCH  15  21
ENDBRANCH   1  14
TORSDOF 4
ENDMDL
ENDMDL
