REMARK  Name = No_2919-gen_results/8p0m/2024-11-26-14-13-15/
REMARK  7 active torsions:
REMARK  status: ('A' for Active; 'I' for Inactive)
REMARK    1  A    between atoms: C_2  and  N_6
REMARK    2  A    between atoms: C_9  and  C_11
REMARK    3  A    between atoms: C_11  and  C_12
REMARK    4  A    between atoms: C_11  and  C_29
REMARK    5  A    between atoms: C_21  and  C_23
REMARK    6  A    between atoms: C_26  and  C_34
REMARK    7  A    between atoms: C_29  and  P_30
REMARK                            x       y       z     vdW  Elec       q    Type
REMARK                         _______ _______ _______ _____ _____    ______ ____
ROOT
ATOM      1  C   UNL A   1     -31.855   0.231  27.702  0.00  0.00    +0.162 C 
ENDROOT
BRANCH   1   2
ATOM      2  C   UNL A   1     -32.659   0.838  28.494  0.00  0.00    +0.234 C 
ATOM      3  O   UNL A   1     -32.368   1.926  28.872  0.00  0.00    -0.274 OA
ATOM      4  N   UNL A   1     -33.529   0.080  29.219  0.00  0.00    -0.279 N 
ATOM      5  C   UNL A   1     -33.912  -1.250  28.992  0.00  0.00    +0.098 C 
ATOM      6  C   UNL A   1     -34.369   0.737  30.326  0.00  0.00    +0.093 C 
ATOM      7  C   UNL A   1     -35.229   0.192  30.715  0.00  0.00    +0.022 C 
ATOM      8  C   UNL A   1     -35.040  -1.825  29.597  0.00  0.00    +0.042 C 
ATOM      9  C   UNL A   1     -35.672  -1.141  30.575  0.00  0.00    +0.008 C 
BRANCH   8  10
ATOM     10  C   UNL A   1     -35.348  -3.225  29.291  0.00  0.00    -0.021 A 
ATOM     11  C   UNL A   1     -34.387  -3.999  28.792  0.00  0.00    -0.004 A 
ATOM     12  C   UNL A   1     -34.653  -5.319  28.465  0.00  0.00    -0.003 A 
ATOM     13  C   UNL A   1     -35.935  -5.785  28.616  0.00  0.00    -0.006 A 
ATOM     14  C   UNL A   1     -36.900  -4.975  29.115  0.00  0.00    -0.003 A 
ATOM     15  C   UNL A   1     -36.612  -3.691  29.472  0.00  0.00    -0.004 A 
BRANCH  13  16
ATOM     16  C   UNL A   1     -36.236  -7.185  28.250  0.00  0.00    +0.121 C 
ATOM     17 CL   UNL A   1     -36.611  -7.741  27.247  0.00  0.00    -0.108 Cl
ENDBRANCH  13  16
ENDBRANCH   8  10
ENDBRANCH   1   2
BRANCH   1  19
ATOM     18  N   UNL A   1     -30.081  -0.312  29.193  0.00  0.00    -0.185 NA
ATOM     19  C   UNL A   1     -30.390   0.221  28.053  0.00  0.00    +0.252 C 
ATOM     20  O   UNL A   1     -29.577   0.636  27.312  0.00  0.00    -0.273 OA
BRANCH  18  22
ATOM     21  N   UNL A   1     -28.054  -1.050  28.725  0.00  0.00    -0.218 NA
ATOM     22  C   UNL A   1     -28.654  -0.567  29.508  0.00  0.00    +0.187 C 
ATOM     23  C   UNL A   1     -26.695  -1.322  29.024  0.00  0.00    +0.063 A 
ATOM     24  C   UNL A   1     -26.453  -1.639  30.325  0.00  0.00    -0.007 A 
ATOM     25  C   UNL A   1     -25.016  -1.812  30.702  0.00  0.00    -0.003 A 
ATOM     26  C   UNL A   1     -28.345  -0.123  30.857  0.00  0.00    +0.049 C 
ATOM     27  C   UNL A   1     -27.365  -1.200  31.375  0.00  0.00    +0.031 C 
ATOM     28  C   UNL A   1     -24.154  -2.184  29.692  0.00  0.00    -0.000 A 
ATOM     29  C   UNL A   1     -25.651  -1.735  28.164  0.00  0.00    +0.016 A 
ATOM     30  C   UNL A   1     -24.416  -2.022  28.418  0.00  0.00    +0.001 A 
ENDBRANCH  18  22
ENDBRANCH   1  19
BRANCH   1  31
ATOM     31  C   UNL A   1     -32.239  -0.330  26.453  0.00  0.00    +0.077 C 
BRANCH  31  32
ATOM     32  P   UNL A   1     -31.723  -1.826  26.098  0.00  0.00    +0.118 P 
ATOM     33  O   UNL A   1     -30.775  -1.636  25.389  0.00  0.00    -0.357 OA
ATOM     34  O   UNL A   1     -32.961  -2.434  25.342  0.00  0.00    -0.460 OA
ATOM     35  O   UNL A   1     -31.536  -2.626  27.404  0.00  0.00    -0.357 OA
ENDBRANCH  31  32
ENDBRANCH   1  31
TORSDOF 7
