MODEL 291
MODEL 1
REMARK VINA RESULT:    -4.245      0.000      0.000
REMARK INTER + INTRA:          -4.245
REMARK INTER:                  -4.245
REMARK INTRA:                   0.000
REMARK UNBOUND:                 0.000
REMARK  Name = No_291-gen_results/8p0m/2024-11-26-14-13-15/
REMARK  0 active torsions:
REMARK  status: ('A' for Active; 'I' for Inactive)
REMARK                            x       y       z     vdW  Elec       q    Type
REMARK                         _______ _______ _______ _____ _____    ______ ____
ROOT
ATOM      1  C   UNL A   1     -25.287  -2.485  29.742  0.00  0.00    +0.011 A 
ATOM      2  C   UNL A   1     -24.461  -2.880  29.220  0.00  0.00    +0.058 A 
ATOM      3  C   UNL A   1     -26.445  -3.437  29.941  0.00  0.00    +0.001 A 
ATOM      4  C   UNL A   1     -26.302  -4.789  29.562  0.00  0.00    +0.000 A 
ATOM      5  C   UNL A   1     -24.053  -4.226  28.760  0.00  0.00    +0.011 A 
ATOM      6  C   UNL A   1     -25.091  -5.131  28.932  0.00  0.00    +0.001 A 
ATOM      7 CL   UNL A   1     -23.057  -1.736  28.986  0.00  0.00    -0.082 Cl
ENDROOT
TORSDOF 0
ENDMDL
ENDMDL
