REMARK  Name = No_292-gen_results/8p0m/2024-11-26-14-13-15/
REMARK  3 active torsions:
REMARK  status: ('A' for Active; 'I' for Inactive)
REMARK    1  A    between atoms: C_2  and  N_10
REMARK    2  A    between atoms: C_3  and  C_7
REMARK    3  A    between atoms: C_13  and  C_18
REMARK                            x       y       z     vdW  Elec       q    Type
REMARK                         _______ _______ _______ _____ _____    ______ ____
ROOT
ATOM      1  N   UNL A   1     -29.344  -1.913  30.302  0.00  0.00    -0.208 N 
ATOM      2  C   UNL A   1     -30.585  -1.855  30.396  0.00  0.00    +0.246 C 
ATOM      3  O   UNL A   1     -31.183  -0.897  30.139  0.00  0.00    -0.274 OA
ATOM      4  C   UNL A   1     -31.209  -3.147  30.833  0.00  0.00    +0.181 C 
ATOM      5  C   UNL A   1     -28.563  -3.184  30.593  0.00  0.00    +0.235 C 
ATOM      6  O   UNL A   1     -27.286  -3.204  30.470  0.00  0.00    -0.274 OA
ATOM      7  C   UNL A   1     -29.264  -4.310  30.958  0.00  0.00    +0.087 C 
ATOM      8  C   UNL A   1     -30.402  -4.280  31.039  0.00  0.00    +0.030 C 
ENDROOT
BRANCH   1  10
ATOM      9  C   UNL A   1     -28.016  -0.814  28.878  0.00  0.00    +0.017 A 
ATOM     10  C   UNL A   1     -28.469  -0.785  29.829  0.00  0.00    +0.060 A 
ATOM     11  C   UNL A   1     -27.136   0.236  28.535  0.00  0.00    +0.045 A 
ATOM     12  C   UNL A   1     -26.875   1.282  29.398  0.00  0.00    +0.001 A 
ATOM     13  C   UNL A   1     -28.361   0.199  30.924  0.00  0.00    +0.015 A 
ATOM     14  C   UNL A   1     -27.528   1.223  30.636  0.00  0.00    +0.001 A 
BRANCH  11  15
ATOM     15  C   UNL A   1     -26.399   0.295  27.228  0.00  0.00    +0.341 C 
ATOM     16  F   UNL A   1     -26.931  -0.135  26.303  0.00  0.00    -0.193 F 
ATOM     17  F   UNL A   1     -25.133   0.663  27.212  0.00  0.00    -0.193 F 
ENDBRANCH  11  15
ENDBRANCH   1  10
BRANCH   4  18
ATOM     18  C   UNL A   1     -32.698  -3.107  30.912  0.00  0.00    +0.373 C 
ATOM     19  O   UNL A   1     -33.340  -3.873  30.874  0.00  0.00    -0.245 OA
ATOM     20  O   UNL A   1     -33.102  -1.931  31.495  0.00  0.00    -0.245 OA
ENDBRANCH   4  18
TORSDOF 3
