MODEL 2920
MODEL 1
REMARK VINA RESULT:    -6.463      0.000      0.000
REMARK INTER + INTRA:          -9.471
REMARK INTER:                  -8.352
REMARK INTRA:                  -1.119
REMARK UNBOUND:                -1.119
REMARK  Name = No_2920-gen_results/8p0m/2024-11-26-14-13-15/
REMARK  5 active torsions:
REMARK  status: ('A' for Active; 'I' for Inactive)
REMARK    1  A    between atoms: C_4  and  C_18
REMARK    2  A    between atoms: C_5  and  C_15
REMARK    3  A    between atoms: C_18  and  C_19
REMARK    4  A    between atoms: C_19  and  C_20
REMARK    5  A    between atoms: C_21  and  C_22
REMARK                            x       y       z     vdW  Elec       q    Type
REMARK                         _______ _______ _______ _____ _____    ______ ____
ROOT
ATOM      1  N   UNL A   1     -22.545  -1.736  28.696  0.00  0.00    -0.244 NA
ATOM      2  C   UNL A   1     -23.524  -1.488  29.029  0.00  0.00    +0.081 A 
ATOM      3  C   UNL A   1     -24.087  -0.206  28.938  0.00  0.00    +0.014 A 
ATOM      4  C   UNL A   1     -25.470   0.182  29.333  0.00  0.00    -0.014 A 
ATOM      5  C   UNL A   1     -26.292  -0.910  29.708  0.00  0.00    +0.076 A 
ATOM      6  C   UNL A   1     -25.759  -2.214  29.680  0.00  0.00    +0.007 A 
ATOM      7  C   UNL A   1     -24.471  -2.510  29.305  0.00  0.00    +0.018 A 
ATOM      8  C   UNL A   1     -21.590  -0.821  29.057  0.00  0.00    +0.099 A 
ATOM      9  C   UNL A   1     -21.843   0.583  28.837  0.00  0.00    +0.021 A 
ATOM     10  C   UNL A   1     -23.229   0.918  29.026  0.00  0.00    +0.003 A 
ATOM     11  C   UNL A   1     -24.136  -3.930  29.273  0.00  0.00    +0.002 A 
ATOM     12  C   UNL A   1     -25.090  -4.925  29.254  0.00  0.00    +0.000 A 
ATOM     13  C   UNL A   1     -26.412  -4.583  29.634  0.00  0.00    +0.000 A 
ATOM     14  C   UNL A   1     -26.813  -3.265  29.807  0.00  0.00    +0.000 A 
ENDROOT
BRANCH   5  15
ATOM     15  C   UNL A   1     -27.724  -0.663  29.955  0.00  0.00    +0.387 C 
ATOM     16  O   UNL A   1     -28.177  -0.502  31.007  0.00  0.00    -0.241 OA
ATOM     17  O   UNL A   1     -28.506  -0.625  28.884  0.00  0.00    -0.241 OA
ENDBRANCH   5  15
BRANCH   4  18
ATOM     18  C   UNL A   1     -25.933   1.549  29.376  0.00  0.00    +0.031 C 
BRANCH  18  19
ATOM     19  C   UNL A   1     -26.271   2.241  28.271  0.00  0.00    +0.031 C 
BRANCH  19  20
ATOM     20  C   UNL A   1     -25.648   3.494  27.977  0.00  0.00    -0.026 C 
ATOM     21  C   UNL A   1     -24.727   3.645  26.967  0.00  0.00    -0.005 C 
BRANCH  21  22
ATOM     22  C   UNL A   1     -24.489   2.561  26.039  0.00  0.00    -0.000 C 
ATOM     23  C   UNL A   1     -23.167   2.366  25.585  0.00  0.00    -0.000 C 
ENDBRANCH  21  22
ENDBRANCH  19  20
ENDBRANCH  18  19
ENDBRANCH   4  18
TORSDOF 5
ENDMDL
ENDMDL
