REMARK  Name = No_2920-gen_results/8p0m/2024-11-26-14-13-15/
REMARK  5 active torsions:
REMARK  status: ('A' for Active; 'I' for Inactive)
REMARK    1  A    between atoms: C_4  and  C_18
REMARK    2  A    between atoms: C_5  and  C_15
REMARK    3  A    between atoms: C_18  and  C_19
REMARK    4  A    between atoms: C_19  and  C_20
REMARK    5  A    between atoms: C_21  and  C_22
REMARK                            x       y       z     vdW  Elec       q    Type
REMARK                         _______ _______ _______ _____ _____    ______ ____
ROOT
ATOM      1  N   UNL A   1     -28.054  -1.050  28.725  0.00  0.00    -0.244 NA
ATOM      2  C   UNL A   1     -27.746  -0.073  29.010  0.00  0.00    +0.081 A 
ATOM      3  C   UNL A   1     -27.556   0.337  30.339  0.00  0.00    +0.014 A 
ATOM      4  C   UNL A   1     -27.071   1.671  30.790  0.00  0.00    -0.014 A 
ATOM      5  C   UNL A   1     -26.654   2.522  29.736  0.00  0.00    +0.076 A 
ATOM      6  C   UNL A   1     -26.730   2.060  28.408  0.00  0.00    +0.007 A 
ATOM      7  C   UNL A   1     -27.189   0.815  28.052  0.00  0.00    +0.018 A 
ATOM      8  C   UNL A   1     -29.084  -1.548  29.480  0.00  0.00    +0.099 A 
ATOM      9  C   UNL A   1     -29.009  -1.458  30.919  0.00  0.00    +0.021 A 
ATOM     10  C   UNL A   1     -28.355  -0.251  31.350  0.00  0.00    +0.003 A 
ATOM     11  C   UNL A   1     -27.119   0.502  26.628  0.00  0.00    +0.002 A 
ATOM     12  C   UNL A   1     -26.337   1.211  25.742  0.00  0.00    +0.000 A 
ATOM     13  C   UNL A   1     -25.869   2.487  26.146  0.00  0.00    +0.000 A 
ATOM     14  C   UNL A   1     -25.988   2.938  27.454  0.00  0.00    +0.000 A 
ENDROOT
BRANCH   5  15
ATOM     15  C   UNL A   1     -26.000   3.798  30.077  0.00  0.00    +0.387 C 
ATOM     16  O   UNL A   1     -25.134   3.894  30.837  0.00  0.00    -0.241 OA
ATOM     17  O   UNL A   1     -26.456   4.877  29.453  0.00  0.00    -0.241 OA
ENDBRANCH   5  15
BRANCH   4  18
ATOM     18  C   UNL A   1     -27.060   2.089  32.172  0.00  0.00    +0.031 C 
BRANCH  18  19
ATOM     19  C   UNL A   1     -26.788   3.352  32.552  0.00  0.00    +0.031 C 
BRANCH  19  20
ATOM     20  C   UNL A   1     -27.345   3.888  33.755  0.00  0.00    -0.026 C 
ATOM     21  C   UNL A   1     -26.791   4.959  34.416  0.00  0.00    -0.005 C 
BRANCH  21  22
ATOM     22  C   UNL A   1     -25.710   5.703  33.806  0.00  0.00    -0.000 C 
ATOM     23  C   UNL A   1     -25.054   5.119  32.702  0.00  0.00    -0.000 C 
ENDBRANCH  21  22
ENDBRANCH  19  20
ENDBRANCH  18  19
ENDBRANCH   4  18
TORSDOF 5
