REMARK  Name = No_2921-gen_results/8p0m/2024-11-26-14-13-15/
REMARK  5 active torsions:
REMARK  status: ('A' for Active; 'I' for Inactive)
REMARK    1  A    between atoms: C_2  and  C_16
REMARK    2  A    between atoms: C_3  and  C_7
REMARK    3  A    between atoms: C_6  and  C_19
REMARK    4  A    between atoms: C_22  and  C_25
REMARK    5  A    between atoms: N_27  and  C_28
REMARK                            x       y       z     vdW  Elec       q    Type
REMARK                         _______ _______ _______ _____ _____    ______ ____
ROOT
ATOM      1  C   UNL A   1     -28.016  -0.814  28.878  0.00  0.00    +0.011 A 
ATOM      2  C   UNL A   1     -28.469  -0.785  29.829  0.00  0.00    +0.080 A 
ATOM      3  C   UNL A   1     -28.182   0.428  28.113  0.00  0.00    +0.054 A 
ATOM      4  C   UNL A   1     -28.984   1.415  28.515  0.00  0.00    +0.004 A 
ATOM      5  C   UNL A   1     -29.380   0.138  30.461  0.00  0.00    +0.007 A 
ATOM      6  C   UNL A   1     -29.541   1.274  29.724  0.00  0.00    +0.000 A 
ENDROOT
BRANCH   3   7
ATOM      7  C   UNL A   1     -27.459   0.493  26.770  0.00  0.00    +0.249 C 
ATOM      8  N   UNL A   1     -26.129   0.346  26.732  0.00  0.00    -0.276 N 
ATOM      9  C   UNL A   1     -25.404  -0.010  27.778  0.00  0.00    +0.097 C 
ATOM     10  C   UNL A   1     -24.027   0.482  27.858  0.00  0.00    +0.057 C 
ATOM     11  C   UNL A   1     -23.589   1.284  26.797  0.00  0.00    +0.164 C 
ATOM     12  C   UNL A   1     -24.413   1.610  25.739  0.00  0.00    +0.057 C 
ATOM     13  C   UNL A   1     -25.527   0.966  25.577  0.00  0.00    +0.097 C 
ATOM     14  O   UNL A   1     -28.192   0.420  25.778  0.00  0.00    -0.270 OA
ATOM     15  F   UNL A   1     -22.357   1.845  26.981  0.00  0.00    -0.237 F 
ENDBRANCH   3   7
BRANCH   6  16
ATOM     16  C   UNL A   1     -30.489   2.358  30.257  0.00  0.00    +0.000 A 
ATOM     17  C   UNL A   1     -31.229   2.959  29.655  0.00  0.00    +0.000 A 
ATOM     18  C   UNL A   1     -32.085   4.037  30.176  0.00  0.00    +0.005 A 
ATOM     19  C   UNL A   1     -32.026   4.265  31.548  0.00  0.00    +0.055 A 
ATOM     20  C   UNL A   1     -31.167   3.522  32.316  0.00  0.00    +0.005 A 
ATOM     21  C   UNL A   1     -30.357   2.572  31.763  0.00  0.00    +0.000 A 
BRANCH  19  22
ATOM     22  C   UNL A   1     -32.885   5.321  32.136  0.00  0.00    +0.269 C 
ATOM     23  O   UNL A   1     -32.501   5.890  33.077  0.00  0.00    -0.268 OA
ATOM     24  N   UNL A   1     -33.924   5.738  31.337  0.00  0.00    -0.175 NA
BRANCH  24  25
ATOM     25  C   UNL A   1     -34.798   6.756  31.856  0.00  0.00    +0.073 A 
ATOM     26  C   UNL A   1     -35.773   7.060  31.152  0.00  0.00    +0.018 A 
ATOM     27  C   UNL A   1     -36.727   8.060  31.592  0.00  0.00    +0.012 A 
ATOM     28  C   UNL A   1     -36.499   8.687  32.868  0.00  0.00    +0.054 A 
ATOM     29  C   UNL A   1     -35.378   8.268  33.581  0.00  0.00    -0.010 A 
ATOM     30  C   UNL A   1     -34.528   7.343  33.140  0.00  0.00    +0.013 A 
ATOM     31 CL   UNL A   1     -37.603   9.846  33.388  0.00  0.00    -0.083 Cl
ATOM     32  C   UNL A   1     -35.141   8.913  34.927  0.00  0.00    +0.032 C 
ENDBRANCH  24  25
ENDBRANCH  19  22
ENDBRANCH   6  16
BRANCH   2  33
ATOM     33  C   UNL A   1     -28.277  -2.104  30.779  0.00  0.00    +0.388 C 
ATOM     34  O   UNL A   1     -27.233  -2.292  31.204  0.00  0.00    -0.241 OA
ATOM     35  O   UNL A   1     -29.300  -2.865  30.919  0.00  0.00    -0.241 OA
ENDBRANCH   2  33
TORSDOF 5
