MODEL 2921
MODEL 1
REMARK VINA RESULT:    -8.055      0.000      0.000
REMARK INTER + INTRA:         -11.506
REMARK INTER:                 -10.410
REMARK INTRA:                  -1.096
REMARK UNBOUND:                -1.096
REMARK  Name = No_2921-gen_results/8p0m/2024-11-26-14-13-15/
REMARK  5 active torsions:
REMARK  status: ('A' for Active; 'I' for Inactive)
REMARK    1  A    between atoms: C_2  and  C_16
REMARK    2  A    between atoms: C_3  and  C_7
REMARK    3  A    between atoms: C_6  and  C_19
REMARK    4  A    between atoms: C_22  and  C_25
REMARK    5  A    between atoms: N_27  and  C_28
REMARK                            x       y       z     vdW  Elec       q    Type
REMARK                         _______ _______ _______ _____ _____    ______ ____
ROOT
ATOM      1  C   UNL A   1     -10.472   1.153  35.614  0.00  0.00    +0.011 A 
ATOM      2  C   UNL A   1     -11.248   1.479  34.980  0.00  0.00    +0.080 A 
ATOM      3  C   UNL A   1     -10.821   1.204  37.039  0.00  0.00    +0.054 A 
ATOM      4  C   UNL A   1     -11.939   1.781  37.483  0.00  0.00    +0.004 A 
ATOM      5  C   UNL A   1     -12.505   2.146  35.220  0.00  0.00    +0.007 A 
ATOM      6  C   UNL A   1     -12.800   2.206  36.550  0.00  0.00    +0.000 A 
ENDROOT
BRANCH   3   7
ATOM      7  C   UNL A   1      -9.782   0.644  38.007  0.00  0.00    +0.249 C 
ATOM      8  N   UNL A   1     -10.008  -0.531  38.606  0.00  0.00    -0.276 N 
ATOM      9  C   UNL A   1     -11.016  -1.327  38.295  0.00  0.00    +0.097 C 
ATOM     10  C   UNL A   1     -11.571  -2.176  39.352  0.00  0.00    +0.057 C 
ATOM     11  C   UNL A   1     -10.966  -2.080  40.611  0.00  0.00    +0.164 C 
ATOM     12  C   UNL A   1      -9.914  -1.220  40.852  0.00  0.00    +0.057 C 
ATOM     13  C   UNL A   1      -9.295  -0.674  39.852  0.00  0.00    +0.097 C 
ATOM     14  O   UNL A   1      -8.680   1.202  37.969  0.00  0.00    -0.270 OA
ATOM     15  F   UNL A   1     -11.606  -2.770  41.601  0.00  0.00    -0.237 F 
ENDBRANCH   3   7
BRANCH   6  16
ATOM     16  C   UNL A   1     -14.105   2.894  36.975  0.00  0.00    +0.000 A 
ATOM     17  C   UNL A   1     -14.429   3.129  38.029  0.00  0.00    +0.000 A 
ATOM     18  C   UNL A   1     -15.713   3.735  38.418  0.00  0.00    +0.005 A 
ATOM     19  C   UNL A   1     -16.553   4.122  37.378  0.00  0.00    +0.055 A 
ATOM     20  C   UNL A   1     -16.171   3.889  36.082  0.00  0.00    +0.005 A 
ATOM     21  C   UNL A   1     -14.989   3.272  35.788  0.00  0.00    +0.000 A 
BRANCH  19  22
ATOM     22  C   UNL A   1     -17.850   4.762  37.707  0.00  0.00    +0.269 C 
ATOM     23  O   UNL A   1     -18.390   5.381  36.880  0.00  0.00    -0.268 OA
ATOM     24  N   UNL A   1     -18.443   4.316  38.865  0.00  0.00    -0.175 NA
BRANCH  24  25
ATOM     25  C   UNL A   1     -19.700   4.905  39.241  0.00  0.00    +0.073 A 
ATOM     26  C   UNL A   1     -19.648   6.013  39.797  0.00  0.00    +0.018 A 
ATOM     27  C   UNL A   1     -20.859   6.703  40.198  0.00  0.00    +0.012 A 
ATOM     28  C   UNL A   1     -22.117   6.055  39.934  0.00  0.00    +0.054 A 
ATOM     29  C   UNL A   1     -22.063   4.816  39.300  0.00  0.00    -0.010 A 
ATOM     30  C   UNL A   1     -20.928   4.218  38.946  0.00  0.00    +0.013 A 
ATOM     31 CL   UNL A   1     -23.528   6.850  40.393  0.00  0.00    -0.083 Cl
ATOM     32  C   UNL A   1     -23.382   4.137  39.008  0.00  0.00    +0.032 C 
ENDBRANCH  24  25
ENDBRANCH  19  22
ENDBRANCH   6  16
BRANCH   2  33
ATOM     33  C   UNL A   1     -10.971   1.394  33.369  0.00  0.00    +0.388 C 
ATOM     34  O   UNL A   1      -9.946   1.738  32.998  0.00  0.00    -0.241 OA
ATOM     35  O   UNL A   1     -11.951   1.010  32.637  0.00  0.00    -0.241 OA
ENDBRANCH   2  33
TORSDOF 5
ENDMDL
ENDMDL
