MODEL 2922
MODEL 1
REMARK VINA RESULT:    -5.867      0.000      0.000
REMARK INTER + INTRA:          -6.951
REMARK INTER:                  -6.553
REMARK INTRA:                  -0.399
REMARK UNBOUND:                -0.399
REMARK  Name = No_2922-gen_results/8p0m/2024-11-26-14-13-15/
REMARK  2 active torsions:
REMARK  status: ('A' for Active; 'I' for Inactive)
REMARK    1  A    between atoms: C_1  and  C_2
REMARK    2  A    between atoms: C_6  and  C_7
REMARK                            x       y       z     vdW  Elec       q    Type
REMARK                         _______ _______ _______ _____ _____    ______ ____
ROOT
ATOM      1  C   UNL A   1     -24.504  -3.616  29.282  0.00  0.00    +0.043 A 
ATOM      2  C   UNL A   1     -25.785  -3.123  29.441  0.00  0.00    +0.001 A 
ATOM      3  C   UNL A   1     -26.059  -1.768  29.263  0.00  0.00    -0.000 A 
ATOM      4  C   UNL A   1     -25.002  -0.775  29.134  0.00  0.00    +0.004 A 
ATOM      5  C   UNL A   1     -23.699  -1.287  29.036  0.00  0.00    +0.071 A 
ATOM      6  C   UNL A   1     -23.485  -2.642  29.042  0.00  0.00    +0.005 A 
ENDROOT
BRANCH   5   7
ATOM      7  C   UNL A   1     -22.617  -0.369  28.898  0.00  0.00    +0.419 C 
ATOM      8  F   UNL A   1     -22.702   0.277  28.020  0.00  0.00    -0.166 F 
ATOM      9  F   UNL A   1     -22.496   0.408  30.070  0.00  0.00    -0.166 F 
ATOM     10  F   UNL A   1     -21.432  -1.109  28.926  0.00  0.00    -0.166 F 
ENDBRANCH   5   7
BRANCH   1  11
ATOM     11  C   UNL A   1     -24.261  -4.754  28.955  0.00  0.00    +0.341 C 
ATOM     12  F   UNL A   1     -23.797  -4.858  27.837  0.00  0.00    -0.193 F 
ATOM     13  F   UNL A   1     -25.566  -5.435  28.871  0.00  0.00    -0.193 F 
ENDBRANCH   1  11
TORSDOF 2
ENDMDL
ENDMDL
