REMARK  Name = No_2922-gen_results/8p0m/2024-11-26-14-13-15/
REMARK  2 active torsions:
REMARK  status: ('A' for Active; 'I' for Inactive)
REMARK    1  A    between atoms: C_1  and  C_2
REMARK    2  A    between atoms: C_6  and  C_7
REMARK                            x       y       z     vdW  Elec       q    Type
REMARK                         _______ _______ _______ _____ _____    ______ ____
ROOT
ATOM      1  C   UNL A   1     -27.064  -0.119  28.608  0.00  0.00    +0.043 A 
ATOM      2  C   UNL A   1     -27.001   0.691  27.491  0.00  0.00    +0.001 A 
ATOM      3  C   UNL A   1     -25.777   1.021  26.913  0.00  0.00    -0.000 A 
ATOM      4  C   UNL A   1     -24.509   0.736  27.569  0.00  0.00    +0.004 A 
ATOM      5  C   UNL A   1     -24.593  -0.036  28.739  0.00  0.00    +0.071 A 
ATOM      6  C   UNL A   1     -25.809  -0.489  29.183  0.00  0.00    +0.005 A 
ENDROOT
BRANCH   5   7
ATOM      7  C   UNL A   1     -23.387  -0.359  29.427  0.00  0.00    +0.419 C 
ATOM      8  F   UNL A   1     -23.484  -1.217  30.098  0.00  0.00    -0.166 F 
ATOM      9  F   UNL A   1     -22.348  -0.577  28.497  0.00  0.00    -0.166 F 
ATOM     10  F   UNL A   1     -22.949   0.800  30.073  0.00  0.00    -0.166 F 
ENDBRANCH   5   7
BRANCH   1  11
ATOM     11  C   UNL A   1     -28.016  -0.814  28.878  0.00  0.00    +0.341 C 
ATOM     12  F   UNL A   1     -29.056  -0.445  28.370  0.00  0.00    -0.193 F 
ATOM     13  F   UNL A   1     -28.239  -0.644  30.325  0.00  0.00    -0.193 F 
ENDBRANCH   1  11
TORSDOF 2
