MODEL 2923
MODEL 1
REMARK VINA RESULT:    -5.537      0.000      0.000
REMARK INTER + INTRA:          -6.724
REMARK INTER:                  -6.508
REMARK INTRA:                  -0.216
REMARK UNBOUND:                -0.216
REMARK  Name = No_2923-gen_results/8p0m/2024-11-26-14-13-15/
REMARK  3 active torsions:
REMARK  status: ('A' for Active; 'I' for Inactive)
REMARK    1  A    between atoms: C_1  and  C_2
REMARK    2  A    between atoms: C_1  and  C_8
REMARK    3  A    between atoms: C_8  and  N_9
REMARK                            x       y       z     vdW  Elec       q    Type
REMARK                         _______ _______ _______ _____ _____    ______ ____
ROOT
ATOM      1  C   UNL A   1     -23.398  -1.878  29.290  0.00  0.00    +0.050 C 
ENDROOT
BRANCH   1   2
ATOM      2  C   UNL A   1     -24.335  -2.627  29.140  0.00  0.00    -0.020 A 
ATOM      3  C   UNL A   1     -25.605  -2.366  29.616  0.00  0.00    -0.004 A 
ATOM      4  C   UNL A   1     -26.480  -3.405  29.929  0.00  0.00    -0.000 A 
ATOM      5  C   UNL A   1     -26.205  -4.786  29.561  0.00  0.00    -0.000 A 
ATOM      6  C   UNL A   1     -24.932  -5.026  29.019  0.00  0.00    -0.000 A 
ATOM      7  C   UNL A   1     -24.055  -3.992  28.901  0.00  0.00    -0.004 A 
ENDBRANCH   1   2
BRANCH   1   8
ATOM      8  C   UNL A   1     -23.716  -0.489  28.778  0.00  0.00    +0.121 C 
BRANCH   8   9
ATOM      9  N   UNL A   1     -23.061   0.053  28.031  0.00  0.00    -0.191 NA
ATOM     10  C   UNL A   1     -22.874   1.273  27.853  0.00  0.00    +0.326 C 
ATOM     11 CL   UNL A   1     -22.526   1.898  26.902  0.00  0.00    -0.021 Cl
ATOM     12  O   UNL A   1     -23.367   1.937  28.971  0.00  0.00    -0.255 OA
ENDBRANCH   8   9
ENDBRANCH   1   8
TORSDOF 3
ENDMDL
ENDMDL
