REMARK  Name = No_2923-gen_results/8p0m/2024-11-26-14-13-15/
REMARK  3 active torsions:
REMARK  status: ('A' for Active; 'I' for Inactive)
REMARK    1  A    between atoms: C_1  and  C_2
REMARK    2  A    between atoms: C_1  and  C_8
REMARK    3  A    between atoms: C_8  and  N_9
REMARK                            x       y       z     vdW  Elec       q    Type
REMARK                         _______ _______ _______ _____ _____    ______ ____
ROOT
ATOM      1  C   UNL A   1     -28.016  -0.814  28.878  0.00  0.00    +0.050 C 
ENDROOT
BRANCH   1   2
ATOM      2  C   UNL A   1     -27.064  -0.119  28.608  0.00  0.00    -0.020 A 
ATOM      3  C   UNL A   1     -27.001   0.691  27.491  0.00  0.00    -0.004 A 
ATOM      4  C   UNL A   1     -25.777   1.021  26.913  0.00  0.00    -0.000 A 
ATOM      5  C   UNL A   1     -24.509   0.736  27.569  0.00  0.00    -0.000 A 
ATOM      6  C   UNL A   1     -24.593  -0.036  28.739  0.00  0.00    -0.000 A 
ATOM      7  C   UNL A   1     -25.811  -0.477  29.158  0.00  0.00    -0.004 A 
ENDBRANCH   1   2
BRANCH   1   8
ATOM      8  C   UNL A   1     -28.641  -0.402  30.194  0.00  0.00    +0.121 C 
BRANCH   8   9
ATOM      9  N   UNL A   1     -28.503   0.629  30.641  0.00  0.00    -0.191 NA
ATOM     10  C   UNL A   1     -28.885   1.745  30.237  0.00  0.00    +0.326 C 
ATOM     11 CL   UNL A   1     -28.478   2.847  30.427  0.00  0.00    -0.021 Cl
ATOM     12  O   UNL A   1     -29.844   1.525  29.254  0.00  0.00    -0.255 OA
ENDBRANCH   8   9
ENDBRANCH   1   8
TORSDOF 3
