MODEL 2924
MODEL 1
REMARK VINA RESULT:    -6.523      0.000      0.000
REMARK INTER + INTRA:          -7.704
REMARK INTER:                  -7.285
REMARK INTRA:                  -0.418
REMARK UNBOUND:                -0.418
REMARK  Name = No_2924-gen_results/8p0m/2024-11-26-14-13-15/
REMARK  2 active torsions:
REMARK  status: ('A' for Active; 'I' for Inactive)
REMARK    1  A    between atoms: C_3  and  C_7
REMARK    2  A    between atoms: C_6  and  C_13
REMARK                            x       y       z     vdW  Elec       q    Type
REMARK                         _______ _______ _______ _____ _____    ______ ____
ROOT
ATOM      1  C   UNL A   1     -29.384 -10.255  32.431  0.00  0.00    +0.007 A 
ATOM      2  C   UNL A   1     -29.745 -10.185  31.279  0.00  0.00    +0.000 A 
ATOM      3  C   UNL A   1     -29.277 -11.029  30.272  0.00  0.00    +0.000 A 
ATOM      4  C   UNL A   1     -28.260 -12.012  30.590  0.00  0.00    +0.000 A 
ATOM      5  C   UNL A   1     -27.859 -12.045  31.925  0.00  0.00    +0.007 A 
ATOM      6  C   UNL A   1     -28.347 -11.200  32.813  0.00  0.00    +0.080 A 
ENDROOT
BRANCH   3   7
ATOM      7  C   UNL A   1     -29.675 -11.012  28.828  0.00  0.00    +0.000 A 
ATOM      8  C   UNL A   1     -30.702 -10.328  28.409  0.00  0.00    +0.000 A 
ATOM      9  C   UNL A   1     -31.125 -10.388  27.047  0.00  0.00    +0.000 A 
ATOM     10  C   UNL A   1     -30.595 -11.285  26.151  0.00  0.00    +0.000 A 
ATOM     11  C   UNL A   1     -29.057 -11.955  27.883  0.00  0.00    +0.000 A 
ATOM     12  C   UNL A   1     -29.529 -12.039  26.552  0.00  0.00    +0.000 A 
ENDBRANCH   3   7
BRANCH   6  13
ATOM     13  C   UNL A   1     -27.812 -11.273  34.203  0.00  0.00    +0.388 C 
ATOM     14  O   UNL A   1     -27.882 -10.309  34.986  0.00  0.00    -0.241 OA
ATOM     15  O   UNL A   1     -27.326 -12.361  34.648  0.00  0.00    -0.241 OA
ENDBRANCH   6  13
TORSDOF 2
ENDMDL
ENDMDL
