REMARK  Name = No_2925-gen_results/8p0m/2024-11-26-14-13-15/
REMARK  1 active torsions:
REMARK  status: ('A' for Active; 'I' for Inactive)
REMARK    1  A    between atoms: C_7  and  C_8
REMARK                            x       y       z     vdW  Elec       q    Type
REMARK                         _______ _______ _______ _____ _____    ______ ____
ROOT
ATOM      1  F   UNL A   1     -28.073  -1.254  28.532  0.00  0.00    -0.204 F 
ATOM      2  C   UNL A   1     -27.359  -0.379  28.722  0.00  0.00    +0.138 A 
ATOM      3  C   UNL A   1     -26.332  -0.644  29.452  0.00  0.00    +0.029 A 
ATOM      4  C   UNL A   1     -25.256   0.320  29.782  0.00  0.00    +0.002 A 
ATOM      5  C   UNL A   1     -25.424   1.627  29.203  0.00  0.00    -0.000 A 
ATOM      6  C   UNL A   1     -26.526   1.825  28.403  0.00  0.00    -0.000 A 
ATOM      7  C   UNL A   1     -27.451   0.860  28.136  0.00  0.00    +0.028 A 
ENDROOT
BRANCH   7   8
ATOM      8  C   UNL A   1     -28.540   1.202  27.245  0.00  0.00    +0.154 C 
ATOM      9  N   UNL A   1     -28.488   1.942  26.271  0.00  0.00    -0.207 NA
ATOM     10  C   UNL A   1     -29.313   0.027  26.811  0.00  0.00    +0.171 C 
ATOM     11  C   UNL A   1     -30.252   0.211  25.769  0.00  0.00    +0.068 C 
ATOM     12  C   UNL A   1     -29.355   2.292  25.300  0.00  0.00    +0.090 C 
ATOM     13  C   UNL A   1     -30.277   1.347  25.025  0.00  0.00    +0.027 C 
ATOM     14  O   UNL A   1     -28.759  -0.997  26.920  0.00  0.00    -0.294 OA
ENDBRANCH   7   8
TORSDOF 1
