MODEL 2925
MODEL 1
REMARK VINA RESULT:    -6.071      0.000      0.000
REMARK INTER + INTRA:          -6.486
REMARK INTER:                  -6.426
REMARK INTRA:                  -0.060
REMARK UNBOUND:                -0.060
REMARK  Name = No_2925-gen_results/8p0m/2024-11-26-14-13-15/
REMARK  1 active torsions:
REMARK  status: ('A' for Active; 'I' for Inactive)
REMARK    1  A    between atoms: C_7  and  C_8
REMARK                            x       y       z     vdW  Elec       q    Type
REMARK                         _______ _______ _______ _____ _____    ______ ____
ROOT
ATOM      1  F   UNL A   1     -25.420  -0.418  27.185  0.00  0.00    -0.204 F 
ATOM      2  C   UNL A   1     -24.468  -0.331  27.816  0.00  0.00    +0.138 A 
ATOM      3  C   UNL A   1     -23.978   0.854  27.927  0.00  0.00    +0.029 A 
ATOM      4  C   UNL A   1     -22.786   1.205  28.735  0.00  0.00    +0.002 A 
ATOM      5  C   UNL A   1     -22.187   0.098  29.432  0.00  0.00    -0.000 A 
ATOM      6  C   UNL A   1     -22.789  -1.132  29.296  0.00  0.00    -0.000 A 
ATOM      7  C   UNL A   1     -23.906  -1.350  28.547  0.00  0.00    +0.028 A 
ENDROOT
BRANCH   7   8
ATOM      8  C   UNL A   1     -24.451  -2.691  28.527  0.00  0.00    +0.154 C 
ATOM      9  N   UNL A   1     -23.822  -3.741  28.568  0.00  0.00    -0.207 NA
ATOM     10  C   UNL A   1     -25.576  -2.865  29.461  0.00  0.00    +0.171 C 
ATOM     11  C   UNL A   1     -26.036  -4.182  29.691  0.00  0.00    +0.068 C 
ATOM     12  C   UNL A   1     -24.157  -5.043  28.651  0.00  0.00    +0.090 C 
ATOM     13  C   UNL A   1     -25.332  -5.266  29.276  0.00  0.00    +0.027 C 
ATOM     14  O   UNL A   1     -25.634  -2.070  30.317  0.00  0.00    -0.294 OA
ENDBRANCH   7   8
TORSDOF 1
ENDMDL
ENDMDL
