REMARK  Name = No_2926-gen_results/8p0m/2024-11-26-14-13-15/
REMARK  6 active torsions:
REMARK  status: ('A' for Active; 'I' for Inactive)
REMARK    1  A    between atoms: C_2  and  C_7
REMARK    2  A    between atoms: C_4  and  C_24
REMARK    3  A    between atoms: C_7  and  C_9
REMARK    4  A    between atoms: C_10  and  C_11
REMARK    5  A    between atoms: C_11  and  C_12
REMARK    6  A    between atoms: C_15  and  C_27
REMARK                            x       y       z     vdW  Elec       q    Type
REMARK                         _______ _______ _______ _____ _____    ______ ____
ROOT
ATOM      1  C   UNL A   1     -28.016  -0.814  28.878  0.00  0.00    +0.023 A 
ATOM      2  C   UNL A   1     -27.064  -0.119  28.608  0.00  0.00    +0.075 A 
ATOM      3  N   UNL A   1     -26.951   1.129  28.957  0.00  0.00    -0.234 NA
ATOM      4  C   UNL A   1     -29.109  -0.210  29.632  0.00  0.00    +0.084 A 
ATOM      5  C   UNL A   1     -29.037   0.834  29.891  0.00  0.00    +0.041 A 
ATOM      6  C   UNL A   1     -27.976   1.695  29.619  0.00  0.00    +0.132 A 
ATOM      7  N   UNL A   1     -27.849   3.056  29.939  0.00  0.00    -0.293 N 
ATOM      8  C   UNL A   1     -26.881   3.874  29.545  0.00  0.00    +0.092 C 
ATOM      9  C   UNL A   1     -26.837   5.128  30.129  0.00  0.00    +0.021 C 
ATOM     10  C   UNL A   1     -28.805   3.734  30.768  0.00  0.00    +0.092 C 
ATOM     11  C   UNL A   1     -28.746   4.974  31.293  0.00  0.00    +0.021 C 
ATOM     12  C   UNL A   1     -27.671   5.756  30.900  0.00  0.00    +0.004 C 
ENDROOT
BRANCH   4  13
ATOM     13  C   UNL A   1     -30.259  -1.199  29.927  0.00  0.00    +0.388 C 
ATOM     14  O   UNL A   1     -30.180  -2.033  30.687  0.00  0.00    -0.241 OA
ATOM     15  O   UNL A   1     -31.353  -0.893  29.294  0.00  0.00    -0.241 OA
ENDBRANCH   4  13
BRANCH   2  16
ATOM     16  C   UNL A   1     -25.835  -0.802  28.039  0.00  0.00    +0.119 C 
ATOM     17 BR   UNL A   1     -24.614   0.076  27.045  0.00  0.00    -0.070 Br
BRANCH  16  18
ATOM     18  C   UNL A   1     -24.925  -1.543  29.075  0.00  0.00    -0.013 C 
ATOM     19  C   UNL A   1     -24.006  -0.905  29.657  0.00  0.00    -0.025 C 
BRANCH  19  20
ATOM     20  C   UNL A   1     -23.852  -0.175  30.418  0.00  0.00    +0.052 C 
BRANCH  20  21
ATOM     21  C   UNL A   1     -24.889   0.369  31.283  0.00  0.00    -0.018 A 
ATOM     22  C   UNL A   1     -24.699   1.526  32.135  0.00  0.00    -0.004 A 
ATOM     23  C   UNL A   1     -25.741   1.968  32.981  0.00  0.00    +0.001 A 
ATOM     24  C   UNL A   1     -26.823   1.086  33.151  0.00  0.00    +0.019 A 
ATOM     25  C   UNL A   1     -26.933  -0.083  32.439  0.00  0.00    +0.001 A 
ATOM     26  C   UNL A   1     -25.941  -0.489  31.603  0.00  0.00    -0.004 A 
BRANCH  24  27
ATOM     27  C   UNL A   1     -27.974   1.571  34.038  0.00  0.00    +0.093 C 
ATOM     28  N   UNL A   1     -29.110   1.160  33.903  0.00  0.00    -0.267 NA
ATOM     29  C   UNL A   1     -30.131   1.662  34.633  0.00  0.00    +0.152 C 
ENDBRANCH  24  27
ENDBRANCH  20  21
ENDBRANCH  19  20
ENDBRANCH  16  18
ENDBRANCH   2  16
TORSDOF 6
