REMARK  Name = No_2927-gen_results/8p0m/2024-11-26-14-13-15/
REMARK  2 active torsions:
REMARK  status: ('A' for Active; 'I' for Inactive)
REMARK    1  A    between atoms: C_3  and  C_22
REMARK    2  A    between atoms: C_12  and  N_13
REMARK                            x       y       z     vdW  Elec       q    Type
REMARK                         _______ _______ _______ _____ _____    ______ ____
ROOT
ATOM      1  C   UNL A   1     -28.016  -0.814  28.878  0.00  0.00    +0.011 A 
ATOM      2  C   UNL A   1     -27.064  -0.119  28.608  0.00  0.00    -0.012 A 
ATOM      3  C   UNL A   1     -26.972   0.714  27.506  0.00  0.00    +0.105 C 
ATOM      4  C   UNL A   1     -25.821   1.491  27.116  0.00  0.00    +0.040 C 
ATOM      5  C   UNL A   1     -24.656   1.424  27.918  0.00  0.00    -0.021 A 
ATOM      6  C   UNL A   1     -23.460   2.116  27.616  0.00  0.00    -0.004 A 
ATOM      7  C   UNL A   1     -22.345   1.994  28.441  0.00  0.00    -0.000 A 
ATOM      8  C   UNL A   1     -22.366   0.991  29.443  0.00  0.00    -0.000 A 
ATOM      9  C   UNL A   1     -23.479   0.305  29.792  0.00  0.00    -0.000 A 
ATOM     10  C   UNL A   1     -24.634   0.467  29.006  0.00  0.00    -0.004 A 
ATOM     11  C   UNL A   1     -25.770  -0.258  29.334  0.00  0.00    -0.004 A 
ATOM     12  C   UNL A   1     -28.041  -1.577  30.179  0.00  0.00    +0.049 A 
ATOM     13  C   UNL A   1     -26.826  -1.819  30.978  0.00  0.00    +0.015 A 
ATOM     14  C   UNL A   1     -25.755  -1.097  30.487  0.00  0.00    +0.001 A 
ATOM     15  C   UNL A   1     -24.513  -1.183  31.319  0.00  0.00    +0.000 A 
ATOM     16  C   UNL A   1     -23.442  -0.533  30.937  0.00  0.00    -0.000 A 
ENDROOT
BRANCH  12  17
ATOM     17  N   UNL A   1     -29.134  -2.271  30.581  0.00  0.00    -0.282 N 
ATOM     18  C   UNL A   1     -29.225  -3.586  30.747  0.00  0.00    +0.093 C 
ATOM     19  C   UNL A   1     -30.465  -4.252  31.058  0.00  0.00    +0.022 C 
ATOM     20  C   UNL A   1     -30.340  -1.574  30.863  0.00  0.00    +0.237 C 
ATOM     21  F   UNL A   1     -30.167  -0.316  30.741  0.00  0.00    -0.215 F 
ATOM     22  C   UNL A   1     -31.445  -2.188  31.244  0.00  0.00    +0.057 C 
ATOM     23  C   UNL A   1     -31.498  -3.527  31.468  0.00  0.00    +0.006 C 
ENDBRANCH  12  17
BRANCH   3  24
ATOM     24  C   UNL A   1     -28.178   0.933  26.650  0.00  0.00    +0.245 C 
ATOM     25  O   UNL A   1     -28.291   0.711  25.567  0.00  0.00    -0.273 OA
ATOM     26  N   UNL A   1     -29.179   1.677  27.277  0.00  0.00    -0.203 NA
ATOM     27  C   UNL A   1     -30.452   1.875  26.647  0.00  0.00    +0.139 C 
ENDBRANCH   3  24
TORSDOF 2
