MODEL 2927
MODEL 1
REMARK VINA RESULT:    -7.934      0.000      0.000
REMARK INTER + INTRA:          -9.431
REMARK INTER:                  -8.862
REMARK INTRA:                  -0.570
REMARK UNBOUND:                -0.570
REMARK  Name = No_2927-gen_results/8p0m/2024-11-26-14-13-15/
REMARK  2 active torsions:
REMARK  status: ('A' for Active; 'I' for Inactive)
REMARK    1  A    between atoms: C_3  and  C_22
REMARK    2  A    between atoms: C_12  and  N_13
REMARK                            x       y       z     vdW  Elec       q    Type
REMARK                         _______ _______ _______ _____ _____    ______ ____
ROOT
ATOM      1  C   UNL A   1     -29.057 -10.839   9.708  0.00  0.00    +0.011 A 
ATOM      2  C   UNL A   1     -29.070  -9.697   9.312  0.00  0.00    -0.012 A 
ATOM      3  C   UNL A   1     -28.064  -9.097   8.574  0.00  0.00    +0.105 C 
ATOM      4  C   UNL A   1     -28.017  -7.716   8.159  0.00  0.00    +0.040 C 
ATOM      5  C   UNL A   1     -29.089  -6.864   8.518  0.00  0.00    -0.021 A 
ATOM      6  C   UNL A   1     -29.134  -5.488   8.194  0.00  0.00    -0.004 A 
ATOM      7  C   UNL A   1     -30.214  -4.703   8.592  0.00  0.00    -0.000 A 
ATOM      8  C   UNL A   1     -31.134  -5.258   9.516  0.00  0.00    -0.000 A 
ATOM      9  C   UNL A   1     -31.156  -6.568   9.856  0.00  0.00    -0.000 A 
ATOM     10  C   UNL A   1     -30.106  -7.389   9.407  0.00  0.00    -0.004 A 
ATOM     11  C   UNL A   1     -30.099  -8.725   9.779  0.00  0.00    -0.004 A 
ATOM     12  C   UNL A   1     -30.275 -11.410  10.390  0.00  0.00    +0.049 A 
ATOM     13  C   UNL A   1     -31.350 -10.559  10.932  0.00  0.00    +0.015 A 
ATOM     14  C   UNL A   1     -31.182  -9.241  10.551  0.00  0.00    +0.001 A 
ATOM     15  C   UNL A   1     -32.302  -8.331  10.949  0.00  0.00    +0.000 A 
ATOM     16  C   UNL A   1     -32.237  -7.061  10.633  0.00  0.00    -0.000 A 
ENDROOT
BRANCH  12  17
ATOM     17  N   UNL A   1     -30.353 -12.717  10.741  0.00  0.00    -0.282 N 
ATOM     18  C   UNL A   1     -30.867 -13.706  10.019  0.00  0.00    +0.093 C 
ATOM     19  C   UNL A   1     -31.021 -15.047  10.524  0.00  0.00    +0.022 C 
ATOM     20  C   UNL A   1     -29.853 -13.132  12.005  0.00  0.00    +0.237 C 
ATOM     21  F   UNL A   1     -29.322 -12.148  12.620  0.00  0.00    -0.215 F 
ATOM     22  C   UNL A   1     -29.910 -14.385  12.417  0.00  0.00    +0.057 C 
ATOM     23  C   UNL A   1     -30.384 -15.391  11.636  0.00  0.00    +0.006 C 
ENDBRANCH  12  17
BRANCH   3  24
ATOM     24  C   UNL A   1     -26.936  -9.931   8.059  0.00  0.00    +0.245 C 
ATOM     25  O   UNL A   1     -26.177 -10.486   8.651  0.00  0.00    -0.273 OA
ATOM     26  N   UNL A   1     -26.738  -9.812   6.682  0.00  0.00    -0.203 NA
ATOM     27  C   UNL A   1     -25.780 -10.635   6.003  0.00  0.00    +0.139 C 
ENDBRANCH   3  24
TORSDOF 2
ENDMDL
ENDMDL
