MODEL 2928
MODEL 1
REMARK VINA RESULT:    -5.521      0.000      0.000
REMARK INTER + INTRA:          -6.063
REMARK INTER:                  -5.844
REMARK INTRA:                  -0.219
REMARK UNBOUND:                -0.219
REMARK  Name = No_2928-gen_results/8p0m/2024-11-26-14-13-15/
REMARK  1 active torsions:
REMARK  status: ('A' for Active; 'I' for Inactive)
REMARK    1  A    between atoms: C_4  and  C_8
REMARK                            x       y       z     vdW  Elec       q    Type
REMARK                         _______ _______ _______ _____ _____    ______ ____
ROOT
ATOM      1  C   UNL A   1     -26.365  -4.347  29.696  0.00  0.00    +0.004 C 
ATOM      2  C   UNL A   1     -26.116  -3.165  29.726  0.00  0.00    +0.022 C 
ATOM      3  C   UNL A   1     -24.936  -2.665  29.186  0.00  0.00    -0.044 C 
ATOM      4  C   UNL A   1     -24.629  -1.281  29.130  0.00  0.00    -0.009 C 
ATOM      5  C   UNL A   1     -25.328  -5.306  29.305  0.00  0.00    +0.001 C 
ATOM      6  C   UNL A   1     -24.178  -4.905  28.673  0.00  0.00    +0.004 C 
ATOM      7  C   UNL A   1     -23.933  -3.531  28.607  0.00  0.00    +0.022 C 
ENDROOT
BRANCH   4   8
ATOM      8  C   UNL A   1     -23.456  -0.726  28.629  0.00  0.00    -0.005 C 
ATOM      9  C   UNL A   1     -22.362  -0.455  29.458  0.00  0.00    -0.026 C 
ATOM     10  C   UNL A   1     -22.589  -0.458  30.914  0.00  0.00    +0.031 C 
ENDBRANCH   4   8
TORSDOF 1
ENDMDL
ENDMDL
