MODEL 2929
MODEL 1
REMARK VINA RESULT:    -7.780      0.000      0.000
REMARK INTER + INTRA:         -10.566
REMARK INTER:                  -9.599
REMARK INTRA:                  -0.967
REMARK UNBOUND:                -0.967
REMARK  Name = No_2929-gen_results/8p0m/2024-11-26-14-13-15/
REMARK  4 active torsions:
REMARK  status: ('A' for Active; 'I' for Inactive)
REMARK    1  A    between atoms: C_14  and  C_17
REMARK    2  A    between atoms: C_16  and  C_21
REMARK    3  A    between atoms: C_20  and  C_25
REMARK    4  A    between atoms: C_29  and  C_31
REMARK                            x       y       z     vdW  Elec       q    Type
REMARK                         _______ _______ _______ _____ _____    ______ ____
ROOT
ATOM      1  C   UNL A   1     -13.699   2.906  38.375  0.00  0.00    +0.018 A 
ATOM      2  C   UNL A   1     -14.781   3.343  38.054  0.00  0.00    +0.008 A 
ATOM      3  C   UNL A   1     -15.185   3.494  36.742  0.00  0.00    +0.001 A 
ATOM      4  C   UNL A   1     -14.292   3.076  35.716  0.00  0.00    +0.006 A 
ATOM      5  C   UNL A   1     -13.171   2.439  36.126  0.00  0.00    +0.073 A 
ATOM      6  C   UNL A   1     -12.883   2.302  37.407  0.00  0.00    +0.076 A 
ATOM      7  C   UNL A   1     -12.270   1.985  35.046  0.00  0.00    +0.266 A 
ATOM      8  N   UNL A   1     -11.214   1.512  35.380  0.00  0.00    -0.246 N 
ATOM      9  O   UNL A   1     -12.568   2.158  33.821  0.00  0.00    -0.267 OA
ATOM     10  C   UNL A   1     -10.727   1.261  36.682  0.00  0.00    +0.340 A 
ATOM     11  N   UNL A   1     -11.620   1.713  37.710  0.00  0.00    -0.227 N 
ATOM     12  O   UNL A   1      -9.686   0.753  36.962  0.00  0.00    -0.246 OA
ATOM     13  C   UNL A   1     -16.487   4.196  36.378  0.00  0.00    +0.005 A 
ATOM     14  C   UNL A   1     -17.057   4.868  37.426  0.00  0.00    +0.057 A 
ATOM     15  C   UNL A   1     -16.709   4.800  38.723  0.00  0.00    +0.011 A 
ATOM     16  C   UNL A   1     -15.599   4.117  39.094  0.00  0.00    +0.080 A 
ATOM     17  C   UNL A   1     -11.236   1.227  39.037  0.00  0.00    +0.268 C 
ATOM     18  C   UNL A   1     -10.174   1.076  34.384  0.00  0.00    +0.138 C 
ATOM     19  O   UNL A   1     -11.049   2.267  39.793  0.00  0.00    -0.267 OA
ENDROOT
BRANCH  17  20
ATOM     20  C   UNL A   1     -11.323   0.042  39.387  0.00  0.00    +0.057 A 
ATOM     21  C   UNL A   1     -12.056  -0.872  39.029  0.00  0.00    +0.005 A 
ATOM     22  C   UNL A   1     -12.130  -2.249  39.457  0.00  0.00    +0.000 A 
ATOM     23  C   UNL A   1     -11.194  -2.581  40.412  0.00  0.00    +0.004 A 
ATOM     24  C   UNL A   1     -10.306  -1.670  40.876  0.00  0.00    +0.072 A 
ATOM     25  C   UNL A   1     -10.362  -0.358  40.442  0.00  0.00    +0.009 A 
BRANCH  24  26
ATOM     26  C   UNL A   1      -9.340  -2.050  41.924  0.00  0.00    +0.419 C 
ATOM     27  F   UNL A   1      -9.417  -1.548  42.964  0.00  0.00    -0.166 F 
ATOM     28  F   UNL A   1      -9.446  -3.470  41.971  0.00  0.00    -0.166 F 
ATOM     29  F   UNL A   1      -8.074  -1.875  41.385  0.00  0.00    -0.166 F 
ENDBRANCH  24  26
ENDBRANCH  17  20
BRANCH  14  30
ATOM     30  C   UNL A   1     -18.405   5.586  37.090  0.00  0.00    +0.284 C 
ATOM     31  N   UNL A   1     -18.422   6.845  36.751  0.00  0.00    -0.084 NA
ATOM     32  O   UNL A   1     -19.477   4.901  36.768  0.00  0.00    -0.267 OA
ENDBRANCH  14  30
BRANCH  16  33
ATOM     33  C   UNL A   1     -15.228   4.075  40.515  0.00  0.00    +0.388 C 
ATOM     34  O   UNL A   1     -15.707   3.250  41.177  0.00  0.00    -0.241 OA
ATOM     35  O   UNL A   1     -14.540   5.079  40.917  0.00  0.00    -0.241 OA
ENDBRANCH  16  33
TORSDOF 4
ENDMDL
ENDMDL
