REMARK  Name = No_2929-gen_results/8p0m/2024-11-26-14-13-15/
REMARK  4 active torsions:
REMARK  status: ('A' for Active; 'I' for Inactive)
REMARK    1  A    between atoms: C_14  and  C_17
REMARK    2  A    between atoms: C_16  and  C_21
REMARK    3  A    between atoms: C_20  and  C_25
REMARK    4  A    between atoms: C_29  and  C_31
REMARK                            x       y       z     vdW  Elec       q    Type
REMARK                         _______ _______ _______ _____ _____    ______ ____
ROOT
ATOM      1  C   UNL A   1     -28.016  -0.814  28.878  0.00  0.00    +0.018 A 
ATOM      2  C   UNL A   1     -27.064  -0.119  28.608  0.00  0.00    +0.008 A 
ATOM      3  C   UNL A   1     -27.001   0.691  27.491  0.00  0.00    +0.001 A 
ATOM      4  C   UNL A   1     -28.137   0.736  26.635  0.00  0.00    +0.006 A 
ATOM      5  C   UNL A   1     -29.236   0.076  27.069  0.00  0.00    +0.073 A 
ATOM      6  C   UNL A   1     -29.218  -0.643  28.175  0.00  0.00    +0.076 A 
ATOM      7  C   UNL A   1     -30.415   0.159  26.182  0.00  0.00    +0.266 A 
ATOM      8  N   UNL A   1     -31.373  -0.505  26.485  0.00  0.00    -0.246 N 
ATOM      9  O   UNL A   1     -30.387   0.841  25.108  0.00  0.00    -0.267 OA
ATOM     10  C   UNL A   1     -31.563  -1.318  27.625  0.00  0.00    +0.340 A 
ATOM     11  N   UNL A   1     -30.403  -1.381  28.467  0.00  0.00    -0.227 N 
ATOM     12  O   UNL A   1     -32.549  -1.927  27.902  0.00  0.00    -0.246 OA
ATOM     13  C   UNL A   1     -25.725   1.426  27.101  0.00  0.00    +0.005 A 
ATOM     14  C   UNL A   1     -24.620   1.005  27.792  0.00  0.00    +0.057 A 
ATOM     15  C   UNL A   1     -24.590   0.199  28.867  0.00  0.00    +0.011 A 
ATOM     16  C   UNL A   1     -25.723  -0.410  29.292  0.00  0.00    +0.080 A 
ATOM     17  C   UNL A   1     -30.685  -2.008  29.760  0.00  0.00    +0.268 C 
ATOM     18  C   UNL A   1     -32.612  -0.570  25.634  0.00  0.00    +0.138 C 
ATOM     19  O   UNL A   1     -29.894  -3.032  29.876  0.00  0.00    -0.267 OA
ENDROOT
BRANCH  17  20
ATOM     20  C   UNL A   1     -31.380  -1.484  30.641  0.00  0.00    +0.057 A 
ATOM     21  C   UNL A   1     -31.467  -0.331  31.046  0.00  0.00    +0.005 A 
ATOM     22  C   UNL A   1     -32.293   0.250  32.078  0.00  0.00    +0.000 A 
ATOM     23  C   UNL A   1     -33.140  -0.654  32.681  0.00  0.00    +0.004 A 
ATOM     24  C   UNL A   1     -33.163  -1.956  32.309  0.00  0.00    +0.072 A 
ATOM     25  C   UNL A   1     -32.283  -2.422  31.349  0.00  0.00    +0.009 A 
BRANCH  24  26
ATOM     26  C   UNL A   1     -34.057  -2.904  33.000  0.00  0.00    +0.419 C 
ATOM     27  F   UNL A   1     -33.886  -3.115  34.125  0.00  0.00    -0.166 F 
ATOM     28  F   UNL A   1     -35.358  -2.403  32.708  0.00  0.00    -0.166 F 
ATOM     29  F   UNL A   1     -34.033  -4.083  32.269  0.00  0.00    -0.166 F 
ENDBRANCH  24  26
ENDBRANCH  17  20
BRANCH  14  30
ATOM     30  C   UNL A   1     -23.295   1.751  27.427  0.00  0.00    +0.284 C 
ATOM     31  N   UNL A   1     -23.315   2.812  26.669  0.00  0.00    -0.084 NA
ATOM     32  O   UNL A   1     -22.206   1.589  28.142  0.00  0.00    -0.267 OA
ENDBRANCH  14  30
BRANCH  16  33
ATOM     33  C   UNL A   1     -25.660  -1.303  30.457  0.00  0.00    +0.388 C 
ATOM     34  O   UNL A   1     -24.914  -2.192  30.420  0.00  0.00    -0.241 OA
ATOM     35  O   UNL A   1     -26.576  -1.105  31.332  0.00  0.00    -0.241 OA
ENDBRANCH  16  33
TORSDOF 4
