MODEL 292
MODEL 1
REMARK VINA RESULT:    -7.428      0.000      0.000
REMARK INTER + INTRA:          -8.951
REMARK INTER:                  -8.730
REMARK INTRA:                  -0.220
REMARK UNBOUND:                -0.220
REMARK  Name = No_292-gen_results/8p0m/2024-11-26-14-13-15/
REMARK  3 active torsions:
REMARK  status: ('A' for Active; 'I' for Inactive)
REMARK    1  A    between atoms: C_2  and  N_10
REMARK    2  A    between atoms: C_3  and  C_7
REMARK    3  A    between atoms: C_13  and  C_18
REMARK                            x       y       z     vdW  Elec       q    Type
REMARK                         _______ _______ _______ _____ _____    ______ ____
ROOT
ATOM      1  N   UNL A   1     -23.599  -0.295  28.189  0.00  0.00    -0.208 N 
ATOM      2  C   UNL A   1     -23.984   0.381  27.216  0.00  0.00    +0.246 C 
ATOM      3  O   UNL A   1     -24.982   0.168  26.667  0.00  0.00    -0.274 OA
ATOM      4  C   UNL A   1     -23.051   1.502  26.864  0.00  0.00    +0.181 C 
ATOM      5  C   UNL A   1     -22.314   0.015  28.939  0.00  0.00    +0.235 C 
ATOM      6  O   UNL A   1     -21.962  -0.699  29.946  0.00  0.00    -0.274 OA
ATOM      7  C   UNL A   1     -21.564   1.092  28.529  0.00  0.00    +0.087 C 
ATOM      8  C   UNL A   1     -21.905   1.730  27.646  0.00  0.00    +0.030 C 
ENDROOT
BRANCH   1  10
ATOM      9  C   UNL A   1     -24.091  -2.437  28.598  0.00  0.00    +0.017 A 
ATOM     10  C   UNL A   1     -24.367  -1.439  28.792  0.00  0.00    +0.060 A 
ATOM     11  C   UNL A   1     -24.910  -3.461  29.124  0.00  0.00    +0.045 A 
ATOM     12  C   UNL A   1     -26.031  -3.184  29.881  0.00  0.00    +0.001 A 
ATOM     13  C   UNL A   1     -25.498  -0.877  29.556  0.00  0.00    +0.015 A 
ATOM     14  C   UNL A   1     -26.308  -1.824  30.078  0.00  0.00    +0.001 A 
BRANCH  11  15
ATOM     15  C   UNL A   1     -24.649  -4.921  28.890  0.00  0.00    +0.341 C 
ATOM     16  F   UNL A   1     -25.192  -5.670  29.575  0.00  0.00    -0.193 F 
ATOM     17  F   UNL A   1     -23.700  -5.286  28.051  0.00  0.00    -0.193 F 
ENDBRANCH  11  15
ENDBRANCH   1  10
BRANCH   4  18
ATOM     18  C   UNL A   1     -23.516   2.346  25.726  0.00  0.00    +0.373 C 
ATOM     19  O   UNL A   1     -24.156   3.115  25.748  0.00  0.00    -0.245 OA
ATOM     20  O   UNL A   1     -22.630   2.249  24.681  0.00  0.00    -0.245 OA
ENDBRANCH   4  18
TORSDOF 3
ENDMDL
ENDMDL
