REMARK  Name = No_293-gen_results/8p0m/2024-11-26-14-13-15/
REMARK  1 active torsions:
REMARK  status: ('A' for Active; 'I' for Inactive)
REMARK    1  A    between atoms: C_3  and  C_5
REMARK                            x       y       z     vdW  Elec       q    Type
REMARK                         _______ _______ _______ _____ _____    ______ ____
ROOT
ATOM      1  O   UNL A   1     -28.123  -1.335  28.487  0.00  0.00    -0.273 OA
ATOM      2  C   UNL A   1     -27.064  -0.824  28.869  0.00  0.00    +0.245 C 
ATOM      3  C   UNL A   1     -26.402  -0.062  28.622  0.00  0.00    +0.100 C 
ATOM      4  N   UNL A   1     -26.381  -1.799  29.962  0.00  0.00    -0.207 NA
ATOM      5  C   UNL A   1     -25.164  -1.659  30.381  0.00  0.00    +0.095 C 
ATOM      6  C   UNL A   1     -24.643  -2.369  31.221  0.00  0.00    +0.023 C 
ATOM      7  C   UNL A   1     -24.426  -0.565  29.711  0.00  0.00    +0.022 C 
ATOM      8  C   UNL A   1     -24.896   0.206  29.029  0.00  0.00    +0.015 C 
ENDROOT
BRANCH   3   9
ATOM      9  C   UNL A   1     -26.777   1.057  27.790  0.00  0.00    -0.018 A 
ATOM     10  C   UNL A   1     -27.740   1.479  27.654  0.00  0.00    -0.004 A 
ATOM     11  C   UNL A   1     -28.087   2.584  26.642  0.00  0.00    -0.000 A 
ATOM     12  C   UNL A   1     -27.017   3.109  25.925  0.00  0.00    -0.000 A 
ATOM     13  C   UNL A   1     -25.736   2.608  26.084  0.00  0.00    -0.005 A 
ATOM     14  C   UNL A   1     -25.505   1.640  27.005  0.00  0.00    -0.025 A 
ATOM     15  C   UNL A   1     -24.263   1.108  27.334  0.00  0.00    +0.031 C 
ENDBRANCH   3   9
TORSDOF 1
