MODEL 2930
MODEL 1
REMARK VINA RESULT:    -6.929      0.000      0.000
REMARK INTER + INTRA:          -6.929
REMARK INTER:                  -6.929
REMARK INTRA:                   0.000
REMARK UNBOUND:                 0.000
REMARK  Name = No_2930-gen_results/8p0m/2024-11-26-14-13-15/
REMARK  0 active torsions:
REMARK  status: ('A' for Active; 'I' for Inactive)
REMARK                            x       y       z     vdW  Elec       q    Type
REMARK                         _______ _______ _______ _____ _____    ______ ____
ROOT
ATOM      1  C   UNL A   1     -11.358   1.701  34.617  0.00  0.00    +0.000 A 
ATOM      2  C   UNL A   1     -10.516   1.212  35.020  0.00  0.00    +0.000 A 
ATOM      3  C   UNL A   1     -12.446   1.881  35.579  0.00  0.00    +0.000 A 
ATOM      4  C   UNL A   1     -13.688   2.629  35.282  0.00  0.00    +0.000 A 
ATOM      5  C   UNL A   1      -9.240   1.008  34.146  0.00  0.00    +0.000 A 
ATOM      6  C   UNL A   1     -14.536   3.089  36.274  0.00  0.00    +0.000 A 
ATOM      7  C   UNL A   1     -14.192   2.860  37.628  0.00  0.00    +0.000 A 
ATOM      8  C   UNL A   1     -13.045   2.246  37.930  0.00  0.00    +0.000 A 
ATOM      9  C   UNL A   1     -12.159   1.851  37.008  0.00  0.00    +0.000 A 
ATOM     10  C   UNL A   1      -8.115   0.287  34.508  0.00  0.00    +0.000 A 
ATOM     11  C   UNL A   1      -8.092  -0.203  35.842  0.00  0.00    +0.000 A 
ATOM     12  C   UNL A   1      -9.109  -0.042  36.687  0.00  0.00    +0.000 A 
ATOM     13  C   UNL A   1     -10.213   0.584  36.349  0.00  0.00    +0.000 A 
ATOM     14  C   UNL A   1     -11.216   1.019  37.264  0.00  0.00    +0.000 A 
ATOM     15  C   UNL A   1     -15.797   3.787  35.944  0.00  0.00    +0.000 A 
ATOM     16  C   UNL A   1     -16.622   3.986  36.519  0.00  0.00    +0.000 A 
ATOM     17  C   UNL A   1     -16.387   3.909  38.077  0.00  0.00    +0.000 A 
ATOM     18  C   UNL A   1     -15.252   3.320  38.525  0.00  0.00    +0.000 A 
ENDROOT
TORSDOF 0
ENDMDL
ENDMDL
