REMARK  Name = No_2931-gen_results/8p0m/2024-11-26-14-13-15/
REMARK  7 active torsions:
REMARK  status: ('A' for Active; 'I' for Inactive)
REMARK    1  A    between atoms: C_2  and  C_7
REMARK    2  A    between atoms: C_3  and  C_11
REMARK    3  A    between atoms: C_11  and  C_12
REMARK    4  A    between atoms: C_13  and  C_18
REMARK    5  A    between atoms: C_18  and  C_19
REMARK    6  A    between atoms: C_20  and  O_27
REMARK    7  A    between atoms: O_27  and  C_28
REMARK                            x       y       z     vdW  Elec       q    Type
REMARK                         _______ _______ _______ _____ _____    ______ ____
ROOT
ATOM      1  C   UNL A   1     -24.430  -0.098  27.788  0.00  0.00    -0.021 A 
ATOM      2  C   UNL A   1     -23.989   0.965  26.934  0.00  0.00    -0.022 A 
ATOM      3  C   UNL A   1     -22.705   1.562  27.186  0.00  0.00    -0.004 A 
ATOM      4  C   UNL A   1     -21.905   1.063  28.221  0.00  0.00    -0.000 A 
ATOM      5  C   UNL A   1     -23.450  -0.442  28.817  0.00  0.00    -0.004 A 
ATOM      6  C   UNL A   1     -22.225   0.096  28.956  0.00  0.00    -0.000 A 
ENDROOT
BRANCH   2   7
ATOM      7  C   UNL A   1     -24.836   1.544  25.971  0.00  0.00    +0.047 C 
ATOM      8  C   UNL A   1     -25.071   0.784  24.822  0.00  0.00    +0.009 C 
BRANCH   7   9
ATOM      9  C   UNL A   1     -25.552   2.722  26.239  0.00  0.00    +0.017 A 
ATOM     10  C   UNL A   1     -26.924   2.881  26.064  0.00  0.00    +0.142 A 
ATOM     11  C   UNL A   1     -27.516   4.090  26.428  0.00  0.00    +0.038 A 
ATOM     12  C   UNL A   1     -26.809   5.057  27.144  0.00  0.00    +0.015 A 
ATOM     13  C   UNL A   1     -25.425   4.913  27.376  0.00  0.00    +0.058 A 
ATOM     14  C   UNL A   1     -24.797   3.762  26.986  0.00  0.00    +0.011 A 
ATOM     15 CL   UNL A   1     -24.576   6.163  28.190  0.00  0.00    -0.082 Cl
BRANCH  10  16
ATOM     16  O   UNL A   1     -27.561   1.980  25.508  0.00  0.00    -0.451 OA
BRANCH  16  17
ATOM     17  C   UNL A   1     -28.683   1.433  26.113  0.00  0.00    +0.175 C 
ATOM     18  C   UNL A   1     -29.839   1.329  25.336  0.00  0.00    +0.015 C 
ATOM     19  C   UNL A   1     -30.940   0.880  25.964  0.00  0.00    +0.034 C 
ENDBRANCH  16  17
ENDBRANCH  10  16
ENDBRANCH   7   9
ENDBRANCH   2   7
BRANCH   1  20
ATOM     20  C   UNL A   1     -25.662  -0.780  27.631  0.00  0.00    +0.052 C 
BRANCH  20  23
ATOM     21  C   UNL A   1     -28.016  -0.814  28.878  0.00  0.00    -0.000 A 
ATOM     22  C   UNL A   1     -28.469  -0.785  29.829  0.00  0.00    +0.071 A 
ATOM     23  C   UNL A   1     -26.546  -0.876  28.850  0.00  0.00    -0.018 A 
ATOM     24  C   UNL A   1     -25.804  -1.032  30.057  0.00  0.00    -0.004 A 
ATOM     25  C   UNL A   1     -27.944  -0.987  31.207  0.00  0.00    +0.004 A 
ATOM     26  C   UNL A   1     -26.582  -1.039  31.223  0.00  0.00    -0.000 A 
BRANCH  22  27
ATOM     27  C   UNL A   1     -30.061  -0.737  29.902  0.00  0.00    +0.419 C 
ATOM     28  F   UNL A   1     -30.450  -0.433  28.913  0.00  0.00    -0.166 F 
ATOM     29  F   UNL A   1     -30.576  -1.950  30.315  0.00  0.00    -0.166 F 
ATOM     30  F   UNL A   1     -30.459   0.165  30.837  0.00  0.00    -0.166 F 
ENDBRANCH  22  27
ENDBRANCH  20  23
ENDBRANCH   1  20
TORSDOF 7
