MODEL 2932
MODEL 1
REMARK VINA RESULT:    -6.452      0.000      0.000
REMARK INTER + INTRA:          -7.142
REMARK INTER:                  -6.829
REMARK INTRA:                  -0.313
REMARK UNBOUND:                -0.313
REMARK  Name = No_2932-gen_results/8p0m/2024-11-26-14-13-15/
REMARK  1 active torsions:
REMARK  status: ('A' for Active; 'I' for Inactive)
REMARK    1  A    between atoms: C_3  and  C_7
REMARK                            x       y       z     vdW  Elec       q    Type
REMARK                         _______ _______ _______ _____ _____    ______ ____
ROOT
ATOM      1  C   UNL A   1     -26.540  -3.552  30.007  0.00  0.00    +0.000 A 
ATOM      2  C   UNL A   1     -25.869  -2.576  29.760  0.00  0.00    +0.000 A 
ATOM      3  C   UNL A   1     -24.658  -2.627  29.071  0.00  0.00    +0.000 A 
ATOM      4  C   UNL A   1     -24.127  -3.915  28.671  0.00  0.00    +0.000 A 
ATOM      5  C   UNL A   1     -24.922  -5.014  28.993  0.00  0.00    +0.000 A 
ATOM      6  C   UNL A   1     -26.052  -4.876  29.658  0.00  0.00    +0.000 A 
ENDROOT
BRANCH   3   7
ATOM      7  C   UNL A   1     -23.783  -1.470  28.725  0.00  0.00    +0.000 A 
ATOM      8  C   UNL A   1     -22.640  -1.270  29.309  0.00  0.00    +0.000 A 
ATOM      9  C   UNL A   1     -21.846  -0.108  29.021  0.00  0.00    +0.000 A 
ATOM     10  C   UNL A   1     -22.273   0.905  28.235  0.00  0.00    +0.000 A 
ATOM     11  C   UNL A   1     -24.299  -0.396  27.861  0.00  0.00    +0.000 A 
ATOM     12  C   UNL A   1     -23.509   0.770  27.637  0.00  0.00    +0.000 A 
ENDBRANCH   3   7
TORSDOF 1
ENDMDL
ENDMDL
