REMARK  Name = No_2933-gen_results/8p0m/2024-11-26-14-13-15/
REMARK  2 active torsions:
REMARK  status: ('A' for Active; 'I' for Inactive)
REMARK    1  A    between atoms: C_4  and  C_7
REMARK    2  A    between atoms: C_7  and  C_8
REMARK                            x       y       z     vdW  Elec       q    Type
REMARK                         _______ _______ _______ _____ _____    ______ ____
ROOT
ATOM      1  C   UNL A   1     -28.016  -0.814  28.878  0.00  0.00    -0.000 A 
ATOM      2  C   UNL A   1     -28.469  -0.785  29.829  0.00  0.00    -0.000 A 
ATOM      3  C   UNL A   1     -26.546  -0.876  28.850  0.00  0.00    -0.004 A 
ATOM      4  C   UNL A   1     -25.804  -1.032  30.057  0.00  0.00    -0.017 A 
ATOM      5  C   UNL A   1     -27.944  -0.987  31.207  0.00  0.00    -0.000 A 
ATOM      6  C   UNL A   1     -26.582  -1.039  31.223  0.00  0.00    -0.004 A 
ENDROOT
BRANCH   4   7
ATOM      7  C   UNL A   1     -24.381  -1.108  30.085  0.00  0.00    +0.062 C 
BRANCH   7   8
ATOM      8  C   UNL A   1     -23.706   0.096  29.844  0.00  0.00    +0.037 C 
ATOM      9  C   UNL A   1     -23.909   1.222  30.476  0.00  0.00    -0.006 C 
ATOM     10  N   UNL A   1     -23.298   2.334  29.948  0.00  0.00    -0.202 NA
ATOM     11  C   UNL A   1     -22.669   0.338  28.825  0.00  0.00    +0.027 C 
ATOM     12  C   UNL A   1     -22.431   1.686  28.850  0.00  0.00    +0.109 C 
ENDBRANCH   7   8
ENDBRANCH   4   7
TORSDOF 2
