MODEL 2933
MODEL 1
REMARK VINA RESULT:    -5.477      0.000      0.000
REMARK INTER + INTRA:          -6.398
REMARK INTER:                  -6.118
REMARK INTRA:                  -0.280
REMARK UNBOUND:                -0.280
REMARK  Name = No_2933-gen_results/8p0m/2024-11-26-14-13-15/
REMARK  2 active torsions:
REMARK  status: ('A' for Active; 'I' for Inactive)
REMARK    1  A    between atoms: C_4  and  C_7
REMARK    2  A    between atoms: C_7  and  C_8
REMARK                            x       y       z     vdW  Elec       q    Type
REMARK                         _______ _______ _______ _____ _____    ______ ____
ROOT
ATOM      1  C   UNL A   1     -26.406  -3.377  30.017  0.00  0.00    -0.000 A 
ATOM      2  C   UNL A   1     -26.178  -4.339  29.650  0.00  0.00    -0.000 A 
ATOM      3  C   UNL A   1     -25.329  -2.377  29.955  0.00  0.00    -0.004 A 
ATOM      4  C   UNL A   1     -24.098  -2.675  29.300  0.00  0.00    -0.017 A 
ATOM      5  C   UNL A   1     -25.023  -4.883  28.884  0.00  0.00    -0.000 A 
ATOM      6  C   UNL A   1     -23.999  -3.986  28.815  0.00  0.00    -0.004 A 
ENDROOT
BRANCH   4   7
ATOM      7  C   UNL A   1     -23.028  -1.739  29.203  0.00  0.00    +0.062 C 
BRANCH   7   8
ATOM      8  C   UNL A   1     -23.391  -0.441  28.822  0.00  0.00    +0.037 C 
ATOM      9  C   UNL A   1     -23.109   0.653  29.480  0.00  0.00    -0.006 C 
ATOM     10  N   UNL A   1     -23.736   1.798  29.052  0.00  0.00    -0.202 NA
ATOM     11  C   UNL A   1     -24.179  -0.057  27.637  0.00  0.00    +0.027 C 
ATOM     12  C   UNL A   1     -24.424   1.283  27.772  0.00  0.00    +0.109 C 
ENDBRANCH   7   8
ENDBRANCH   4   7
TORSDOF 2
ENDMDL
ENDMDL
