MODEL 2934
MODEL 1
REMARK VINA RESULT:    -7.476      0.000      0.000
REMARK INTER + INTRA:          -8.013
REMARK INTER:                  -7.913
REMARK INTRA:                  -0.101
REMARK UNBOUND:                -0.101
REMARK  Name = No_2934-gen_results/8p0m/2024-11-26-14-13-15/
REMARK  1 active torsions:
REMARK  status: ('A' for Active; 'I' for Inactive)
REMARK    1  A    between atoms: C_10  and  C_11
REMARK                            x       y       z     vdW  Elec       q    Type
REMARK                         _______ _______ _______ _____ _____    ______ ____
ROOT
ATOM      1  C   UNL A   1     -24.318  -4.546  28.736  0.00  0.00    +0.057 A 
ATOM      2 CL   UNL A   1     -23.813  -5.313  28.108  0.00  0.00    -0.082 Cl
ATOM      3  C   UNL A   1     -25.569  -4.897  29.479  0.00  0.00    +0.011 A 
ATOM      4  C   UNL A   1     -26.493  -4.002  30.057  0.00  0.00    +0.004 A 
ATOM      5  C   UNL A   1     -26.166  -2.600  30.070  0.00  0.00    +0.030 A 
ATOM      6  C   UNL A   1     -25.007  -2.258  29.442  0.00  0.00    -0.015 A 
ATOM      7  C   UNL A   1     -24.229  -3.085  28.838  0.00  0.00    +0.007 A 
ATOM      8  C   UNL A   1     -27.121  -1.750  30.794  0.00  0.00    +0.138 A 
ATOM      9  C   UNL A   1     -28.502  -1.957  30.584  0.00  0.00    +0.043 A 
ATOM     10  C   UNL A   1     -28.893  -3.356  30.611  0.00  0.00    +0.083 A 
ATOM     11  C   UNL A   1     -27.829  -4.328  30.257  0.00  0.00    +0.007 A 
ATOM     12  C   UNL A   1     -24.634  -0.786  29.557  0.00  0.00    +0.059 C 
ATOM     13  C   UNL A   1     -24.567  -0.104  28.484  0.00  0.00    +0.008 C 
ATOM     14  C   UNL A   1     -23.507  -0.624  30.568  0.00  0.00    +0.008 C 
ATOM     15  C   UNL A   1     -25.817   0.099  30.242  0.00  0.00    +0.209 C 
ATOM     16  O   UNL A   1     -26.895  -0.345  30.279  0.00  0.00    -0.475 OA
ATOM     17  C   UNL A   1     -23.382   0.346  27.869  0.00  0.00    +0.000 C 
ATOM     18  C   UNL A   1     -22.282  -0.188  30.084  0.00  0.00    +0.000 C 
ATOM     19  C   UNL A   1     -22.306   0.412  28.768  0.00  0.00    +0.000 C 
ENDROOT
BRANCH  10  20
ATOM     20  C   UNL A   1     -30.254  -3.756  30.628  0.00  0.00    +0.388 C 
ATOM     21  O   UNL A   1     -30.726  -4.058  31.692  0.00  0.00    -0.241 OA
ATOM     22  O   UNL A   1     -30.888  -3.800  29.513  0.00  0.00    -0.241 OA
ENDBRANCH  10  20
TORSDOF 1
ENDMDL
ENDMDL
