REMARK  Name = No_2934-gen_results/8p0m/2024-11-26-14-13-15/
REMARK  1 active torsions:
REMARK  status: ('A' for Active; 'I' for Inactive)
REMARK    1  A    between atoms: C_10  and  C_11
REMARK                            x       y       z     vdW  Elec       q    Type
REMARK                         _______ _______ _______ _____ _____    ______ ____
ROOT
ATOM      1  C   UNL A   1     -28.016  -0.814  28.878  0.00  0.00    +0.057 A 
ATOM      2 CL   UNL A   1     -28.621  -1.185  29.735  0.00  0.00    -0.082 Cl
ATOM      3  C   UNL A   1     -26.523  -0.788  28.975  0.00  0.00    +0.011 A 
ATOM      4  C   UNL A   1     -25.630  -0.085  28.141  0.00  0.00    +0.004 A 
ATOM      5  C   UNL A   1     -26.163   0.584  26.983  0.00  0.00    +0.030 A 
ATOM      6  C   UNL A   1     -27.517   0.535  26.844  0.00  0.00    -0.015 A 
ATOM      7  C   UNL A   1     -28.319  -0.034  27.673  0.00  0.00    +0.007 A 
ATOM      8  C   UNL A   1     -25.156   1.192  26.102  0.00  0.00    +0.138 A 
ATOM      9  C   UNL A   1     -24.106   1.932  26.689  0.00  0.00    +0.043 A 
ATOM     10  C   UNL A   1     -23.499   1.276  27.835  0.00  0.00    +0.083 A 
ATOM     11  C   UNL A   1     -24.369   0.319  28.563  0.00  0.00    +0.007 A 
ATOM     12  C   UNL A   1     -28.046   1.162  25.560  0.00  0.00    +0.059 C 
ATOM     13  C   UNL A   1     -28.820   2.167  25.665  0.00  0.00    +0.008 C 
ATOM     14  C   UNL A   1     -28.442   0.064  24.583  0.00  0.00    +0.008 C 
ATOM     15  C   UNL A   1     -26.881   1.936  24.726  0.00  0.00    +0.209 C 
ATOM     16  O   UNL A   1     -25.896   2.225  25.281  0.00  0.00    -0.475 OA
ATOM     17  C   UNL A   1     -30.209   2.162  25.429  0.00  0.00    +0.000 C 
ATOM     18  C   UNL A   1     -29.789  -0.048  24.271  0.00  0.00    +0.000 C 
ATOM     19  C   UNL A   1     -30.607   1.098  24.604  0.00  0.00    +0.000 C 
ENDROOT
BRANCH  10  20
ATOM     20  C   UNL A   1     -22.304   1.755  28.429  0.00  0.00    +0.388 C 
ATOM     21  O   UNL A   1     -21.745   2.670  27.883  0.00  0.00    -0.241 OA
ATOM     22  O   UNL A   1     -21.876   1.172  29.489  0.00  0.00    -0.241 OA
ENDBRANCH  10  20
TORSDOF 1
