REMARK  Name = No_2935-gen_results/8p0m/2024-11-26-14-13-15/
REMARK  3 active torsions:
REMARK  status: ('A' for Active; 'I' for Inactive)
REMARK    1  A    between atoms: C_3  and  C_10
REMARK    2  A    between atoms: C_5  and  C_7
REMARK    3  A    between atoms: C_10  and  C_11
REMARK                            x       y       z     vdW  Elec       q    Type
REMARK                         _______ _______ _______ _____ _____    ______ ____
ROOT
ATOM      1  C   UNL A   1     -28.016  -0.814  28.878  0.00  0.00    -0.000 A 
ATOM      2  C   UNL A   1     -27.064  -0.119  28.608  0.00  0.00    -0.004 A 
ATOM      3  C   UNL A   1     -26.972   0.714  27.506  0.00  0.00    -0.018 A 
ATOM      4  C   UNL A   1     -28.105   0.774  26.642  0.00  0.00    +0.003 A 
ATOM      5  C   UNL A   1     -29.204   0.118  27.048  0.00  0.00    +0.080 A 
ATOM      6  C   UNL A   1     -29.213  -0.609  28.128  0.00  0.00    +0.007 A 
ENDROOT
BRANCH   5   7
ATOM      7  C   UNL A   1     -30.371   0.233  26.138  0.00  0.00    +0.388 C 
ATOM      8  O   UNL A   1     -30.963   1.227  26.081  0.00  0.00    -0.241 OA
ATOM      9  O   UNL A   1     -30.918  -0.896  25.834  0.00  0.00    -0.241 OA
ENDBRANCH   5   7
BRANCH   3  10
ATOM     10  C   UNL A   1     -25.669   1.417  27.136  0.00  0.00    +0.045 C 
ATOM     11  C   UNL A   1     -25.704   2.287  25.991  0.00  0.00    +0.009 C 
BRANCH  10  12
ATOM     12  C   UNL A   1     -24.529   1.073  27.731  0.00  0.00    -0.018 A 
ATOM     13  C   UNL A   1     -23.314   1.823  27.364  0.00  0.00    -0.004 A 
ATOM     14  C   UNL A   1     -22.079   1.603  28.033  0.00  0.00    -0.000 A 
ATOM     15  C   UNL A   1     -21.994   0.579  28.987  0.00  0.00    -0.000 A 
ATOM     16  C   UNL A   1     -23.105  -0.227  29.328  0.00  0.00    -0.000 A 
ATOM     17  C   UNL A   1     -24.301   0.036  28.671  0.00  0.00    -0.004 A 
ENDBRANCH  10  12
ENDBRANCH   3  10
TORSDOF 3
