MODEL 2935
MODEL 1
REMARK VINA RESULT:    -7.088      0.000      0.000
REMARK INTER + INTRA:          -9.054
REMARK INTER:                  -8.331
REMARK INTRA:                  -0.723
REMARK UNBOUND:                -0.723
REMARK  Name = No_2935-gen_results/8p0m/2024-11-26-14-13-15/
REMARK  3 active torsions:
REMARK  status: ('A' for Active; 'I' for Inactive)
REMARK    1  A    between atoms: C_3  and  C_10
REMARK    2  A    between atoms: C_5  and  C_7
REMARK    3  A    between atoms: C_10  and  C_11
REMARK                            x       y       z     vdW  Elec       q    Type
REMARK                         _______ _______ _______ _____ _____    ______ ____
ROOT
ATOM      1  C   UNL A   1     -26.276  -2.073  30.326  0.00  0.00    -0.000 A 
ATOM      2  C   UNL A   1     -25.499  -1.232  29.938  0.00  0.00    -0.004 A 
ATOM      3  C   UNL A   1     -24.325  -1.488  29.250  0.00  0.00    -0.018 A 
ATOM      4  C   UNL A   1     -24.031  -2.852  28.954  0.00  0.00    +0.003 A 
ATOM      5  C   UNL A   1     -24.983  -3.750  29.255  0.00  0.00    +0.080 A 
ATOM      6  C   UNL A   1     -26.082  -3.410  29.865  0.00  0.00    +0.007 A 
ENDROOT
BRANCH   5   7
ATOM      7  C   UNL A   1     -24.652  -5.153  28.901  0.00  0.00    +0.388 C 
ATOM      8  O   UNL A   1     -25.024  -6.020  29.572  0.00  0.00    -0.241 OA
ATOM      9  O   UNL A   1     -23.606  -5.277  28.156  0.00  0.00    -0.241 OA
ENDBRANCH   5   7
BRANCH   3  10
ATOM     10  C   UNL A   1     -23.309  -0.388  28.957  0.00  0.00    +0.045 C 
ATOM     11  C   UNL A   1     -22.358  -0.090  29.994  0.00  0.00    +0.009 C 
BRANCH  10  12
ATOM     12  C   UNL A   1     -23.441   0.376  27.875  0.00  0.00    -0.018 A 
ATOM     13  C   UNL A   1     -22.436   1.433  27.659  0.00  0.00    -0.004 A 
ATOM     14  C   UNL A   1     -22.432   2.218  26.474  0.00  0.00    -0.000 A 
ATOM     15  C   UNL A   1     -23.468   2.052  25.543  0.00  0.00    -0.000 A 
ATOM     16  C   UNL A   1     -24.504   1.108  25.730  0.00  0.00    -0.000 A 
ATOM     17  C   UNL A   1     -24.459   0.342  26.888  0.00  0.00    -0.004 A 
ENDBRANCH  10  12
ENDBRANCH   3  10
TORSDOF 3
ENDMDL
ENDMDL
