MODEL 2936
MODEL 1
REMARK VINA RESULT:    -7.572      0.000      0.000
REMARK INTER + INTRA:         -10.926
REMARK INTER:                  -9.343
REMARK INTRA:                  -1.583
REMARK UNBOUND:                -1.583
REMARK  Name = No_2936-gen_results/8p0m/2024-11-26-14-13-15/
REMARK  4 active torsions:
REMARK  status: ('A' for Active; 'I' for Inactive)
REMARK    1  A    between atoms: C_3  and  C_7
REMARK    2  A    between atoms: C_7  and  C_8
REMARK    3  A    between atoms: C_7  and  C_16
REMARK    4  A    between atoms: C_8  and  C_9
REMARK                            x       y       z     vdW  Elec       q    Type
REMARK                         _______ _______ _______ _____ _____    ______ ____
ROOT
ATOM      1  C   UNL A   1     -24.756  -1.281  29.900  0.00  0.00    +0.048 C 
ENDROOT
BRANCH   1   4
ATOM      2  C   UNL A   1     -23.910  -3.438  28.866  0.00  0.00    -0.004 A 
ATOM      3  C   UNL A   1     -24.031  -4.475  28.725  0.00  0.00    -0.000 A 
ATOM      4  C   UNL A   1     -24.955  -2.770  29.587  0.00  0.00    -0.018 A 
ATOM      5  C   UNL A   1     -26.103  -3.365  29.926  0.00  0.00    -0.004 A 
ATOM      6  C   UNL A   1     -25.189  -5.317  28.989  0.00  0.00    -0.000 A 
ATOM      7  C   UNL A   1     -26.175  -4.709  29.635  0.00  0.00    -0.000 A 
ENDBRANCH   1   4
BRANCH   1   8
ATOM      8  C   UNL A   1     -24.879  -0.978  31.228  0.00  0.00    -0.026 C 
ATOM      9  C   UNL A   1     -24.041  -1.157  32.095  0.00  0.00    -0.030 C 
ATOM     10  C   UNL A   1     -24.244  -0.769  33.464  0.00  0.00    +0.030 C 
ENDBRANCH   1   8
BRANCH   1  11
ATOM     11  C   UNL A   1     -24.459  -0.386  28.797  0.00  0.00    +0.030 C 
ATOM     12  C   UNL A   1     -25.693  -0.034  28.088  0.00  0.00    +0.005 C 
BRANCH  11  13
ATOM     13  C   UNL A   1     -23.190   0.045  28.534  0.00  0.00    -0.022 A 
ATOM     14  C   UNL A   1     -22.239  -0.089  28.833  0.00  0.00    -0.004 A 
ATOM     15  C   UNL A   1     -21.038   0.526  28.241  0.00  0.00    -0.000 A 
ATOM     16  C   UNL A   1     -21.358   1.532  27.371  0.00  0.00    -0.000 A 
ATOM     17  C   UNL A   1     -23.444   1.268  27.520  0.00  0.00    -0.004 A 
ATOM     18  C   UNL A   1     -22.497   1.972  27.062  0.00  0.00    -0.000 A 
ENDBRANCH  11  13
ENDBRANCH   1  11
TORSDOF 4
ENDMDL
ENDMDL
