REMARK  Name = No_2936-gen_results/8p0m/2024-11-26-14-13-15/
REMARK  4 active torsions:
REMARK  status: ('A' for Active; 'I' for Inactive)
REMARK    1  A    between atoms: C_3  and  C_7
REMARK    2  A    between atoms: C_7  and  C_8
REMARK    3  A    between atoms: C_7  and  C_16
REMARK    4  A    between atoms: C_8  and  C_9
REMARK                            x       y       z     vdW  Elec       q    Type
REMARK                         _______ _______ _______ _____ _____    ______ ____
ROOT
ATOM      1  C   UNL A   1     -27.460   0.380  26.709  0.00  0.00    +0.048 C 
ENDROOT
BRANCH   1   4
ATOM      2  C   UNL A   1     -28.016  -0.814  28.878  0.00  0.00    -0.004 A 
ATOM      3  C   UNL A   1     -28.469  -0.785  29.829  0.00  0.00    -0.000 A 
ATOM      4  C   UNL A   1     -28.196   0.348  28.055  0.00  0.00    -0.018 A 
ATOM      5  C   UNL A   1     -29.019   1.350  28.378  0.00  0.00    -0.004 A 
ATOM      6  C   UNL A   1     -29.411   0.180  30.378  0.00  0.00    -0.000 A 
ATOM      7  C   UNL A   1     -29.606   1.250  29.619  0.00  0.00    -0.000 A 
ENDBRANCH   1   4
BRANCH   1   8
ATOM      8  C   UNL A   1     -28.294   0.463  25.629  0.00  0.00    -0.026 C 
ATOM      9  C   UNL A   1     -29.091   1.354  25.392  0.00  0.00    -0.030 C 
ATOM     10  C   UNL A   1     -29.902   1.377  24.205  0.00  0.00    +0.030 C 
ENDBRANCH   1   8
BRANCH   1  11
ATOM     11  C   UNL A   1     -26.009   0.332  26.724  0.00  0.00    +0.030 C 
ATOM     12  C   UNL A   1     -25.481   0.681  25.402  0.00  0.00    +0.005 C 
BRANCH  11  13
ATOM     13  C   UNL A   1     -25.305   0.024  27.853  0.00  0.00    -0.022 A 
ATOM     14  C   UNL A   1     -25.440  -0.199  28.824  0.00  0.00    -0.004 A 
ATOM     15  C   UNL A   1     -24.393  -0.571  29.793  0.00  0.00    -0.000 A 
ATOM     16  C   UNL A   1     -23.139  -0.335  29.301  0.00  0.00    -0.000 A 
ATOM     17  C   UNL A   1     -23.786   0.292  27.396  0.00  0.00    -0.004 A 
ATOM     18  C   UNL A   1     -22.809   0.155  28.189  0.00  0.00    -0.000 A 
ENDBRANCH  11  13
ENDBRANCH   1  11
TORSDOF 4
