MODEL 2937
MODEL 1
REMARK VINA RESULT:    -6.359      0.000      0.000
REMARK INTER + INTRA:         -10.041
REMARK INTER:                  -8.218
REMARK INTRA:                  -1.822
REMARK UNBOUND:                -1.822
REMARK  Name = No_2937-gen_results/8p0m/2024-11-26-14-13-15/
REMARK  5 active torsions:
REMARK  status: ('A' for Active; 'I' for Inactive)
REMARK    1  A    between atoms: C_4  and  C_11
REMARK    2  A    between atoms: C_11  and  C_13
REMARK    3  A    between atoms: C_13  and  C_14
REMARK    4  A    between atoms: C_15  and  C_16
REMARK    5  A    between atoms: C_17  and  C_18
REMARK                            x       y       z     vdW  Elec       q    Type
REMARK                         _______ _______ _______ _____ _____    ______ ____
ROOT
ATOM      1  C   UNL A   1     -28.142  -2.426  30.792  0.00  0.00    -0.000 A 
ATOM      2  C   UNL A   1     -27.057  -2.028  30.436  0.00  0.00    -0.000 A 
ATOM      3  C   UNL A   1     -26.079  -2.851  29.880  0.00  0.00    -0.004 A 
ATOM      4  C   UNL A   1     -24.730  -2.455  29.431  0.00  0.00    -0.022 A 
ATOM      5  C   UNL A   1     -23.728  -3.341  28.897  0.00  0.00    -0.004 A 
ATOM      6  C   UNL A   1     -24.180  -4.635  28.616  0.00  0.00    -0.000 A 
ATOM      7  C   UNL A   1     -28.374  -3.910  30.775  0.00  0.00    -0.000 A 
ATOM      8  C   UNL A   1     -27.504  -4.784  30.164  0.00  0.00    -0.000 A 
ATOM      9  C   UNL A   1     -26.282  -4.315  29.718  0.00  0.00    -0.000 A 
ATOM     10  C   UNL A   1     -25.368  -5.155  29.083  0.00  0.00    -0.000 A 
ENDROOT
BRANCH   4  11
ATOM     11  C   UNL A   1     -24.288  -1.028  29.553  0.00  0.00    +0.027 C 
ATOM     12  C   UNL A   1     -24.335  -0.251  28.402  0.00  0.00    +0.005 C 
BRANCH  11  13
ATOM     13  C   UNL A   1     -22.881  -0.874  30.105  0.00  0.00    +0.030 C 
BRANCH  13  14
ATOM     14  C   UNL A   1     -22.751  -0.887  31.596  0.00  0.00    -0.026 C 
ATOM     15  C   UNL A   1     -23.783  -1.118  32.208  0.00  0.00    -0.005 C 
BRANCH  15  16
ATOM     16  C   UNL A   1     -24.275  -0.768  33.258  0.00  0.00    -0.000 C 
ATOM     17  C   UNL A   1     -25.417   0.176  33.524  0.00  0.00    -0.000 C 
BRANCH  17  18
ATOM     18  C   UNL A   1     -25.903   0.847  32.371  0.00  0.00    -0.000 C 
ATOM     19  C   UNL A   1     -25.294   2.001  31.960  0.00  0.00    -0.000 C 
ENDBRANCH  17  18
ENDBRANCH  15  16
ENDBRANCH  13  14
ENDBRANCH  11  13
ENDBRANCH   4  11
TORSDOF 5
ENDMDL
ENDMDL
