MODEL 2938
MODEL 1
REMARK VINA RESULT:    -6.271      0.000      0.000
REMARK INTER + INTRA:          -7.218
REMARK INTER:                  -7.004
REMARK INTRA:                  -0.214
REMARK UNBOUND:                -0.214
REMARK  Name = No_2938-gen_results/8p0m/2024-11-26-14-13-15/
REMARK  2 active torsions:
REMARK  status: ('A' for Active; 'I' for Inactive)
REMARK    1  A    between atoms: C_5  and  C_18
REMARK    2  A    between atoms: C_9  and  C_10
REMARK                            x       y       z     vdW  Elec       q    Type
REMARK                         _______ _______ _______ _____ _____    ______ ____
ROOT
ATOM      1  C   UNL A   1     -25.593   0.460  26.845  0.00  0.00    +0.120 C 
ATOM      2  C   UNL A   1     -26.623   0.396  26.215  0.00  0.00    -0.005 A 
ATOM      3  C   UNL A   1     -27.848   0.662  26.735  0.00  0.00    -0.005 A 
ATOM      4  C   UNL A   1     -29.117   0.590  25.977  0.00  0.00    -0.006 A 
ATOM      5  C   UNL A   1     -29.026   0.234  24.591  0.00  0.00    -0.005 A 
ATOM      6  C   UNL A   1     -27.728   0.035  24.070  0.00  0.00    -0.003 A 
ATOM      7  C   UNL A   1     -26.593   0.119  24.836  0.00  0.00    -0.003 A 
ATOM      8  N   UNL A   1     -25.450   1.383  27.877  0.00  0.00    -0.268 N 
ATOM      9  C   UNL A   1     -24.693   1.805  28.549  0.00  0.00    +0.249 C 
ATOM     10  C   UNL A   1     -27.013   1.321  28.383  0.00  0.00    +0.120 C 
ATOM     11  O   UNL A   1     -24.831   2.854  29.290  0.00  0.00    -0.270 OA
ENDROOT
BRANCH   9  12
ATOM     12  C   UNL A   1     -23.344   1.345  28.415  0.00  0.00    +0.054 A 
ATOM     13  C   UNL A   1     -22.509   1.924  27.522  0.00  0.00    +0.004 A 
ATOM     14  C   UNL A   1     -21.124   1.541  27.501  0.00  0.00    +0.000 A 
ATOM     15  C   UNL A   1     -20.706   0.390  28.190  0.00  0.00    +0.000 A 
ATOM     16  C   UNL A   1     -21.647  -0.336  28.993  0.00  0.00    +0.000 A 
ATOM     17  C   UNL A   1     -22.958   0.110  29.076  0.00  0.00    +0.004 A 
ENDBRANCH   9  12
BRANCH   5  18
ATOM     18  C   UNL A   1     -30.164   0.100  23.723  0.00  0.00    +0.114 C 
ATOM     19  N   UNL A   1     -30.884   0.844  23.031  0.00  0.00    -0.128 NA
ATOM     20  C   UNL A   1     -30.527  -1.386  23.555  0.00  0.00    +0.025 C 
ENDBRANCH   5  18
TORSDOF 2
ENDMDL
ENDMDL
