REMARK  Name = No_2938-gen_results/8p0m/2024-11-26-14-13-15/
REMARK  2 active torsions:
REMARK  status: ('A' for Active; 'I' for Inactive)
REMARK    1  A    between atoms: C_5  and  C_18
REMARK    2  A    between atoms: C_9  and  C_10
REMARK                            x       y       z     vdW  Elec       q    Type
REMARK                         _______ _______ _______ _____ _____    ______ ____
ROOT
ATOM      1  C   UNL A   1     -28.016  -0.814  28.878  0.00  0.00    +0.120 C 
ATOM      2  C   UNL A   1     -27.064  -0.119  28.608  0.00  0.00    -0.005 A 
ATOM      3  C   UNL A   1     -26.929   1.171  29.008  0.00  0.00    -0.005 A 
ATOM      4  C   UNL A   1     -25.770   2.034  28.688  0.00  0.00    -0.006 A 
ATOM      5  C   UNL A   1     -24.714   1.443  27.919  0.00  0.00    -0.005 A 
ATOM      6  C   UNL A   1     -24.859   0.078  27.584  0.00  0.00    -0.003 A 
ATOM      7  C   UNL A   1     -25.965  -0.661  27.916  0.00  0.00    -0.003 A 
ATOM      8  N   UNL A   1     -28.700  -0.644  30.077  0.00  0.00    -0.268 N 
ATOM      9  C   UNL A   1     -29.472  -1.116  30.697  0.00  0.00    +0.249 C 
ATOM     10  C   UNL A   1     -28.508   0.987  30.157  0.00  0.00    +0.120 C 
ATOM     11  O   UNL A   1     -29.753  -0.821  31.923  0.00  0.00    -0.270 OA
ENDROOT
BRANCH   9  12
ATOM     12  C   UNL A   1     -30.047  -2.343  30.235  0.00  0.00    +0.054 A 
ATOM     13  C   UNL A   1     -31.334  -2.383  29.821  0.00  0.00    +0.004 A 
ATOM     14  C   UNL A   1     -31.848  -3.589  29.233  0.00  0.00    +0.000 A 
ATOM     15  C   UNL A   1     -31.124  -4.788  29.348  0.00  0.00    +0.000 A 
ATOM     16  C   UNL A   1     -29.828  -4.776  29.962  0.00  0.00    +0.000 A 
ATOM     17  C   UNL A   1     -29.309  -3.579  30.435  0.00  0.00    +0.004 A 
ENDBRANCH   9  12
BRANCH   5  18
ATOM     18  C   UNL A   1     -23.532   2.150  27.508  0.00  0.00    +0.114 C 
ATOM     19  N   UNL A   1     -22.358   2.285  27.901  0.00  0.00    -0.128 NA
ATOM     20  C   UNL A   1     -23.786   2.868  26.170  0.00  0.00    +0.025 C 
ENDBRANCH   5  18
TORSDOF 2
