MODEL 2939
MODEL 1
REMARK VINA RESULT:    -6.542      0.000      0.000
REMARK INTER + INTRA:          -7.249
REMARK INTER:                  -6.924
REMARK INTRA:                  -0.324
REMARK UNBOUND:                -0.324
REMARK  Name = No_2939-gen_results/8p0m/2024-11-26-14-13-15/
REMARK  1 active torsions:
REMARK  status: ('A' for Active; 'I' for Inactive)
REMARK    1  A    between atoms: C_3  and  C_7
REMARK                            x       y       z     vdW  Elec       q    Type
REMARK                         _______ _______ _______ _____ _____    ______ ____
ROOT
ATOM      1  C   UNL A   1     -24.637  -4.923  28.896  0.00  0.00    +0.000 A 
ATOM      2  C   UNL A   1     -24.055  -3.892  28.647  0.00  0.00    +0.000 A 
ATOM      3  C   UNL A   1     -24.546  -2.630  28.978  0.00  0.00    +0.000 A 
ATOM      4  C   UNL A   1     -25.850  -2.521  29.602  0.00  0.00    +0.000 A 
ATOM      5  C   UNL A   1     -26.495  -3.732  29.853  0.00  0.00    +0.000 A 
ATOM      6  C   UNL A   1     -25.961  -4.884  29.496  0.00  0.00    +0.000 A 
ENDROOT
BRANCH   3   7
ATOM      7  C   UNL A   1     -23.885  -1.320  28.711  0.00  0.00    +0.000 A 
ATOM      8  C   UNL A   1     -24.418  -0.422  27.939  0.00  0.00    +0.000 A 
ATOM      9  C   UNL A   1     -23.724   0.738  27.587  0.00  0.00    +0.000 A 
ATOM     10  C   UNL A   1     -22.438   1.012  27.979  0.00  0.00    +0.000 A 
ATOM     11  C   UNL A   1     -22.494  -1.115  29.129  0.00  0.00    +0.000 A 
ATOM     12  C   UNL A   1     -21.802   0.074  28.761  0.00  0.00    +0.000 A 
ENDBRANCH   3   7
TORSDOF 1
ENDMDL
ENDMDL
