MODEL 293
MODEL 1
REMARK VINA RESULT:    -6.519      0.000      0.000
REMARK INTER + INTRA:          -6.825
REMARK INTER:                  -6.900
REMARK INTRA:                   0.075
REMARK UNBOUND:                 0.075
REMARK  Name = No_293-gen_results/8p0m/2024-11-26-14-13-15/
REMARK  1 active torsions:
REMARK  status: ('A' for Active; 'I' for Inactive)
REMARK    1  A    between atoms: C_3  and  C_5
REMARK                            x       y       z     vdW  Elec       q    Type
REMARK                         _______ _______ _______ _____ _____    ______ ____
ROOT
ATOM      1  O   UNL A   1     -21.244  -1.120  28.944  0.00  0.00    -0.273 OA
ATOM      2  C   UNL A   1     -22.234  -0.557  29.428  0.00  0.00    +0.245 C 
ATOM      3  C   UNL A   1     -22.872   0.243  29.251  0.00  0.00    +0.100 C 
ATOM      4  N   UNL A   1     -22.461  -1.107  30.930  0.00  0.00    -0.207 NA
ATOM      5  C   UNL A   1     -23.270  -0.555  31.777  0.00  0.00    +0.095 C 
ATOM      6  C   UNL A   1     -23.471  -0.971  32.903  0.00  0.00    +0.023 C 
ATOM      7  C   UNL A   1     -23.917   0.674  31.267  0.00  0.00    +0.022 C 
ATOM      8  C   UNL A   1     -23.874   1.027  30.193  0.00  0.00    +0.015 C 
ENDROOT
BRANCH   3   9
ATOM      9  C   UNL A   1     -23.019   0.850  27.949  0.00  0.00    -0.018 A 
ATOM     10  C   UNL A   1     -22.426   1.611  27.509  0.00  0.00    -0.004 A 
ATOM     11  C   UNL A   1     -22.729   2.307  26.171  0.00  0.00    -0.000 A 
ATOM     12  C   UNL A   1     -23.824   1.818  25.467  0.00  0.00    -0.000 A 
ATOM     13  C   UNL A   1     -24.616   0.809  25.987  0.00  0.00    -0.005 A 
ATOM     14  C   UNL A   1     -24.280   0.235  27.169  0.00  0.00    -0.025 A 
ATOM     15  C   UNL A   1     -24.927  -0.841  27.766  0.00  0.00    +0.031 C 
ENDBRANCH   3   9
TORSDOF 1
ENDMDL
ENDMDL
