REMARK  Name = No_294-gen_results/8p0m/2024-11-26-14-13-15/
REMARK  6 active torsions:
REMARK  status: ('A' for Active; 'I' for Inactive)
REMARK    1  A    between atoms: C_1  and  C_2
REMARK    2  A    between atoms: C_1  and  N_8
REMARK    3  A    between atoms: C_5  and  C_14
REMARK    4  A    between atoms: N_8  and  CA_9
REMARK    5  A    between atoms: CA_9  and  C_10
REMARK    6  A    between atoms: CA_9  and  C_13
REMARK                            x       y       z     vdW  Elec       q    Type
REMARK                         _______ _______ _______ _____ _____    ______ ____
ROOT
ATOM      1  C   UNL A   1     -27.064  -0.119  28.608  0.00  0.00    -0.005 A 
ATOM      2  C   UNL A   1     -25.792  -0.430  29.076  0.00  0.00    -0.003 A 
ATOM      3  C   UNL A   1     -24.546   0.349  28.823  0.00  0.00    +0.004 A 
ATOM      4  C   UNL A   1     -24.659   1.420  27.888  0.00  0.00    +0.057 A 
ATOM      5  C   UNL A   1     -25.947   1.681  27.379  0.00  0.00    +0.004 A 
ATOM      6  C   UNL A   1     -27.044   0.974  27.687  0.00  0.00    -0.003 A 
ENDROOT
BRANCH   4   7
ATOM      7  C   UNL A   1     -23.440   2.144  27.593  0.00  0.00    +0.284 C 
ATOM      8  N   UNL A   1     -22.245   1.710  28.080  0.00  0.00    -0.084 NA
ATOM      9  O   UNL A   1     -23.474   3.007  26.676  0.00  0.00    -0.267 OA
ENDBRANCH   4   7
BRANCH   1  10
ATOM     10  C   UNL A   1     -28.016  -0.814  28.878  0.00  0.00    +0.116 C 
BRANCH  10  11
ATOM     11  N   UNL A   1     -28.664  -0.527  30.102  0.00  0.00    -0.197 NA
BRANCH  11  12
ATOM     12  CA  UNL A   1     -29.615  -1.247  30.654  0.00  0.00    +0.241 C 
BRANCH  12  13
ATOM     13  C   UNL A   1     -30.134  -2.284  30.019  0.00  0.00    +0.388 C 
ATOM     14  O   UNL A   1     -30.975  -2.296  29.359  0.00  0.00    -0.244 OA
ATOM     15  O   UNL A   1     -29.266  -3.408  30.053  0.00  0.00    -0.244 OA
ENDBRANCH  12  13
BRANCH  12  16
ATOM     16  C   UNL A   1     -30.224  -0.805  31.958  0.00  0.00    +0.236 C 
ATOM     17  O   UNL A   1     -29.873  -0.004  32.532  0.00  0.00    -0.286 OA
ENDBRANCH  12  16
ENDBRANCH  11  12
ENDBRANCH  10  11
ENDBRANCH   1  10
TORSDOF 6
