MODEL 2940
MODEL 1
REMARK VINA RESULT:    -5.097      0.000      0.000
REMARK INTER + INTRA:          -5.449
REMARK INTER:                  -5.395
REMARK INTRA:                  -0.054
REMARK UNBOUND:                -0.054
REMARK  Name = No_2940-gen_results/8p0m/2024-11-26-14-13-15/
REMARK  1 active torsions:
REMARK  status: ('A' for Active; 'I' for Inactive)
REMARK    1  A    between atoms: C_2  and  C_7
REMARK                            x       y       z     vdW  Elec       q    Type
REMARK                         _______ _______ _______ _____ _____    ______ ____
ROOT
ATOM      1  C   UNL A   1     -23.833  -2.945  28.970  0.00  0.00    +0.019 A 
ATOM      2  C   UNL A   1     -24.015  -1.970  29.327  0.00  0.00    +0.081 A 
ATOM      3  C   UNL A   1     -24.936  -3.947  29.229  0.00  0.00    +0.068 A 
ATOM      4  C   UNL A   1     -26.158  -3.505  29.779  0.00  0.00    +0.068 A 
ATOM      5  C   UNL A   1     -25.184  -1.255  29.887  0.00  0.00    +0.007 A 
ATOM      6  C   UNL A   1     -26.221  -2.144  30.133  0.00  0.00    +0.013 A 
ATOM      7 CL   UNL A   1     -24.857  -5.598  28.843  0.00  0.00    -0.081 Cl
ATOM      8 CL   UNL A   1     -27.441  -4.547  30.128  0.00  0.00    -0.081 Cl
ENDROOT
BRANCH   2   9
ATOM      9  C   UNL A   1     -22.866  -0.882  29.054  0.00  0.00    +0.388 C 
ATOM     10  O   UNL A   1     -21.649  -1.288  29.023  0.00  0.00    -0.241 OA
ATOM     11  O   UNL A   1     -23.244   0.279  28.813  0.00  0.00    -0.241 OA
ENDBRANCH   2   9
TORSDOF 1
ENDMDL
ENDMDL
