MODEL 2942
MODEL 1
REMARK VINA RESULT:    -6.887      0.000      0.000
REMARK INTER + INTRA:          -6.887
REMARK INTER:                  -6.887
REMARK INTRA:                   0.000
REMARK UNBOUND:                 0.000
REMARK  Name = No_2942-gen_results/8p0m/2024-11-26-14-13-15/
REMARK  0 active torsions:
REMARK  status: ('A' for Active; 'I' for Inactive)
REMARK                            x       y       z     vdW  Elec       q    Type
REMARK                         _______ _______ _______ _____ _____    ______ ____
ROOT
ATOM      1  C   UNL A   1     -28.937 -10.619  32.021  0.00  0.00    +0.081 A 
ATOM      2  C   UNL A   1     -28.344 -11.526  31.483  0.00  0.00    +0.018 A 
ATOM      3  C   UNL A   1     -27.474 -12.339  32.201  0.00  0.00    +0.002 A 
ATOM      4  C   UNL A   1     -27.215 -12.098  33.597  0.00  0.00    +0.000 A 
ATOM      5  C   UNL A   1     -27.924 -11.015  34.132  0.00  0.00    +0.002 A 
ATOM      6  C   UNL A   1     -28.723 -10.266  33.407  0.00  0.00    +0.019 A 
ATOM      7  C   UNL A   1     -28.467 -11.901  30.049  0.00  0.00    +0.003 A 
ATOM      8  C   UNL A   1     -29.073 -11.556  29.302  0.00  0.00    +0.017 A 
ATOM      9  C   UNL A   1     -29.240 -12.025  27.876  0.00  0.00    -0.003 A 
ATOM     10  C   UNL A   1     -30.057 -11.460  26.889  0.00  0.00    -0.022 A 
ATOM     11  C   UNL A   1     -30.098 -11.910  25.620  0.00  0.00    +0.031 C 
ATOM     12  C   UNL A   1     -30.962 -10.409  27.286  0.00  0.00    -0.003 A 
ATOM     13  C   UNL A   1     -30.910  -9.957  28.602  0.00  0.00    +0.019 A 
ATOM     14  C   UNL A   1     -30.073 -10.416  29.513  0.00  0.00    +0.081 A 
ATOM     15  N   UNL A   1     -29.785  -9.828  31.295  0.00  0.00    -0.245 NA
ENDROOT
TORSDOF 0
ENDMDL
ENDMDL
