MODEL 2943
MODEL 1
REMARK VINA RESULT:    -5.213      0.000      0.000
REMARK INTER + INTRA:          -6.014
REMARK INTER:                  -5.823
REMARK INTRA:                  -0.191
REMARK UNBOUND:                -0.191
REMARK  Name = No_2943-gen_results/8p0m/2024-11-26-14-13-15/
REMARK  2 active torsions:
REMARK  status: ('A' for Active; 'I' for Inactive)
REMARK    1  A    between atoms: C_2  and  O_7
REMARK    2  A    between atoms: O_7  and  C_8
REMARK                            x       y       z     vdW  Elec       q    Type
REMARK                         _______ _______ _______ _____ _____    ______ ____
ROOT
ATOM      1  C   UNL A   1     -24.017  -4.318  28.792  0.00  0.00    +0.037 A 
ATOM      2  C   UNL A   1     -24.102  -3.144  29.069  0.00  0.00    +0.145 A 
ATOM      3  C   UNL A   1     -25.205  -2.570  29.613  0.00  0.00    +0.037 A 
ATOM      4  C   UNL A   1     -26.323  -3.386  29.873  0.00  0.00    +0.003 A 
ATOM      5  C   UNL A   1     -25.086  -5.228  29.119  0.00  0.00    +0.003 A 
ATOM      6  C   UNL A   1     -26.228  -4.697  29.639  0.00  0.00    +0.000 A 
ENDROOT
BRANCH   2   7
ATOM      7  O   UNL A   1     -23.032  -2.267  28.860  0.00  0.00    -0.451 OA
BRANCH   7   8
ATOM      8  C   UNL A   1     -23.039  -0.929  29.144  0.00  0.00    +0.175 C 
ATOM      9  C   UNL A   1     -22.741  -0.012  28.327  0.00  0.00    +0.015 C 
ATOM     10  C   UNL A   1     -22.813   1.369  28.538  0.00  0.00    +0.034 C 
ENDBRANCH   7   8
ENDBRANCH   2   7
TORSDOF 2
ENDMDL
ENDMDL
