REMARK  Name = No_2943-gen_results/8p0m/2024-11-26-14-13-15/
REMARK  2 active torsions:
REMARK  status: ('A' for Active; 'I' for Inactive)
REMARK    1  A    between atoms: C_2  and  O_7
REMARK    2  A    between atoms: O_7  and  C_8
REMARK                            x       y       z     vdW  Elec       q    Type
REMARK                         _______ _______ _______ _____ _____    ______ ____
ROOT
ATOM      1  C   UNL A   1     -28.016  -0.814  28.878  0.00  0.00    +0.037 A 
ATOM      2  C   UNL A   1     -27.064  -0.119  28.608  0.00  0.00    +0.145 A 
ATOM      3  C   UNL A   1     -26.929   1.171  29.008  0.00  0.00    +0.037 A 
ATOM      4  C   UNL A   1     -27.956   1.741  29.784  0.00  0.00    +0.003 A 
ATOM      5  C   UNL A   1     -29.057  -0.327  29.747  0.00  0.00    +0.003 A 
ATOM      6  C   UNL A   1     -28.983   0.972  30.152  0.00  0.00    +0.000 A 
ENDROOT
BRANCH   2   7
ATOM      7  O   UNL A   1     -25.991  -0.612  27.857  0.00  0.00    -0.451 OA
BRANCH   7   8
ATOM      8  C   UNL A   1     -25.031   0.153  27.254  0.00  0.00    +0.175 C 
ATOM      9  C   UNL A   1     -24.835   1.381  27.478  0.00  0.00    +0.015 C 
ATOM     10  C   UNL A   1     -23.819   2.188  26.955  0.00  0.00    +0.034 C 
ENDBRANCH   7   8
ENDBRANCH   2   7
TORSDOF 2
