MODEL 2944
MODEL 1
REMARK VINA RESULT:    -4.516      0.000      0.000
REMARK INTER + INTRA:          -4.516
REMARK INTER:                  -4.516
REMARK INTRA:                   0.000
REMARK UNBOUND:                 0.000
REMARK  Name = No_2944-gen_results/8p0m/2024-11-26-14-13-15/
REMARK  0 active torsions:
REMARK  status: ('A' for Active; 'I' for Inactive)
REMARK                            x       y       z     vdW  Elec       q    Type
REMARK                         _______ _______ _______ _____ _____    ______ ____
ROOT
ATOM      1  C   UNL A   1     -26.263  -3.430  29.952  0.00  0.00    +0.002 A 
ATOM      2  C   UNL A   1     -26.166  -4.586  29.609  0.00  0.00    +0.030 A 
ATOM      3  C   UNL A   1     -25.047  -5.106  28.960  0.00  0.00    +0.140 A 
ATOM      4  C   UNL A   1     -23.953  -4.218  28.616  0.00  0.00    +0.030 A 
ATOM      5  C   UNL A   1     -24.116  -2.891  29.012  0.00  0.00    +0.002 A 
ATOM      6  C   UNL A   1     -25.215  -2.481  29.614  0.00  0.00    +0.000 A 
ATOM      7  F   UNL A   1     -24.911  -6.362  28.549  0.00  0.00    -0.204 F 
ENDROOT
TORSDOF 0
ENDMDL
ENDMDL
