MODEL 2945
MODEL 1
REMARK VINA RESULT:    -6.635      0.000      0.000
REMARK INTER + INTRA:          -7.098
REMARK INTER:                  -7.023
REMARK INTRA:                  -0.074
REMARK UNBOUND:                -0.074
REMARK  Name = No_2945-gen_results/8p0m/2024-11-26-14-13-15/
REMARK  1 active torsions:
REMARK  status: ('A' for Active; 'I' for Inactive)
REMARK    1  A    between atoms: C_5  and  C_17
REMARK                            x       y       z     vdW  Elec       q    Type
REMARK                         _______ _______ _______ _____ _____    ______ ____
ROOT
ATOM      1  C   UNL A   1      -9.616   2.812   9.824  0.00  0.00    +0.050 A 
ATOM      2  C   UNL A   1      -8.869   2.247   9.059  0.00  0.00    +0.249 C 
ATOM      3  N   UNL A   1      -7.998   1.295   9.423  0.00  0.00    -0.277 N 
ATOM      4  C   UNL A   1      -7.144   0.577   8.602  0.00  0.00    +0.103 C 
ATOM      5  C   UNL A   1      -6.307  -0.417   9.119  0.00  0.00    +0.100 C 
ATOM      6  C   UNL A   1      -6.703  -0.858  10.395  0.00  0.00    +0.013 C 
ATOM      7  C   UNL A   1      -7.604  -0.270  11.186  0.00  0.00    +0.021 C 
ATOM      8  C   UNL A   1      -8.332   0.771  10.615  0.00  0.00    +0.080 C 
ATOM      9  C   UNL A   1      -9.932   4.215   9.552  0.00  0.00    +0.011 A 
ATOM     10  C   UNL A   1     -10.573   5.007  10.547  0.00  0.00    +0.035 A 
ATOM     11  C   UNL A   1     -10.704   4.463  11.814  0.00  0.00    +0.006 A 
ATOM     12  C   UNL A   1     -10.245   3.243  12.188  0.00  0.00    -0.004 A 
ATOM     13  C   UNL A   1      -9.576   2.482  11.249  0.00  0.00    -0.016 A 
ATOM     14  C   UNL A   1      -9.047   1.501  11.533  0.00  0.00    +0.046 C 
ATOM     15  O   UNL A   1      -8.930   2.404   7.713  0.00  0.00    -0.270 OA
ATOM     16 BR   UNL A   1     -11.323   6.637  10.085  0.00  0.00    -0.049 Br
ENDROOT
BRANCH   5  17
ATOM     17  C   UNL A   1      -5.432  -1.191   8.272  0.00  0.00    +0.262 C 
ATOM     18  N   UNL A   1      -4.238  -1.539   8.792  0.00  0.00    -0.088 NA
ATOM     19  O   UNL A   1      -5.814  -1.633   7.207  0.00  0.00    -0.272 OA
ENDBRANCH   5  17
TORSDOF 1
ENDMDL
ENDMDL
