REMARK  Name = No_2945-gen_results/8p0m/2024-11-26-14-13-15/
REMARK  1 active torsions:
REMARK  status: ('A' for Active; 'I' for Inactive)
REMARK    1  A    between atoms: C_5  and  C_17
REMARK                            x       y       z     vdW  Elec       q    Type
REMARK                         _______ _______ _______ _____ _____    ______ ____
ROOT
ATOM      1  C   UNL A   1     -28.016  -0.814  28.878  0.00  0.00    +0.050 A 
ATOM      2  C   UNL A   1     -27.064  -0.119  28.608  0.00  0.00    +0.249 C 
ATOM      3  N   UNL A   1     -25.818  -0.343  29.049  0.00  0.00    -0.277 N 
ATOM      4  C   UNL A   1     -24.676   0.381  28.750  0.00  0.00    +0.103 C 
ATOM      5  C   UNL A   1     -23.428   0.009  29.260  0.00  0.00    +0.100 C 
ATOM      6  C   UNL A   1     -23.400  -1.317  29.729  0.00  0.00    +0.013 C 
ATOM      7  C   UNL A   1     -24.461  -2.103  29.930  0.00  0.00    +0.021 C 
ATOM      8  C   UNL A   1     -25.681  -1.613  29.468  0.00  0.00    +0.080 C 
ATOM      9  C   UNL A   1     -29.318  -0.160  29.013  0.00  0.00    +0.011 A 
ATOM     10  C   UNL A   1     -30.412  -0.863  29.592  0.00  0.00    +0.035 A 
ATOM     11  C   UNL A   1     -30.148  -2.088  30.182  0.00  0.00    +0.006 A 
ATOM     12  C   UNL A   1     -28.921  -2.658  30.275  0.00  0.00    -0.004 A 
ATOM     13  C   UNL A   1     -27.840  -1.966  29.763  0.00  0.00    -0.016 A 
ATOM     14  C   UNL A   1     -26.761  -2.328  29.925  0.00  0.00    +0.046 C 
ATOM     15  O   UNL A   1     -27.117   0.888  27.700  0.00  0.00    -0.270 OA
ATOM     16 BR   UNL A   1     -32.133  -0.201  29.410  0.00  0.00    -0.049 Br
ENDROOT
BRANCH   5  17
ATOM     17  C   UNL A   1     -22.226   0.738  28.935  0.00  0.00    +0.262 C 
ATOM     18  N   UNL A   1     -21.092   0.017  28.825  0.00  0.00    -0.088 NA
ATOM     19  O   UNL A   1     -22.264   1.912  28.628  0.00  0.00    -0.272 OA
ENDBRANCH   5  17
TORSDOF 1
