REMARK  Name = No_2946-gen_results/8p0m/2024-11-26-14-13-15/
REMARK  2 active torsions:
REMARK  status: ('A' for Active; 'I' for Inactive)
REMARK    1  A    between atoms: C_2  and  C_5
REMARK    2  A    between atoms: N_8  and  C_9
REMARK                            x       y       z     vdW  Elec       q    Type
REMARK                         _______ _______ _______ _____ _____    ______ ____
ROOT
ATOM      1  C   UNL A   1     -30.014  -0.841  29.851  0.00  0.00    +0.269 C 
ATOM      2  N   UNL A   1     -30.648  -0.134  28.995  0.00  0.00    -0.175 NA
ATOM      3  O   UNL A   1     -30.582  -1.712  30.568  0.00  0.00    -0.268 OA
ENDROOT
BRANCH   1   5
ATOM      4  C   UNL A   1     -28.016  -0.814  28.878  0.00  0.00    +0.005 A 
ATOM      5  C   UNL A   1     -28.469  -0.785  29.829  0.00  0.00    +0.055 A 
ATOM      6  C   UNL A   1     -26.504  -0.778  28.877  0.00  0.00    +0.000 A 
ATOM      7  C   UNL A   1     -25.810  -0.853  30.103  0.00  0.00    +0.000 A 
ATOM      8  C   UNL A   1     -26.567  -0.885  31.252  0.00  0.00    +0.000 A 
ATOM      9  C   UNL A   1     -27.941  -0.907  31.185  0.00  0.00    +0.005 A 
ENDBRANCH   1   5
BRANCH   2  10
ATOM     10  C   UNL A   1     -31.717  -0.473  28.327  0.00  0.00    +0.074 A 
ATOM     11  C   UNL A   1     -32.385  -1.566  28.624  0.00  0.00    +0.017 A 
ATOM     12  C   UNL A   1     -32.082   0.382  27.225  0.00  0.00    +0.017 A 
ATOM     13  C   UNL A   1     -33.517  -2.000  27.796  0.00  0.00    +0.001 A 
ATOM     14  C   UNL A   1     -33.221  -0.021  26.457  0.00  0.00    +0.001 A 
ATOM     15  C   UNL A   1     -33.909  -1.185  26.766  0.00  0.00    +0.000 A 
ENDBRANCH   2  10
TORSDOF 2
