MODEL 2946
MODEL 1
REMARK VINA RESULT:    -7.149      0.000      0.000
REMARK INTER + INTRA:          -8.257
REMARK INTER:                  -7.985
REMARK INTRA:                  -0.273
REMARK UNBOUND:                -0.273
REMARK  Name = No_2946-gen_results/8p0m/2024-11-26-14-13-15/
REMARK  2 active torsions:
REMARK  status: ('A' for Active; 'I' for Inactive)
REMARK    1  A    between atoms: C_2  and  C_5
REMARK    2  A    between atoms: N_8  and  C_9
REMARK                            x       y       z     vdW  Elec       q    Type
REMARK                         _______ _______ _______ _____ _____    ______ ____
ROOT
ATOM      1  C   UNL A   1     -23.625  -0.735  28.978  0.00  0.00    +0.269 C 
ATOM      2  N   UNL A   1     -24.655  -1.438  28.699  0.00  0.00    -0.175 NA
ATOM      3  O   UNL A   1     -22.856  -1.007  29.943  0.00  0.00    -0.268 OA
ENDROOT
BRANCH   1   5
ATOM      4  C   UNL A   1     -22.288   0.845  28.168  0.00  0.00    +0.005 A 
ATOM      5  C   UNL A   1     -23.185   0.336  27.953  0.00  0.00    +0.055 A 
ATOM      6  C   UNL A   1     -21.884   1.903  27.166  0.00  0.00    +0.000 A 
ATOM      7  C   UNL A   1     -22.769   2.237  26.119  0.00  0.00    +0.000 A 
ATOM      8  C   UNL A   1     -23.939   1.518  26.033  0.00  0.00    +0.000 A 
ATOM      9  C   UNL A   1     -24.244   0.561  26.973  0.00  0.00    +0.005 A 
ENDBRANCH   1   5
BRANCH   2  10
ATOM     10  C   UNL A   1     -24.819  -2.716  28.908  0.00  0.00    +0.074 A 
ATOM     11  C   UNL A   1     -23.935  -3.593  28.486  0.00  0.00    +0.017 A 
ATOM     12  C   UNL A   1     -26.039  -3.105  29.571  0.00  0.00    +0.017 A 
ATOM     13  C   UNL A   1     -24.183  -5.033  28.624  0.00  0.00    +0.001 A 
ATOM     14  C   UNL A   1     -26.246  -4.511  29.750  0.00  0.00    +0.001 A 
ATOM     15  C   UNL A   1     -25.316  -5.429  29.286  0.00  0.00    +0.000 A 
ENDBRANCH   2  10
TORSDOF 2
ENDMDL
ENDMDL
