MODEL 2947
MODEL 1
REMARK VINA RESULT:    -4.300      0.000      0.000
REMARK INTER + INTRA:          -4.300
REMARK INTER:                  -4.300
REMARK INTRA:                   0.000
REMARK UNBOUND:                 0.000
REMARK  Name = No_2947-gen_results/8p0m/2024-11-26-14-13-15/
REMARK  0 active torsions:
REMARK  status: ('A' for Active; 'I' for Inactive)
REMARK                            x       y       z     vdW  Elec       q    Type
REMARK                         _______ _______ _______ _____ _____    ______ ____
ROOT
ATOM      1  C   UNL A   1     -24.942  -5.397  28.979  0.00  0.00    +0.000 A 
ATOM      2  C   UNL A   1     -24.172  -4.720  28.734  0.00  0.00    +0.000 A 
ATOM      3  C   UNL A   1     -26.103  -4.762  29.603  0.00  0.00    +0.000 A 
ATOM      4  C   UNL A   1     -26.166  -3.408  29.819  0.00  0.00    +0.000 A 
ATOM      5  C   UNL A   1     -23.968  -3.276  28.838  0.00  0.00    +0.000 A 
ATOM      6  C   UNL A   1     -25.086  -2.652  29.441  0.00  0.00    +0.000 A 
ENDROOT
TORSDOF 0
ENDMDL
ENDMDL
