REMARK  Name = No_2948-gen_results/8p0m/2024-11-26-14-13-15/
REMARK  1 active torsions:
REMARK  status: ('A' for Active; 'I' for Inactive)
REMARK    1  A    between atoms: C_6  and  C_8
REMARK                            x       y       z     vdW  Elec       q    Type
REMARK                         _______ _______ _______ _____ _____    ______ ____
ROOT
ATOM      1  C   UNL A   1     -28.016  -0.814  28.878  0.00  0.00    +0.034 A 
ATOM      2  C   UNL A   1     -27.064  -0.119  28.608  0.00  0.00    +0.140 A 
ATOM      3  C   UNL A   1     -25.792  -0.430  29.076  0.00  0.00    +0.030 A 
ATOM      4  C   UNL A   1     -25.576  -1.565  29.936  0.00  0.00    +0.003 A 
ATOM      5  C   UNL A   1     -26.735  -2.300  30.217  0.00  0.00    +0.005 A 
ATOM      6  C   UNL A   1     -27.918  -1.954  29.763  0.00  0.00    +0.057 A 
ATOM      7  F   UNL A   1     -27.135   0.993  27.875  0.00  0.00    -0.204 F 
ENDROOT
BRANCH   6   8
ATOM      8  C   UNL A   1     -29.066  -2.801  30.186  0.00  0.00    +0.265 C 
ATOM      9  O   UNL A   1     -29.006  -4.018  30.305  0.00  0.00    -0.268 OA
ATOM     10  N   UNL A   1     -30.071  -2.151  30.837  0.00  0.00    -0.200 NA
ATOM     11  C   UNL A   1     -31.237  -2.899  31.341  0.00  0.00    +0.139 C 
ENDBRANCH   6   8
TORSDOF 1
