MODEL 2948
MODEL 1
REMARK VINA RESULT:    -5.706      0.000      0.000
REMARK INTER + INTRA:          -6.113
REMARK INTER:                  -6.040
REMARK INTRA:                  -0.073
REMARK UNBOUND:                -0.073
REMARK  Name = No_2948-gen_results/8p0m/2024-11-26-14-13-15/
REMARK  1 active torsions:
REMARK  status: ('A' for Active; 'I' for Inactive)
REMARK    1  A    between atoms: C_6  and  C_8
REMARK                            x       y       z     vdW  Elec       q    Type
REMARK                         _______ _______ _______ _____ _____    ______ ____
ROOT
ATOM      1  C   UNL A   1     -24.155  -4.050  28.741  0.00  0.00    +0.034 A 
ATOM      2  C   UNL A   1     -24.921  -4.951  28.991  0.00  0.00    +0.140 A 
ATOM      3  C   UNL A   1     -26.140  -4.706  29.614  0.00  0.00    +0.030 A 
ATOM      4  C   UNL A   1     -26.508  -3.375  30.024  0.00  0.00    +0.003 A 
ATOM      5  C   UNL A   1     -25.554  -2.396  29.717  0.00  0.00    +0.005 A 
ATOM      6  C   UNL A   1     -24.408  -2.683  29.141  0.00  0.00    +0.057 A 
ATOM      7  F   UNL A   1     -24.677  -6.235  28.723  0.00  0.00    -0.204 F 
ENDROOT
BRANCH   6   8
ATOM      8  C   UNL A   1     -23.471  -1.547  28.923  0.00  0.00    +0.265 C 
ATOM      9  O   UNL A   1     -22.254  -1.645  29.003  0.00  0.00    -0.268 OA
ATOM     10  N   UNL A   1     -23.976  -0.491  28.228  0.00  0.00    -0.200 NA
ATOM     11  C   UNL A   1     -23.123   0.670  27.915  0.00  0.00    +0.139 C 
ENDBRANCH   6   8
TORSDOF 1
ENDMDL
ENDMDL
