REMARK  Name = No_2949-gen_results/8p0m/2024-11-26-14-13-15/
REMARK  2 active torsions:
REMARK  status: ('A' for Active; 'I' for Inactive)
REMARK    1  A    between atoms: C_2  and  C_5
REMARK    2  A    between atoms: C_10  and  C_14
REMARK                            x       y       z     vdW  Elec       q    Type
REMARK                         _______ _______ _______ _____ _____    ______ ____
ROOT
ATOM      1  C   UNL A   1     -28.016  -0.814  28.878  0.00  0.00    +0.002 A 
ATOM      2  C   UNL A   1     -28.469  -0.785  29.829  0.00  0.00    +0.080 A 
ATOM      3  C   UNL A   1     -27.136   0.236  28.535  0.00  0.00    -0.019 A 
ATOM      4  C   UNL A   1     -26.335   0.290  27.284  0.00  0.00    +0.028 C 
ATOM      5  C   UNL A   1     -28.230   0.301  30.904  0.00  0.00    +0.007 A 
ATOM      6  C   UNL A   1     -25.380   1.274  27.067  0.00  0.00    +0.024 C 
ATOM      7  C   UNL A   1     -27.415   1.311  30.614  0.00  0.00    +0.003 A 
ATOM      8  C   UNL A   1     -26.745   1.318  29.404  0.00  0.00    +0.031 A 
ATOM      9  C   UNL A   1     -25.164   2.320  27.982  0.00  0.00    +0.165 C 
ATOM     10  C   UNL A   1     -25.810   2.345  29.104  0.00  0.00    +0.183 C 
ATOM     11  O   UNL A   1     -25.576   3.291  30.067  0.00  0.00    -0.291 OA
ENDROOT
BRANCH   2  12
ATOM     12  C   UNL A   1     -29.381  -1.913  30.355  0.00  0.00    +0.388 C 
ATOM     13  O   UNL A   1     -29.799  -1.881  31.538  0.00  0.00    -0.241 OA
ATOM     14  O   UNL A   1     -29.796  -2.718  29.531  0.00  0.00    -0.241 OA
ENDBRANCH   2  12
BRANCH   9  15
ATOM     15  C   UNL A   1     -24.121   3.328  27.535  0.00  0.00    +0.372 C 
ATOM     16  O   UNL A   1     -24.108   4.351  28.042  0.00  0.00    -0.245 OA
ATOM     17  O   UNL A   1     -23.382   3.049  26.470  0.00  0.00    -0.245 OA
ENDBRANCH   9  15
TORSDOF 2
