MODEL 294
MODEL 1
REMARK VINA RESULT:    -5.742      0.000      0.000
REMARK INTER + INTRA:          -7.942
REMARK INTER:                  -7.756
REMARK INTRA:                  -0.186
REMARK UNBOUND:                -0.186
REMARK  Name = No_294-gen_results/8p0m/2024-11-26-14-13-15/
REMARK  6 active torsions:
REMARK  status: ('A' for Active; 'I' for Inactive)
REMARK    1  A    between atoms: C_1  and  C_2
REMARK    2  A    between atoms: C_1  and  N_8
REMARK    3  A    between atoms: C_5  and  C_14
REMARK    4  A    between atoms: N_8  and  CA_9
REMARK    5  A    between atoms: CA_9  and  C_10
REMARK    6  A    between atoms: CA_9  and  C_13
REMARK                            x       y       z     vdW  Elec       q    Type
REMARK                         _______ _______ _______ _____ _____    ______ ____
ROOT
ATOM      1  C   UNL A   1     -23.466  -0.553  28.626  0.00  0.00    -0.005 A 
ATOM      2  C   UNL A   1     -24.467  -0.315  27.690  0.00  0.00    -0.003 A 
ATOM      3  C   UNL A   1     -24.432   0.708  26.605  0.00  0.00    +0.004 A 
ATOM      4  C   UNL A   1     -23.335   1.618  26.641  0.00  0.00    +0.057 A 
ATOM      5  C   UNL A   1     -22.362   1.396  27.636  0.00  0.00    +0.004 A 
ATOM      6  C   UNL A   1     -22.423   0.421  28.555  0.00  0.00    -0.003 A 
ENDROOT
BRANCH   4   7
ATOM      7  C   UNL A   1     -23.326   2.650  25.625  0.00  0.00    +0.284 C 
ATOM      8  N   UNL A   1     -24.153   3.727  25.728  0.00  0.00    -0.084 NA
ATOM      9  O   UNL A   1     -22.368   2.664  24.807  0.00  0.00    -0.267 OA
ENDBRANCH   4   7
BRANCH   1  10
ATOM     10  C   UNL A   1     -23.588  -1.416  29.464  0.00  0.00    +0.116 C 
BRANCH  10  11
ATOM     11  N   UNL A   1     -23.759  -2.732  28.976  0.00  0.00    -0.197 NA
BRANCH  11  12
ATOM     12  CA  UNL A   1     -24.765  -3.530  29.256  0.00  0.00    +0.241 C 
BRANCH  12  13
ATOM     13  C   UNL A   1     -24.644  -4.841  29.135  0.00  0.00    +0.388 C 
ATOM     14  O   UNL A   1     -25.257  -5.600  29.572  0.00  0.00    -0.244 OA
ATOM     15  O   UNL A   1     -23.756  -5.190  28.083  0.00  0.00    -0.244 OA
ENDBRANCH  12  13
BRANCH  12  16
ATOM     16  C   UNL A   1     -26.114  -2.944  29.578  0.00  0.00    +0.236 C 
ATOM     17  O   UNL A   1     -26.613  -3.076  30.488  0.00  0.00    -0.286 OA
ENDBRANCH  12  16
ENDBRANCH  11  12
ENDBRANCH  10  11
ENDBRANCH   1  10
TORSDOF 6
ENDMDL
ENDMDL
