REMARK  Name = No_295-gen_results/8p0m/2024-11-26-14-13-15/
REMARK  6 active torsions:
REMARK  status: ('A' for Active; 'I' for Inactive)
REMARK    1  A    between atoms: C_3  and  C_4
REMARK    2  A    between atoms: C_4  and  C_8
REMARK    3  A    between atoms: C_7  and  C_14
REMARK    4  A    between atoms: C_14  and  C_17
REMARK    5  A    between atoms: C_15  and  C_16
REMARK    6  A    between atoms: C_16  and  C_19
REMARK                            x       y       z     vdW  Elec       q    Type
REMARK                         _______ _______ _______ _____ _____    ______ ____
ROOT
ATOM      1  C   UNL A   1     -28.016  -0.814  28.878  0.00  0.00    -0.004 A 
ATOM      2  C   UNL A   1     -28.469  -0.785  29.829  0.00  0.00    -0.000 A 
ATOM      3  C   UNL A   1     -26.546  -0.876  28.850  0.00  0.00    -0.018 A 
ATOM      4  C   UNL A   1     -27.918  -1.003  31.188  0.00  0.00    -0.000 A 
ATOM      5  C   UNL A   1     -26.531  -1.079  31.246  0.00  0.00    -0.001 A 
ATOM      6  C   UNL A   1     -25.780  -1.046  30.090  0.00  0.00    -0.003 A 
ENDROOT
BRANCH   6   7
ATOM      7  C   UNL A   1     -24.379  -1.196  30.102  0.00  0.00    +0.039 C 
ATOM      8  C   UNL A   1     -23.619  -0.749  30.698  0.00  0.00    -0.024 C 
BRANCH   7   9
ATOM      9  C   UNL A   1     -23.929  -2.515  29.441  0.00  0.00    +0.341 C 
ATOM     10  F   UNL A   1     -24.753  -3.282  28.948  0.00  0.00    -0.193 F 
ATOM     11  F   UNL A   1     -22.950  -2.251  28.595  0.00  0.00    -0.193 F 
ENDBRANCH   7   9
BRANCH   8  12
ATOM     12  C   UNL A   1     -22.118  -0.828  30.586  0.00  0.00    +0.046 C 
BRANCH  12  13
ATOM     13  C   UNL A   1     -21.770  -0.712  29.286  0.00  0.00    +0.114 C 
ATOM     14  N   UNL A   1     -20.576  -0.046  29.119  0.00  0.00    -0.131 NA
ENDBRANCH  12  13
ENDBRANCH   8  12
ENDBRANCH   6   7
BRANCH   3  15
ATOM     15  C   UNL A   1     -25.683  -0.777  27.683  0.00  0.00    +0.053 C 
BRANCH  15  16
ATOM     16  C   UNL A   1     -25.898   0.239  26.745  0.00  0.00    -0.018 A 
ATOM     17  C   UNL A   1     -25.632   1.498  27.038  0.00  0.00    -0.004 A 
ATOM     18  C   UNL A   1     -25.906   2.503  26.140  0.00  0.00    -0.000 A 
ATOM     19  C   UNL A   1     -26.579   2.172  24.974  0.00  0.00    -0.000 A 
ATOM     20  C   UNL A   1     -26.634   0.022  25.556  0.00  0.00    -0.004 A 
ATOM     21  C   UNL A   1     -26.937   0.940  24.715  0.00  0.00    -0.000 A 
ENDBRANCH  15  16
ENDBRANCH   3  15
TORSDOF 6
