REMARK  Name = No_2950-gen_results/8p0m/2024-11-26-14-13-15/
REMARK  8 active torsions:
REMARK  status: ('A' for Active; 'I' for Inactive)
REMARK    1  A    between atoms: C_2  and  C_27
REMARK    2  A    between atoms: C_3  and  C_7
REMARK    3  A    between atoms: N_8  and  C_9
REMARK    4  A    between atoms: C_12  and  C_17
REMARK    5  A    between atoms: C_17  and  C_18
REMARK    6  A    between atoms: C_18  and  C_19
REMARK    7  A    between atoms: C_19  and  C_20
REMARK    8  A    between atoms: C_20  and  C_21
REMARK                            x       y       z     vdW  Elec       q    Type
REMARK                         _______ _______ _______ _____ _____    ______ ____
ROOT
ATOM      1  C   UNL A   1     -25.425   1.664  27.310  0.00  0.00    +0.054 A 
ATOM      2  C   UNL A   1     -24.635   2.795  27.051  0.00  0.00    +0.015 A 
ATOM      3  C   UNL A   1     -24.931   0.699  28.163  0.00  0.00    +0.011 A 
ATOM      4  C   UNL A   1     -23.690   0.898  28.786  0.00  0.00    -0.021 A 
ATOM      5  C   UNL A   1     -22.890   1.897  28.474  0.00  0.00    -0.004 A 
ATOM      6  C   UNL A   1     -23.340   2.894  27.613  0.00  0.00    +0.001 A 
ENDROOT
BRANCH   1   8
ATOM      7  C   UNL A   1     -27.445   0.487  26.773  0.00  0.00    +0.253 C 
ATOM      8  N   UNL A   1     -26.643   1.515  26.578  0.00  0.00    -0.253 N 
ATOM      9  C   UNL A   1     -27.104   2.574  25.759  0.00  0.00    +0.120 C 
ATOM     10  O   UNL A   1     -27.885  -0.021  25.737  0.00  0.00    -0.270 OA
BRANCH   7  13
ATOM     11  C   UNL A   1     -28.016  -0.814  28.878  0.00  0.00    +0.009 A 
ATOM     12  C   UNL A   1     -28.469  -0.785  29.829  0.00  0.00    +0.057 A 
ATOM     13  C   UNL A   1     -28.182   0.428  28.113  0.00  0.00    +0.054 A 
ATOM     14  C   UNL A   1     -28.984   1.415  28.515  0.00  0.00    +0.004 A 
ATOM     15  C   UNL A   1     -29.380   0.138  30.461  0.00  0.00    +0.005 A 
ATOM     16  C   UNL A   1     -29.541   1.274  29.724  0.00  0.00    +0.000 A 
BRANCH  12  17
ATOM     17  C   UNL A   1     -28.338  -2.106  30.815  0.00  0.00    +0.284 C 
ATOM     18  N   UNL A   1     -27.607  -2.977  30.419  0.00  0.00    -0.084 NA
ATOM     19  O   UNL A   1     -28.921  -2.120  31.933  0.00  0.00    -0.267 OA
ENDBRANCH  12  17
ENDBRANCH   7  13
ENDBRANCH   1   8
BRANCH   4  20
ATOM     20  C   UNL A   1     -23.171  -0.287  29.610  0.00  0.00    +0.026 C 
BRANCH  20  21
ATOM     21  C   UNL A   1     -23.921  -0.545  30.736  0.00  0.00    +0.005 C 
BRANCH  21  22
ATOM     22  C   UNL A   1     -25.222  -0.383  30.765  0.00  0.00    +0.005 C 
BRANCH  22  23
ATOM     23  C   UNL A   1     -25.698   0.272  32.074  0.00  0.00    +0.026 C 
BRANCH  23  24
ATOM     24  C   UNL A   1     -25.908   1.703  32.111  0.00  0.00    -0.022 A 
ATOM     25  C   UNL A   1     -26.768   2.209  32.287  0.00  0.00    -0.004 A 
ATOM     26  C   UNL A   1     -26.913   3.718  32.343  0.00  0.00    -0.000 A 
ATOM     27  C   UNL A   1     -25.788   4.457  32.083  0.00  0.00    -0.000 A 
ATOM     28  C   UNL A   1     -24.552   3.769  31.874  0.00  0.00    -0.000 A 
ATOM     29  C   UNL A   1     -24.565   2.348  31.877  0.00  0.00    -0.004 A 
ENDBRANCH  23  24
ENDBRANCH  22  23
ENDBRANCH  21  22
ENDBRANCH  20  21
ENDBRANCH   4  20
TORSDOF 8
