MODEL 2950
MODEL 1
REMARK VINA RESULT:    -7.832      0.000      0.000
REMARK INTER + INTRA:         -13.530
REMARK INTER:                 -11.495
REMARK INTRA:                  -2.035
REMARK UNBOUND:                -2.035
REMARK  Name = No_2950-gen_results/8p0m/2024-11-26-14-13-15/
REMARK  8 active torsions:
REMARK  status: ('A' for Active; 'I' for Inactive)
REMARK    1  A    between atoms: C_2  and  C_27
REMARK    2  A    between atoms: C_3  and  C_7
REMARK    3  A    between atoms: N_8  and  C_9
REMARK    4  A    between atoms: C_12  and  C_17
REMARK    5  A    between atoms: C_17  and  C_18
REMARK    6  A    between atoms: C_18  and  C_19
REMARK    7  A    between atoms: C_19  and  C_20
REMARK    8  A    between atoms: C_20  and  C_21
REMARK                            x       y       z     vdW  Elec       q    Type
REMARK                         _______ _______ _______ _____ _____    ______ ____
ROOT
ATOM      1  C   UNL A   1     -23.454   2.033  28.159  0.00  0.00    +0.054 A 
ATOM      2  C   UNL A   1     -22.255   1.629  27.551  0.00  0.00    +0.015 A 
ATOM      3  C   UNL A   1     -23.822   1.436  29.347  0.00  0.00    +0.011 A 
ATOM      4  C   UNL A   1     -22.970   0.492  29.938  0.00  0.00    -0.021 A 
ATOM      5  C   UNL A   1     -21.899   0.023  29.332  0.00  0.00    -0.004 A 
ATOM      6  C   UNL A   1     -21.488   0.588  28.128  0.00  0.00    +0.001 A 
ENDROOT
BRANCH   1   8
ATOM      7  C   UNL A   1     -24.463   2.861  26.146  0.00  0.00    +0.253 C 
ATOM      8  N   UNL A   1     -24.289   2.951  27.450  0.00  0.00    -0.253 N 
ATOM      9  C   UNL A   1     -25.097   3.864  28.169  0.00  0.00    +0.120 C 
ATOM     10  O   UNL A   1     -24.410   3.940  25.548  0.00  0.00    -0.270 OA
BRANCH   7  13
ATOM     11  C   UNL A   1     -26.608   1.954  25.134  0.00  0.00    +0.009 A 
ATOM     12  C   UNL A   1     -27.094   1.118  24.716  0.00  0.00    +0.057 A 
ATOM     13  C   UNL A   1     -25.261   1.659  25.635  0.00  0.00    +0.054 A 
ATOM     14  C   UNL A   1     -24.784   0.416  25.717  0.00  0.00    +0.004 A 
ATOM     15  C   UNL A   1     -26.796  -0.294  24.706  0.00  0.00    +0.005 A 
ATOM     16  C   UNL A   1     -25.550  -0.551  25.198  0.00  0.00    +0.000 A 
BRANCH  12  17
ATOM     17  C   UNL A   1     -28.610   1.309  24.083  0.00  0.00    +0.284 C 
ATOM     18  N   UNL A   1     -28.924   2.442  23.825  0.00  0.00    -0.084 NA
ATOM     19  O   UNL A   1     -29.322   0.299  23.833  0.00  0.00    -0.267 OA
ENDBRANCH  12  17
ENDBRANCH   7  13
ENDBRANCH   1   8
BRANCH   4  20
ATOM     20  C   UNL A   1     -23.528  -0.207  31.184  0.00  0.00    +0.026 C 
BRANCH  20  21
ATOM     21  C   UNL A   1     -24.882  -0.021  31.360  0.00  0.00    +0.005 C 
BRANCH  21  22
ATOM     22  C   UNL A   1     -25.720  -1.024  31.465  0.00  0.00    +0.005 C 
BRANCH  22  23
ATOM     23  C   UNL A   1     -26.153  -1.568  30.091  0.00  0.00    +0.026 C 
BRANCH  23  24
ATOM     24  C   UNL A   1     -25.805  -2.925  29.728  0.00  0.00    -0.022 A 
ATOM     25  C   UNL A   1     -26.338  -3.773  29.878  0.00  0.00    -0.004 A 
ATOM     26  C   UNL A   1     -25.928  -5.167  29.442  0.00  0.00    -0.000 A 
ATOM     27  C   UNL A   1     -24.704  -5.290  28.837  0.00  0.00    -0.000 A 
ATOM     28  C   UNL A   1     -23.950  -4.103  28.574  0.00  0.00    -0.000 A 
ATOM     29  C   UNL A   1     -24.476  -2.860  29.018  0.00  0.00    -0.004 A 
ENDBRANCH  23  24
ENDBRANCH  22  23
ENDBRANCH  21  22
ENDBRANCH  20  21
ENDBRANCH   4  20
TORSDOF 8
ENDMDL
ENDMDL
