REMARK  Name = No_2951-gen_results/8p0m/2024-11-26-14-13-15/
REMARK  4 active torsions:
REMARK  status: ('A' for Active; 'I' for Inactive)
REMARK    1  A    between atoms: C_1  and  C_2
REMARK    2  A    between atoms: C_1  and  C_4
REMARK    3  A    between atoms: C_4  and  C_5
REMARK    4  A    between atoms: C_5  and  C_6
REMARK                            x       y       z     vdW  Elec       q    Type
REMARK                         _______ _______ _______ _____ _____    ______ ____
ROOT
ATOM      1  C   UNL A   1     -27.342   1.499  30.437  0.00  0.00    -0.026 A 
ATOM      2  C   UNL A   1     -26.130   1.185  31.282  0.00  0.00    -0.005 A 
ATOM      3  C   UNL A   1     -27.667   3.000  30.761  0.00  0.00    -0.026 A 
ATOM      4  C   UNL A   1     -28.381   3.685  30.064  0.00  0.00    +0.031 C 
ATOM      5  C   UNL A   1     -26.964   3.498  31.966  0.00  0.00    -0.005 A 
ATOM      6  C   UNL A   1     -25.938   3.011  32.691  0.00  0.00    -0.000 A 
ATOM      7  C   UNL A   1     -25.556   1.738  32.397  0.00  0.00    -0.000 A 
ENDROOT
BRANCH   1   8
ATOM      8  C   UNL A   1     -28.550   0.636  30.741  0.00  0.00    +0.026 C 
BRANCH   8   9
ATOM      9  C   UNL A   1     -28.337  -0.677  30.344  0.00  0.00    +0.006 C 
BRANCH   9  10
ATOM     10  C   UNL A   1     -28.016  -0.814  28.878  0.00  0.00    +0.018 C 
BRANCH  10  11
ATOM     11  C   UNL A   1     -27.064  -0.119  28.608  0.00  0.00    +0.095 C 
ATOM     12 CL   UNL A   1     -26.953   1.349  28.838  0.00  0.00    -0.114 Cl
ENDBRANCH  10  11
ENDBRANCH   9  10
ENDBRANCH   8   9
ENDBRANCH   1   8
TORSDOF 4
