MODEL 2951
MODEL 1
REMARK VINA RESULT:    -5.308      0.000      0.000
REMARK INTER + INTRA:          -6.933
REMARK INTER:                  -6.549
REMARK INTRA:                  -0.383
REMARK UNBOUND:                -0.383
REMARK  Name = No_2951-gen_results/8p0m/2024-11-26-14-13-15/
REMARK  4 active torsions:
REMARK  status: ('A' for Active; 'I' for Inactive)
REMARK    1  A    between atoms: C_1  and  C_2
REMARK    2  A    between atoms: C_1  and  C_4
REMARK    3  A    between atoms: C_4  and  C_5
REMARK    4  A    between atoms: C_5  and  C_6
REMARK                            x       y       z     vdW  Elec       q    Type
REMARK                         _______ _______ _______ _____ _____    ______ ____
ROOT
ATOM      1  C   UNL A   1     -24.624  -2.261  29.188  0.00  0.00    -0.026 A 
ATOM      2  C   UNL A   1     -23.871  -3.515  28.809  0.00  0.00    -0.005 A 
ATOM      3  C   UNL A   1     -25.924  -2.783  29.896  0.00  0.00    -0.026 A 
ATOM      4  C   UNL A   1     -26.623  -2.081  30.591  0.00  0.00    +0.031 C 
ATOM      5  C   UNL A   1     -26.165  -4.227  29.671  0.00  0.00    -0.005 A 
ATOM      6  C   UNL A   1     -25.389  -5.219  29.193  0.00  0.00    -0.000 A 
ATOM      7  C   UNL A   1     -24.207  -4.833  28.640  0.00  0.00    -0.000 A 
ENDROOT
BRANCH   1   8
ATOM      8  C   UNL A   1     -24.998  -1.383  28.011  0.00  0.00    +0.026 C 
BRANCH   8   9
ATOM      9  C   UNL A   1     -24.396  -0.136  28.108  0.00  0.00    +0.006 C 
BRANCH   9  10
ATOM     10  C   UNL A   1     -23.204  -0.118  29.030  0.00  0.00    +0.018 C 
BRANCH  10  11
ATOM     11  C   UNL A   1     -22.265   0.392  28.464  0.00  0.00    +0.095 C 
ATOM     12 CL   UNL A   1     -22.295   1.652  27.669  0.00  0.00    -0.114 Cl
ENDBRANCH  10  11
ENDBRANCH   9  10
ENDBRANCH   8   9
ENDBRANCH   1   8
TORSDOF 4
ENDMDL
ENDMDL
