MODEL 2952
MODEL 1
REMARK VINA RESULT:    -7.051      0.000      0.000
REMARK INTER + INTRA:          -7.795
REMARK INTER:                  -7.463
REMARK INTRA:                  -0.331
REMARK UNBOUND:                -0.331
REMARK  Name = No_2952-gen_results/8p0m/2024-11-26-14-13-15/
REMARK  1 active torsions:
REMARK  status: ('A' for Active; 'I' for Inactive)
REMARK    1  A    between atoms: C_2  and  C_8
REMARK                            x       y       z     vdW  Elec       q    Type
REMARK                         _______ _______ _______ _____ _____    ______ ____
ROOT
ATOM      1  C   UNL A   1     -24.486  -0.426  27.837  0.00  0.00    +0.001 A 
ATOM      2  C   UNL A   1     -24.116  -1.204  28.686  0.00  0.00    +0.000 A 
ATOM      3  C   UNL A   1     -22.846  -1.241  29.234  0.00  0.00    +0.001 A 
ATOM      4  C   UNL A   1     -21.913  -0.263  28.777  0.00  0.00    +0.011 A 
ATOM      5  C   UNL A   1     -22.401   0.678  27.944  0.00  0.00    +0.058 A 
ATOM      6  C   UNL A   1     -23.674   0.672  27.543  0.00  0.00    +0.011 A 
ATOM      7 CL   UNL A   1     -21.302   1.884  27.463  0.00  0.00    -0.082 Cl
ENDROOT
BRANCH   2   8
ATOM      8  C   UNL A   1     -25.025  -2.422  29.140  0.00  0.00    +0.002 A 
ATOM      9  C   UNL A   1     -25.984  -2.360  29.622  0.00  0.00    +0.000 A 
ATOM     10  C   UNL A   1     -26.810  -3.534  30.044  0.00  0.00    +0.002 A 
ATOM     11  C   UNL A   1     -26.325  -4.810  29.777  0.00  0.00    +0.030 A 
ATOM     12  C   UNL A   1     -25.136  -4.909  29.101  0.00  0.00    +0.140 A 
ATOM     13  C   UNL A   1     -24.403  -3.750  28.711  0.00  0.00    +0.030 A 
ATOM     14  F   UNL A   1     -24.692  -6.105  28.857  0.00  0.00    -0.204 F 
ENDBRANCH   2   8
TORSDOF 1
ENDMDL
ENDMDL
