REMARK  Name = No_2953-gen_results/8p0m/2024-11-26-14-13-15/
REMARK  0 active torsions:
REMARK  status: ('A' for Active; 'I' for Inactive)
REMARK                            x       y       z     vdW  Elec       q    Type
REMARK                         _______ _______ _______ _____ _____    ______ ____
ROOT
ATOM      1  C   UNL A   1     -28.016  -0.814  28.878  0.00  0.00    +0.048 A 
ATOM      2  C   UNL A   1     -28.469  -0.785  29.829  0.00  0.00    +0.015 A 
ATOM      3  C   UNL A   1     -28.182   0.428  28.113  0.00  0.00    -0.008 A 
ATOM      4  C   UNL A   1     -27.450   0.643  26.850  0.00  0.00    +0.032 C 
ATOM      5  C   UNL A   1     -26.181   0.036  26.715  0.00  0.00    +0.032 C 
ATOM      6  C   UNL A   1     -25.299   0.187  27.550  0.00  0.00    -0.009 A 
ATOM      7  C   UNL A   1     -23.903   0.211  27.289  0.00  0.00    -0.007 A 
ATOM      8  C   UNL A   1     -23.035   0.110  28.507  0.00  0.00    -0.022 A 
ATOM      9  C   UNL A   1     -21.649   0.286  28.439  0.00  0.00    +0.031 C 
ATOM     10  C   UNL A   1     -29.542   0.048  30.336  0.00  0.00    +0.001 A 
ATOM     11  C   UNL A   1     -29.813   1.140  29.605  0.00  0.00    -0.000 A 
ATOM     12  C   UNL A   1     -29.134   1.379  28.466  0.00  0.00    -0.003 A 
ATOM     13  C   UNL A   1     -23.595  -0.316  29.795  0.00  0.00    -0.003 A 
ATOM     14  C   UNL A   1     -24.950  -0.487  29.925  0.00  0.00    +0.014 A 
ATOM     15  C   UNL A   1     -25.705  -0.311  28.966  0.00  0.00    +0.048 A 
ATOM     16  N   UNL A   1     -27.022  -0.602  29.046  0.00  0.00    -0.286 N 
ATOM     17  C   UNL A   1     -26.598  -1.739  30.007  0.00  0.00    +0.117 C 
ENDROOT
TORSDOF 0
