MODEL 2953
MODEL 1
REMARK VINA RESULT:    -7.311      0.000      0.000
REMARK INTER + INTRA:          -7.311
REMARK INTER:                  -7.311
REMARK INTRA:                   0.000
REMARK UNBOUND:                 0.000
REMARK  Name = No_2953-gen_results/8p0m/2024-11-26-14-13-15/
REMARK  0 active torsions:
REMARK  status: ('A' for Active; 'I' for Inactive)
REMARK                            x       y       z     vdW  Elec       q    Type
REMARK                         _______ _______ _______ _____ _____    ______ ____
ROOT
ATOM      1  C   UNL A   1     -23.096   1.015  28.780  0.00  0.00    +0.048 A 
ATOM      2  C   UNL A   1     -22.167   1.012  28.281  0.00  0.00    +0.015 A 
ATOM      3  C   UNL A   1     -24.224   1.379  27.914  0.00  0.00    -0.008 A 
ATOM      4  C   UNL A   1     -25.615   1.242  28.386  0.00  0.00    +0.032 C 
ATOM      5  C   UNL A   1     -25.896   0.213  29.314  0.00  0.00    +0.032 C 
ATOM      6  C   UNL A   1     -25.581  -0.951  29.104  0.00  0.00    -0.009 A 
ATOM      7  C   UNL A   1     -26.292  -2.097  29.551  0.00  0.00    -0.007 A 
ATOM      8  C   UNL A   1     -25.544  -3.389  29.420  0.00  0.00    -0.022 A 
ATOM      9  C   UNL A   1     -26.160  -4.623  29.657  0.00  0.00    +0.031 C 
ATOM     10  C   UNL A   1     -21.749   1.685  27.067  0.00  0.00    +0.001 A 
ATOM     11  C   UNL A   1     -22.746   2.143  26.294  0.00  0.00    -0.000 A 
ATOM     12  C   UNL A   1     -24.028   1.998  26.684  0.00  0.00    -0.003 A 
ATOM     13  C   UNL A   1     -24.098  -3.398  29.173  0.00  0.00    -0.003 A 
ATOM     14  C   UNL A   1     -23.444  -2.220  28.917  0.00  0.00    +0.014 A 
ATOM     15  C   UNL A   1     -24.051  -1.147  28.915  0.00  0.00    +0.048 A 
ATOM     16  N   UNL A   1     -23.397   0.030  28.794  0.00  0.00    -0.286 N 
ATOM     17  C   UNL A   1     -22.244  -0.660  29.562  0.00  0.00    +0.117 C 
ENDROOT
TORSDOF 0
ENDMDL
ENDMDL
