REMARK  Name = No_2954-gen_results/8p0m/2024-11-26-14-13-15/
REMARK  0 active torsions:
REMARK  status: ('A' for Active; 'I' for Inactive)
REMARK                            x       y       z     vdW  Elec       q    Type
REMARK                         _______ _______ _______ _____ _____    ______ ____
ROOT
ATOM      1  O   UNL A   1     -28.123  -1.335  28.487  0.00  0.00    -0.273 OA
ATOM      2  C   UNL A   1     -27.481  -0.404  28.709  0.00  0.00    +0.242 C 
ATOM      3  C   UNL A   1     -26.380  -0.087  27.939  0.00  0.00    +0.101 C 
ATOM      4  N   UNL A   1     -27.423   0.175  30.055  0.00  0.00    -0.202 NA
ATOM      5  C   UNL A   1     -25.848   1.005  27.994  0.00  0.00    +0.101 C 
ATOM      6  C   UNL A   1     -25.849   1.738  29.295  0.00  0.00    +0.193 C 
ATOM      7  C   UNL A   1     -26.762   1.330  30.236  0.00  0.00    +0.151 C 
ATOM      8  F   UNL A   1     -25.154   2.832  29.441  0.00  0.00    -0.234 F 
ATOM      9 BR   UNL A   1     -24.566   1.466  26.741  0.00  0.00    -0.078 Br
ENDROOT
TORSDOF 0
