MODEL 2955
MODEL 1
REMARK VINA RESULT:    -6.886      0.000      0.000
REMARK INTER + INTRA:          -8.035
REMARK INTER:                  -7.691
REMARK INTRA:                  -0.344
REMARK UNBOUND:                -0.344
REMARK  Name = No_2955-gen_results/8p0m/2024-11-26-14-13-15/
REMARK  2 active torsions:
REMARK  status: ('A' for Active; 'I' for Inactive)
REMARK    1  A    between atoms: C_3  and  N_7
REMARK    2  A    between atoms: C_8  and  C_9
REMARK                            x       y       z     vdW  Elec       q    Type
REMARK                         _______ _______ _______ _____ _____    ______ ____
ROOT
ATOM      1  N   UNL A   1     -23.383  -1.224  30.091  0.00  0.00    -0.175 NA
ATOM      2  C   UNL A   1     -22.534  -0.714  29.090  0.00  0.00    +0.269 C 
ATOM      3  O   UNL A   1     -21.403  -1.202  29.080  0.00  0.00    -0.268 OA
ENDROOT
BRANCH   1   6
ATOM      4  C   UNL A   1     -23.875  -3.378  29.043  0.00  0.00    +0.017 A 
ATOM      5  C   UNL A   1     -24.545  -4.185  28.935  0.00  0.00    +0.001 A 
ATOM      6  C   UNL A   1     -24.328  -2.283  29.851  0.00  0.00    +0.074 A 
ATOM      7  C   UNL A   1     -25.577  -2.186  30.315  0.00  0.00    +0.017 A 
ATOM      8  C   UNL A   1     -25.943  -4.288  29.330  0.00  0.00    +0.000 A 
ATOM      9  C   UNL A   1     -26.383  -3.272  30.060  0.00  0.00    +0.001 A 
ENDBRANCH   1   6
BRANCH   2  10
ATOM     10  C   UNL A   1     -23.018   0.187  28.112  0.00  0.00    +0.055 A 
ATOM     11  C   UNL A   1     -22.228   1.239  27.696  0.00  0.00    +0.005 A 
ATOM     12  C   UNL A   1     -22.674   2.128  26.667  0.00  0.00    +0.000 A 
ATOM     13  C   UNL A   1     -23.886   1.871  25.956  0.00  0.00    +0.000 A 
ATOM     14  C   UNL A   1     -24.657   0.767  26.400  0.00  0.00    +0.000 A 
ATOM     15  C   UNL A   1     -24.239  -0.065  27.396  0.00  0.00    +0.005 A 
ENDBRANCH   2  10
TORSDOF 2
ENDMDL
ENDMDL
