REMARK  Name = No_2955-gen_results/8p0m/2024-11-26-14-13-15/
REMARK  2 active torsions:
REMARK  status: ('A' for Active; 'I' for Inactive)
REMARK    1  A    between atoms: C_3  and  N_7
REMARK    2  A    between atoms: C_8  and  C_9
REMARK                            x       y       z     vdW  Elec       q    Type
REMARK                         _______ _______ _______ _____ _____    ______ ____
ROOT
ATOM      1  N   UNL A   1     -27.496   0.363  26.798  0.00  0.00    -0.175 NA
ATOM      2  C   UNL A   1     -26.428   1.240  26.526  0.00  0.00    +0.269 C 
ATOM      3  O   UNL A   1     -26.748   2.265  25.923  0.00  0.00    -0.268 OA
ENDROOT
BRANCH   1   6
ATOM      4  C   UNL A   1     -28.016  -0.814  28.878  0.00  0.00    +0.017 A 
ATOM      5  C   UNL A   1     -28.469  -0.785  29.829  0.00  0.00    +0.001 A 
ATOM      6  C   UNL A   1     -28.196   0.348  28.055  0.00  0.00    +0.074 A 
ATOM      7  C   UNL A   1     -29.019   1.350  28.378  0.00  0.00    +0.017 A 
ATOM      8  C   UNL A   1     -29.411   0.180  30.378  0.00  0.00    +0.000 A 
ATOM      9  C   UNL A   1     -29.606   1.250  29.619  0.00  0.00    +0.001 A 
ENDBRANCH   1   6
BRANCH   2  10
ATOM     10  C   UNL A   1     -25.132   0.991  27.036  0.00  0.00    +0.055 A 
ATOM     11  C   UNL A   1     -24.129   1.918  26.844  0.00  0.00    +0.005 A 
ATOM     12  C   UNL A   1     -22.826   1.714  27.401  0.00  0.00    +0.000 A 
ATOM     13  C   UNL A   1     -22.572   0.615  28.277  0.00  0.00    +0.000 A 
ATOM     14  C   UNL A   1     -23.636  -0.302  28.466  0.00  0.00    +0.000 A 
ATOM     15  C   UNL A   1     -24.870  -0.116  27.915  0.00  0.00    +0.005 A 
ENDBRANCH   2  10
TORSDOF 2
