REMARK  Name = No_2956-gen_results/8p0m/2024-11-26-14-13-15/
REMARK  3 active torsions:
REMARK  status: ('A' for Active; 'I' for Inactive)
REMARK    1  A    between atoms: C_1  and  C_2
REMARK    2  A    between atoms: C_1  and  N_8
REMARK    3  A    between atoms: C_3  and  C_17
REMARK                            x       y       z     vdW  Elec       q    Type
REMARK                         _______ _______ _______ _____ _____    ______ ____
ROOT
ATOM      1  C   UNL A   1     -27.064  -0.119  28.608  0.00  0.00    -0.001 A 
ATOM      2  C   UNL A   1     -26.972   0.714  27.506  0.00  0.00    +0.065 A 
ATOM      3  C   UNL A   1     -25.820   1.491  27.116  0.00  0.00    +0.008 A 
ATOM      4  C   UNL A   1     -24.656   1.424  27.918  0.00  0.00    +0.037 A 
ATOM      5  C   UNL A   1     -24.711   0.542  29.051  0.00  0.00    +0.032 A 
ATOM      6  C   UNL A   1     -25.804  -0.206  29.388  0.00  0.00    -0.000 A 
ATOM      7  C   UNL A   1     -23.347   1.925  27.725  0.00  0.00    +0.170 A 
ATOM      8  N   UNL A   1     -22.282   1.636  28.395  0.00  0.00    -0.224 NA
ATOM      9  N   UNL A   1     -23.276   2.969  26.790  0.00  0.00    -0.107 NA
ATOM     10  C   UNL A   1     -22.129   0.505  29.033  0.00  0.00    +0.130 A 
ATOM     11  C   UNL A   1     -23.115  -0.296  29.279  0.00  0.00    +0.159 A 
ATOM     12  F   UNL A   1     -23.217  -1.246  30.107  0.00  0.00    -0.203 F 
ENDROOT
BRANCH   2  13
ATOM     13  C   UNL A   1     -28.083   0.894  26.593  0.00  0.00    +0.333 C 
ATOM     14  O   UNL A   1     -28.097   0.802  25.456  0.00  0.00    -0.254 OA
ATOM     15  F   UNL A   1     -29.280   0.902  27.199  0.00  0.00    -0.159 F 
ENDBRANCH   2  13
BRANCH   1  16
ATOM     16  C   UNL A   1     -28.016  -0.814  28.878  0.00  0.00    +0.099 C 
BRANCH  16  17
ATOM     17  N   UNL A   1     -28.723  -0.611  29.988  0.00  0.00    -0.269 NA
ATOM     18  C   UNL A   1     -29.813  -1.411  30.403  0.00  0.00    +0.074 C 
ATOM     19  C   UNL A   1     -30.417  -1.209  31.607  0.00  0.00    +0.034 C 
ATOM     20  C   UNL A   1     -28.467   0.458  30.921  0.00  0.00    +0.074 C 
ATOM     21  C   UNL A   1     -29.087   0.677  32.089  0.00  0.00    +0.034 C 
ATOM     22  C   UNL A   1     -30.099  -0.151  32.453  0.00  0.00    +0.083 C 
ATOM     23 CL   UNL A   1     -30.939   0.034  33.943  0.00  0.00    -0.115 Cl
ENDBRANCH  16  17
ENDBRANCH   1  16
TORSDOF 3
