MODEL 2956
MODEL 1
REMARK VINA RESULT:    -6.724      0.000      0.000
REMARK INTER + INTRA:          -8.660
REMARK INTER:                  -7.904
REMARK INTRA:                  -0.756
REMARK UNBOUND:                -0.756
REMARK  Name = No_2956-gen_results/8p0m/2024-11-26-14-13-15/
REMARK  3 active torsions:
REMARK  status: ('A' for Active; 'I' for Inactive)
REMARK    1  A    between atoms: C_1  and  C_2
REMARK    2  A    between atoms: C_1  and  N_8
REMARK    3  A    between atoms: C_3  and  C_17
REMARK                            x       y       z     vdW  Elec       q    Type
REMARK                         _______ _______ _______ _____ _____    ______ ____
ROOT
ATOM      1  C   UNL A   1     -25.110   0.354  25.992  0.00  0.00    -0.001 A 
ATOM      2  C   UNL A   1     -24.298   1.328  26.546  0.00  0.00    +0.065 A 
ATOM      3  C   UNL A   1     -23.802   1.357  27.902  0.00  0.00    +0.008 A 
ATOM      4  C   UNL A   1     -24.166   0.307  28.778  0.00  0.00    +0.037 A 
ATOM      5  C   UNL A   1     -24.983  -0.735  28.221  0.00  0.00    +0.032 A 
ATOM      6  C   UNL A   1     -25.420  -0.758  26.926  0.00  0.00    -0.000 A 
ATOM      7  C   UNL A   1     -23.729  -0.029  30.081  0.00  0.00    +0.170 A 
ATOM      8  N   UNL A   1     -23.943  -1.124  30.730  0.00  0.00    -0.224 NA
ATOM      9  N   UNL A   1     -23.133   1.040  30.768  0.00  0.00    -0.107 NA
ATOM     10  C   UNL A   1     -24.177  -2.266  30.138  0.00  0.00    +0.130 A 
ATOM     11  C   UNL A   1     -24.485  -2.352  28.884  0.00  0.00    +0.159 A 
ATOM     12  F   UNL A   1     -25.018  -3.293  28.230  0.00  0.00    -0.203 F 
ENDROOT
BRANCH   2  13
ATOM     13  C   UNL A   1     -23.846   2.471  25.778  0.00  0.00    +0.333 C 
ATOM     14  O   UNL A   1     -24.220   3.548  25.811  0.00  0.00    -0.254 OA
ATOM     15  F   UNL A   1     -22.671   2.272  25.161  0.00  0.00    -0.159 F 
ENDBRANCH   2  13
BRANCH   1  16
ATOM     16  C   UNL A   1     -25.458   0.313  24.834  0.00  0.00    +0.099 C 
BRANCH  16  17
ATOM     17  N   UNL A   1     -26.718   0.563  24.486  0.00  0.00    -0.269 NA
ATOM     18  C   UNL A   1     -27.313   1.846  24.489  0.00  0.00    +0.074 C 
ATOM     19  C   UNL A   1     -28.575   2.039  24.013  0.00  0.00    +0.034 C 
ATOM     20  C   UNL A   1     -27.649  -0.450  24.053  0.00  0.00    +0.074 C 
ATOM     21  C   UNL A   1     -28.903  -0.262  23.619  0.00  0.00    +0.034 C 
ATOM     22  C   UNL A   1     -29.405   0.999  23.607  0.00  0.00    +0.083 C 
ATOM     23 CL   UNL A   1     -30.994   1.344  23.045  0.00  0.00    -0.115 Cl
ENDBRANCH  16  17
ENDBRANCH   1  16
TORSDOF 3
ENDMDL
ENDMDL
