MODEL 2957
MODEL 1
REMARK VINA RESULT:    -6.606      0.000      0.000
REMARK INTER + INTRA:          -7.649
REMARK INTER:                  -7.379
REMARK INTRA:                  -0.271
REMARK UNBOUND:                -0.271
REMARK  Name = No_2957-gen_results/8p0m/2024-11-26-14-13-15/
REMARK  2 active torsions:
REMARK  status: ('A' for Active; 'I' for Inactive)
REMARK    1  A    between atoms: C_8  and  O_9
REMARK    2  A    between atoms: O_9  and  C_10
REMARK                            x       y       z     vdW  Elec       q    Type
REMARK                         _______ _______ _______ _____ _____    ______ ____
ROOT
ATOM      1 BR   UNL A   1     -23.830   0.817  30.886  0.00  0.00    -0.046 Br
ATOM      2  C   UNL A   1     -24.138   0.795  29.261  0.00  0.00    +0.069 A 
ATOM      3  C   UNL A   1     -23.782   1.662  28.384  0.00  0.00    +0.009 A 
ATOM      4  C   UNL A   1     -24.067   1.596  26.994  0.00  0.00    -0.004 A 
ATOM      5  C   UNL A   1     -24.742   0.465  26.504  0.00  0.00    -0.019 A 
ATOM      6  C   UNL A   1     -25.085   0.307  25.133  0.00  0.00    +0.031 C 
ATOM      7  C   UNL A   1     -25.052  -0.531  27.385  0.00  0.00    +0.034 A 
ATOM      8  C   UNL A   1     -24.732  -0.369  28.721  0.00  0.00    +0.151 A 
ENDROOT
BRANCH   8   9
ATOM      9  O   UNL A   1     -25.076  -1.386  29.570  0.00  0.00    -0.453 OA
BRANCH   9  10
ATOM     10  C   UNL A   1     -25.133  -2.518  29.430  0.00  0.00    +0.145 A 
ATOM     11  C   UNL A   1     -24.003  -3.134  28.940  0.00  0.00    +0.037 A 
ATOM     12  C   UNL A   1     -23.972  -4.505  28.610  0.00  0.00    +0.003 A 
ATOM     13  C   UNL A   1     -25.052  -5.247  29.012  0.00  0.00    +0.000 A 
ATOM     14  C   UNL A   1     -26.148  -4.696  29.621  0.00  0.00    +0.003 A 
ATOM     15  C   UNL A   1     -26.187  -3.352  29.814  0.00  0.00    +0.037 A 
ENDBRANCH   9  10
ENDBRANCH   8   9
TORSDOF 2
ENDMDL
ENDMDL
