REMARK  Name = No_2957-gen_results/8p0m/2024-11-26-14-13-15/
REMARK  2 active torsions:
REMARK  status: ('A' for Active; 'I' for Inactive)
REMARK    1  A    between atoms: C_8  and  O_9
REMARK    2  A    between atoms: O_9  and  C_10
REMARK                            x       y       z     vdW  Elec       q    Type
REMARK                         _______ _______ _______ _____ _____    ______ ____
ROOT
ATOM      1 BR   UNL A   1     -28.115  -0.626  29.081  0.00  0.00    -0.046 Br
ATOM      2  C   UNL A   1     -26.927   0.455  28.685  0.00  0.00    +0.069 A 
ATOM      3  C   UNL A   1     -25.846   0.704  29.331  0.00  0.00    +0.009 A 
ATOM      4  C   UNL A   1     -24.851   1.641  28.947  0.00  0.00    -0.004 A 
ATOM      5  C   UNL A   1     -25.010   2.321  27.727  0.00  0.00    -0.019 A 
ATOM      6  C   UNL A   1     -24.078   3.287  27.256  0.00  0.00    +0.031 C 
ATOM      7  C   UNL A   1     -26.095   2.015  26.956  0.00  0.00    +0.034 A 
ATOM      8  C   UNL A   1     -27.009   1.087  27.423  0.00  0.00    +0.151 A 
ENDROOT
BRANCH   8   9
ATOM      9  O   UNL A   1     -28.088   0.823  26.624  0.00  0.00    -0.453 OA
BRANCH   9  10
ATOM     10  C   UNL A   1     -29.199   0.690  26.851  0.00  0.00    +0.145 A 
ATOM     11  C   UNL A   1     -30.039   1.690  26.413  0.00  0.00    +0.037 A 
ATOM     12  C   UNL A   1     -31.414   1.714  26.725  0.00  0.00    +0.003 A 
ATOM     13  C   UNL A   1     -31.923   0.575  27.294  0.00  0.00    +0.000 A 
ATOM     14  C   UNL A   1     -31.145  -0.500  27.631  0.00  0.00    +0.003 A 
ATOM     15  C   UNL A   1     -29.805  -0.433  27.421  0.00  0.00    +0.037 A 
ENDBRANCH   9  10
ENDBRANCH   8   9
TORSDOF 2
