MODEL 2958
MODEL 1
REMARK VINA RESULT:    -6.385      0.000      0.000
REMARK INTER + INTRA:          -7.807
REMARK INTER:                  -7.504
REMARK INTRA:                  -0.303
REMARK UNBOUND:                -0.303
REMARK  Name = No_2958-gen_results/8p0m/2024-11-26-14-13-15/
REMARK  3 active torsions:
REMARK  status: ('A' for Active; 'I' for Inactive)
REMARK    1  A    between atoms: C_1  and  C_2
REMARK    2  A    between atoms: C_5  and  C_13
REMARK    3  A    between atoms: C_12  and  O_16
REMARK                            x       y       z     vdW  Elec       q    Type
REMARK                         _______ _______ _______ _____ _____    ______ ____
ROOT
ATOM      1  C   UNL A   1     -24.293  -1.787  28.827  0.00  0.00    +0.003 A 
ATOM      2  C   UNL A   1     -24.897  -1.020  27.844  0.00  0.00    +0.000 A 
ATOM      3  C   UNL A   1     -24.367   0.187  27.257  0.00  0.00    +0.005 A 
ATOM      4  C   UNL A   1     -23.115   0.667  27.709  0.00  0.00    +0.057 A 
ATOM      5  C   UNL A   1     -22.444  -0.071  28.718  0.00  0.00    +0.005 A 
ATOM      6  C   UNL A   1     -23.012  -1.215  29.189  0.00  0.00    +0.000 A 
ENDROOT
BRANCH   1   7
ATOM      7  C   UNL A   1     -24.722  -2.832  29.256  0.00  0.00    +0.034 A 
ATOM      8  C   UNL A   1     -24.221  -4.031  28.572  0.00  0.00    +0.003 A 
ATOM      9  C   UNL A   1     -24.793  -5.296  28.899  0.00  0.00    +0.000 A 
ATOM     10  C   UNL A   1     -25.993  -5.304  29.588  0.00  0.00    +0.003 A 
ATOM     11  C   UNL A   1     -26.686  -4.169  29.961  0.00  0.00    +0.037 A 
ATOM     12  C   UNL A   1     -26.130  -2.941  29.682  0.00  0.00    +0.139 A 
BRANCH  12  13
ATOM     13  O   UNL A   1     -26.811  -1.845  30.013  0.00  0.00    -0.471 OA
ATOM     14  C   UNL A   1     -27.978  -1.741  30.323  0.00  0.00    +0.253 C 
ENDBRANCH  12  13
ENDBRANCH   1   7
BRANCH   4  15
ATOM     15  C   UNL A   1     -22.525   1.890  27.179  0.00  0.00    +0.284 C 
ATOM     16  O   UNL A   1     -21.568   2.419  27.677  0.00  0.00    -0.267 OA
ATOM     17  N   UNL A   1     -23.221   2.610  26.183  0.00  0.00    -0.084 NA
ENDBRANCH   4  15
TORSDOF 3
ENDMDL
ENDMDL
