REMARK  Name = No_2958-gen_results/8p0m/2024-11-26-14-13-15/
REMARK  3 active torsions:
REMARK  status: ('A' for Active; 'I' for Inactive)
REMARK    1  A    between atoms: C_1  and  C_2
REMARK    2  A    between atoms: C_5  and  C_13
REMARK    3  A    between atoms: C_12  and  O_16
REMARK                            x       y       z     vdW  Elec       q    Type
REMARK                         _______ _______ _______ _____ _____    ______ ____
ROOT
ATOM      1  C   UNL A   1     -27.064  -0.119  28.608  0.00  0.00    +0.003 A 
ATOM      2  C   UNL A   1     -26.972   0.714  27.506  0.00  0.00    +0.000 A 
ATOM      3  C   UNL A   1     -25.820   1.491  27.116  0.00  0.00    +0.005 A 
ATOM      4  C   UNL A   1     -24.656   1.424  27.918  0.00  0.00    +0.057 A 
ATOM      5  C   UNL A   1     -24.685   0.590  29.066  0.00  0.00    +0.005 A 
ATOM      6  C   UNL A   1     -25.810  -0.127  29.334  0.00  0.00    +0.000 A 
ENDROOT
BRANCH   1   7
ATOM      7  C   UNL A   1     -28.016  -0.814  28.878  0.00  0.00    +0.034 A 
ATOM      8  C   UNL A   1     -29.244  -0.077  29.201  0.00  0.00    +0.003 A 
ATOM      9  C   UNL A   1     -30.371  -0.803  29.689  0.00  0.00    +0.000 A 
ATOM     10  C   UNL A   1     -30.161  -2.094  30.141  0.00  0.00    +0.003 A 
ATOM     11  C   UNL A   1     -28.930  -2.720  30.172  0.00  0.00    +0.037 A 
ATOM     12  C   UNL A   1     -27.839  -2.043  29.673  0.00  0.00    +0.139 A 
BRANCH  12  13
ATOM     13  O   UNL A   1     -26.646  -2.632  29.731  0.00  0.00    -0.471 OA
ATOM     14  C   UNL A   1     -26.374  -3.768  30.055  0.00  0.00    +0.253 C 
ENDBRANCH  12  13
ENDBRANCH   1   7
BRANCH   4  15
ATOM     15  C   UNL A   1     -23.460   2.196  27.602  0.00  0.00    +0.284 C 
ATOM     16  O   UNL A   1     -23.454   3.083  26.792  0.00  0.00    -0.267 OA
ATOM     17  N   UNL A   1     -22.212   1.755  28.094  0.00  0.00    -0.084 NA
ENDBRANCH   4  15
TORSDOF 3
