MODEL 2959
MODEL 1
REMARK VINA RESULT:    -6.264      0.000      0.000
REMARK INTER + INTRA:          -7.272
REMARK INTER:                  -6.997
REMARK INTRA:                  -0.275
REMARK UNBOUND:                -0.275
REMARK  Name = No_2959-gen_results/8p0m/2024-11-26-14-13-15/
REMARK  2 active torsions:
REMARK  status: ('A' for Active; 'I' for Inactive)
REMARK    1  A    between atoms: C_2  and  C_3
REMARK    2  A    between atoms: C_5  and  C_6
REMARK                            x       y       z     vdW  Elec       q    Type
REMARK                         _______ _______ _______ _____ _____    ______ ____
ROOT
ATOM      1  O   UNL A   1     -11.795 -21.262  22.593  0.00  0.00    -0.264 OA
ATOM      2  C   UNL A   1     -10.849 -21.813  22.251  0.00  0.00    +0.344 C 
ATOM      3  N   UNL A   1     -11.021 -22.636  21.032  0.00  0.00    -0.134 NA
ATOM      4  C   UNL A   1     -12.050 -22.610  20.200  0.00  0.00    +0.272 C 
ATOM      5  O   UNL A   1     -12.553 -23.807  20.112  0.00  0.00    -0.268 OA
ENDROOT
BRANCH   4   6
ATOM      6  C   UNL A   1     -12.388 -21.624  19.398  0.00  0.00    +0.057 A 
ATOM      7  C   UNL A   1     -11.753 -21.366  18.192  0.00  0.00    +0.005 A 
ATOM      8  C   UNL A   1     -12.048 -20.239  17.303  0.00  0.00    +0.002 A 
ATOM      9  C   UNL A   1     -13.047 -19.358  17.738  0.00  0.00    +0.018 A 
ATOM     10  C   UNL A   1     -13.778 -19.629  18.913  0.00  0.00    +0.089 A 
ATOM     11  C   UNL A   1     -13.463 -20.666  19.703  0.00  0.00    +0.023 A 
ATOM     12  N   UNL A   1     -14.777 -18.728  19.210  0.00  0.00    -0.128 NA
ENDBRANCH   4   6
BRANCH   2  13
ATOM     13  C   UNL A   1      -9.709 -21.747  22.825  0.00  0.00    +0.472 C 
ATOM     14  F   UNL A   1      -9.195 -21.057  22.287  0.00  0.00    -0.162 F 
ATOM     15  F   UNL A   1      -9.057 -22.942  22.899  0.00  0.00    -0.162 F 
ATOM     16  F   UNL A   1      -9.930 -21.359  24.116  0.00  0.00    -0.162 F 
ENDBRANCH   2  13
TORSDOF 2
ENDMDL
ENDMDL
