REMARK  Name = No_2959-gen_results/8p0m/2024-11-26-14-13-15/
REMARK  2 active torsions:
REMARK  status: ('A' for Active; 'I' for Inactive)
REMARK    1  A    between atoms: C_2  and  C_3
REMARK    2  A    between atoms: C_5  and  C_6
REMARK                            x       y       z     vdW  Elec       q    Type
REMARK                         _______ _______ _______ _____ _____    ______ ____
ROOT
ATOM      1  O   UNL A   1     -28.123  -1.335  28.487  0.00  0.00    -0.264 OA
ATOM      2  C   UNL A   1     -28.521  -0.436  29.078  0.00  0.00    +0.344 C 
ATOM      3  N   UNL A   1     -27.541   0.176  30.005  0.00  0.00    -0.134 NA
ATOM      4  C   UNL A   1     -26.238  -0.053  30.040  0.00  0.00    +0.272 C 
ATOM      5  O   UNL A   1     -25.911  -0.456  31.233  0.00  0.00    -0.268 OA
ENDROOT
BRANCH   4   6
ATOM      6  C   UNL A   1     -25.356   0.285  29.125  0.00  0.00    +0.057 A 
ATOM      7  C   UNL A   1     -24.091  -0.277  29.036  0.00  0.00    +0.005 A 
ATOM      8  C   UNL A   1     -23.052   0.118  28.080  0.00  0.00    +0.002 A 
ATOM      9  C   UNL A   1     -23.387   1.160  27.206  0.00  0.00    +0.018 A 
ATOM     10  C   UNL A   1     -24.689   1.701  27.202  0.00  0.00    +0.089 A 
ATOM     11  C   UNL A   1     -25.603   1.318  28.105  0.00  0.00    +0.023 A 
ATOM     12  N   UNL A   1     -24.922   2.678  26.258  0.00  0.00    -0.128 NA
ENDBRANCH   4   6
BRANCH   2  13
ATOM     13  C   UNL A   1     -29.698   0.051  28.976  0.00  0.00    +0.472 C 
ATOM     14  F   UNL A   1     -29.930  -0.052  27.994  0.00  0.00    -0.162 F 
ATOM     15  F   UNL A   1     -29.802   1.341  29.404  0.00  0.00    -0.162 F 
ATOM     16  F   UNL A   1     -30.510  -0.682  29.795  0.00  0.00    -0.162 F 
ENDBRANCH   2  13
TORSDOF 2
