MODEL 295
MODEL 1
REMARK VINA RESULT:    -7.141      0.000      0.000
REMARK INTER + INTRA:         -11.250
REMARK INTER:                  -9.646
REMARK INTRA:                  -1.604
REMARK UNBOUND:                -1.604
REMARK  Name = No_295-gen_results/8p0m/2024-11-26-14-13-15/
REMARK  6 active torsions:
REMARK  status: ('A' for Active; 'I' for Inactive)
REMARK    1  A    between atoms: C_3  and  C_4
REMARK    2  A    between atoms: C_4  and  C_8
REMARK    3  A    between atoms: C_7  and  C_14
REMARK    4  A    between atoms: C_14  and  C_17
REMARK    5  A    between atoms: C_15  and  C_16
REMARK    6  A    between atoms: C_16  and  C_19
REMARK                            x       y       z     vdW  Elec       q    Type
REMARK                         _______ _______ _______ _____ _____    ______ ____
ROOT
ATOM      1  C   UNL A   1     -23.455  -0.533  31.229  0.00  0.00    -0.004 A 
ATOM      2  C   UNL A   1     -23.752   0.366  31.692  0.00  0.00    -0.000 A 
ATOM      3  C   UNL A   1     -23.646  -0.619  29.773  0.00  0.00    -0.018 A 
ATOM      4  C   UNL A   1     -24.148   1.679  31.127  0.00  0.00    -0.000 A 
ATOM      5  C   UNL A   1     -24.342   1.682  29.750  0.00  0.00    -0.001 A 
ATOM      6  C   UNL A   1     -24.079   0.553  29.004  0.00  0.00    -0.003 A 
ENDROOT
BRANCH   6   7
ATOM      7  C   UNL A   1     -24.192   0.540  27.599  0.00  0.00    +0.039 C 
ATOM      8  C   UNL A   1     -25.003   0.307  26.951  0.00  0.00    -0.024 C 
BRANCH   7   9
ATOM      9  C   UNL A   1     -23.105   1.399  26.921  0.00  0.00    +0.341 C 
ATOM     10  F   UNL A   1     -23.240   2.616  26.819  0.00  0.00    -0.193 F 
ATOM     11  F   UNL A   1     -21.933   1.086  27.442  0.00  0.00    -0.193 F 
ENDBRANCH   7   9
BRANCH   8  12
ATOM     12  C   UNL A   1     -25.044   0.167  25.451  0.00  0.00    +0.046 C 
BRANCH  12  13
ATOM     13  C   UNL A   1     -26.331   0.055  25.057  0.00  0.00    +0.114 C 
ATOM     14  N   UNL A   1     -26.926   1.280  24.853  0.00  0.00    -0.131 NA
ENDBRANCH  12  13
ENDBRANCH   8  12
ENDBRANCH   6   7
BRANCH   3  15
ATOM     15  C   UNL A   1     -23.459  -1.789  28.928  0.00  0.00    +0.053 C 
BRANCH  15  16
ATOM     16  C   UNL A   1     -24.348  -2.865  29.027  0.00  0.00    -0.018 A 
ATOM     17  C   UNL A   1     -25.513  -2.727  29.629  0.00  0.00    -0.004 A 
ATOM     18  C   UNL A   1     -26.358  -3.802  29.784  0.00  0.00    -0.000 A 
ATOM     19  C   UNL A   1     -25.900  -5.053  29.401  0.00  0.00    -0.000 A 
ATOM     20  C   UNL A   1     -23.958  -4.192  28.727  0.00  0.00    -0.004 A 
ATOM     21  C   UNL A   1     -24.706  -5.220  28.892  0.00  0.00    -0.000 A 
ENDBRANCH  15  16
ENDBRANCH   3  15
TORSDOF 6
ENDMDL
ENDMDL
