REMARK  Name = No_296-gen_results/8p0m/2024-11-26-14-13-15/
REMARK  5 active torsions:
REMARK  status: ('A' for Active; 'I' for Inactive)
REMARK    1  A    between atoms: C_2  and  C_3
REMARK    2  A    between atoms: C_5  and  C_14
REMARK    3  A    between atoms: C_14  and  O_16
REMARK    4  A    between atoms: O_16  and  C_17
REMARK    5  A    between atoms: C_17  and  C_18
REMARK                            x       y       z     vdW  Elec       q    Type
REMARK                         _______ _______ _______ _____ _____    ______ ____
ROOT
ATOM      1  C   UNL A   1     -31.756  -1.730  30.070  0.00  0.00    +0.261 C 
ATOM      2  C   UNL A   1     -32.656  -1.042  31.130  0.00  0.00    +0.083 C 
ATOM      3  C   UNL A   1     -33.178  -1.780  32.016  0.00  0.00    +0.009 A 
ATOM      4  C   UNL A   1     -32.869  -3.115  32.205  0.00  0.00    -0.003 A 
ATOM      5  C   UNL A   1     -33.020  -3.754  33.410  0.00  0.00    -0.000 A 
ATOM      6  C   UNL A   1     -33.843  -3.085  34.400  0.00  0.00    +0.002 A 
ATOM      7  C   UNL A   1     -34.234  -1.796  34.253  0.00  0.00    +0.029 A 
ATOM      8  C   UNL A   1     -33.810  -1.099  33.163  0.00  0.00    +0.136 A 
ATOM      9  F   UNL A   1     -34.176   0.144  33.051  0.00  0.00    -0.204 F 
ATOM     10  C   UNL A   1     -32.703  -5.193  33.525  0.00  0.00    -0.000 A 
ATOM     11  C   UNL A   1     -32.023  -5.752  32.686  0.00  0.00    -0.000 A 
ATOM     12  C   UNL A   1     -31.516  -5.108  31.512  0.00  0.00    -0.002 A 
ATOM     13  C   UNL A   1     -32.021  -3.824  31.303  0.00  0.00    +0.009 A 
ATOM     14  C   UNL A   1     -31.309  -2.817  30.394  0.00  0.00    +0.189 C 
ATOM     15  O   UNL A   1     -31.162  -3.643  29.166  0.00  0.00    -0.217 OA
ATOM     16  C   UNL A   1     -32.098  -3.105  29.801  0.00  0.00    +0.042 C 
ENDROOT
BRANCH   1  17
ATOM     17  C   UNL A   1     -32.171  -1.441  28.860  0.00  0.00    +0.403 C 
ATOM     18  O   UNL A   1     -31.730  -0.489  28.265  0.00  0.00    -0.242 OA
ATOM     19  O   UNL A   1     -32.962  -2.183  28.210  0.00  0.00    -0.242 OA
ENDBRANCH   1  17
BRANCH   1  20
ATOM     20  O   UNL A   1     -30.514  -1.331  30.444  0.00  0.00    -0.438 OA
BRANCH  20  21
ATOM     21  C   UNL A   1     -29.503  -2.075  30.455  0.00  0.00    +0.342 C 
ATOM     22  O   UNL A   1     -29.621  -3.235  30.680  0.00  0.00    -0.245 OA
BRANCH  21  25
ATOM     23  C   UNL A   1     -28.016  -0.814  28.878  0.00  0.00    +0.007 A 
ATOM     24  C   UNL A   1     -27.064  -0.119  28.608  0.00  0.00    +0.011 A 
ATOM     25  C   UNL A   1     -28.059  -1.396  30.214  0.00  0.00    +0.076 A 
ATOM     26  C   UNL A   1     -27.255  -1.616  30.779  0.00  0.00    +0.007 A 
ATOM     27  C   UNL A   1     -25.816  -0.242  29.389  0.00  0.00    +0.058 A 
ATOM     28  C   UNL A   1     -25.890  -1.047  30.541  0.00  0.00    +0.012 A 
ATOM     29 CL   UNL A   1     -24.265   0.232  28.935  0.00  0.00    -0.082 Cl
BRANCH  24  30
ATOM     30  C   UNL A   1     -27.001   0.691  27.491  0.00  0.00    +0.001 A 
ATOM     31  C   UNL A   1     -27.178   1.904  27.563  0.00  0.00    +0.000 A 
ATOM     32  C   UNL A   1     -26.565   0.119  26.210  0.00  0.00    +0.000 A 
ATOM     33  C   UNL A   1     -27.153   2.810  26.402  0.00  0.00    +0.000 A 
ATOM     34  C   UNL A   1     -26.555   0.837  25.009  0.00  0.00    +0.000 A 
ATOM     35  C   UNL A   1     -26.801   2.233  25.083  0.00  0.00    +0.000 A 
ENDBRANCH  24  30
ENDBRANCH  21  25
ENDBRANCH  20  21
ENDBRANCH   1  20
TORSDOF 5
