REMARK  Name = No_2960-gen_results/8p0m/2024-11-26-14-13-15/
REMARK  2 active torsions:
REMARK  status: ('A' for Active; 'I' for Inactive)
REMARK    1  A    between atoms: N_8  and  C_23
REMARK    2  A    between atoms: N_16  and  C_17
REMARK                            x       y       z     vdW  Elec       q    Type
REMARK                         _______ _______ _______ _____ _____    ______ ____
ROOT
ATOM      1  C   UNL A   1     -28.016  -0.814  28.878  0.00  0.00    +0.006 A 
ATOM      2  C   UNL A   1     -27.064  -0.119  28.608  0.00  0.00    +0.000 A 
ATOM      3  C   UNL A   1     -26.929   1.171  29.008  0.00  0.00    +0.001 A 
ATOM      4  C   UNL A   1     -27.956   1.741  29.784  0.00  0.00    +0.015 A 
ATOM      5  C   UNL A   1     -29.057  -0.327  29.747  0.00  0.00    +0.068 A 
ATOM      6  C   UNL A   1     -30.170  -1.158  30.133  0.00  0.00    +0.254 C 
ATOM      7  C   UNL A   1     -28.977   0.958  30.179  0.00  0.00    +0.060 A 
ATOM      8  N   UNL A   1     -31.174  -1.121  29.587  0.00  0.00    -0.254 N 
ATOM      9  O   UNL A   1     -29.925  -2.098  31.047  0.00  0.00    -0.270 OA
ATOM     10  C   UNL A   1     -31.537  -0.160  28.572  0.00  0.00    +0.068 A 
ATOM     11  C   UNL A   1     -32.204  -0.347  27.627  0.00  0.00    +0.016 A 
ATOM     12  C   UNL A   1     -32.498   0.594  26.559  0.00  0.00    +0.001 A 
ATOM     13  C   UNL A   1     -31.927   1.882  26.711  0.00  0.00    +0.001 A 
ATOM     14  C   UNL A   1     -31.126   2.140  27.781  0.00  0.00    +0.016 A 
ATOM     15  C   UNL A   1     -30.892   1.169  28.684  0.00  0.00    +0.069 A 
ATOM     16  N   UNL A   1     -29.972   1.508  29.641  0.00  0.00    -0.264 N 
ENDROOT
BRANCH  16  17
ATOM     17  C   UNL A   1     -30.540   2.696  30.490  0.00  0.00    +0.056 A 
ATOM     18  C   UNL A   1     -31.422   2.509  31.489  0.00  0.00    +0.015 A 
ATOM     19  C   UNL A   1     -32.098   3.427  31.895  0.00  0.00    +0.001 A 
ATOM     20  C   UNL A   1     -30.055   3.965  30.207  0.00  0.00    +0.015 A 
ATOM     21  C   UNL A   1     -30.647   5.049  30.786  0.00  0.00    +0.001 A 
ATOM     22  C   UNL A   1     -31.696   4.810  31.715  0.00  0.00    +0.000 A 
ENDBRANCH  16  17
BRANCH   8  23
ATOM     23  C   UNL A   1     -32.297  -2.095  29.797  0.00  0.00    +0.099 C 
ATOM     24  C   UNL A   1     -32.358  -2.695  30.955  0.00  0.00    +0.024 C 
ENDBRANCH   8  23
TORSDOF 2
