MODEL 2960
MODEL 1
REMARK VINA RESULT:    -6.951      0.000      0.000
REMARK INTER + INTRA:          -8.130
REMARK INTER:                  -7.764
REMARK INTRA:                  -0.366
REMARK UNBOUND:                -0.366
REMARK  Name = No_2960-gen_results/8p0m/2024-11-26-14-13-15/
REMARK  2 active torsions:
REMARK  status: ('A' for Active; 'I' for Inactive)
REMARK    1  A    between atoms: N_8  and  C_23
REMARK    2  A    between atoms: N_16  and  C_17
REMARK                            x       y       z     vdW  Elec       q    Type
REMARK                         _______ _______ _______ _____ _____    ______ ____
ROOT
ATOM      1  C   UNL A   1     -24.923   1.366  31.625  0.00  0.00    +0.006 A 
ATOM      2  C   UNL A   1     -25.137   2.553  31.707  0.00  0.00    +0.000 A 
ATOM      3  C   UNL A   1     -25.637   3.305  30.694  0.00  0.00    +0.001 A 
ATOM      4  C   UNL A   1     -25.927   2.671  29.471  0.00  0.00    +0.015 A 
ATOM      5  C   UNL A   1     -25.285   0.635  30.437  0.00  0.00    +0.068 A 
ATOM      6  C   UNL A   1     -25.097  -0.791  30.339  0.00  0.00    +0.254 C 
ATOM      7  C   UNL A   1     -25.790   1.334  29.388  0.00  0.00    +0.060 A 
ATOM      8  N   UNL A   1     -24.173  -1.250  29.845  0.00  0.00    -0.254 N 
ATOM      9  O   UNL A   1     -25.965  -1.555  31.005  0.00  0.00    -0.270 OA
ATOM     10  C   UNL A   1     -23.165  -0.516  29.117  0.00  0.00    +0.068 A 
ATOM     11  C   UNL A   1     -22.015  -0.735  29.086  0.00  0.00    +0.016 A 
ATOM     12  C   UNL A   1     -20.987   0.053  28.426  0.00  0.00    +0.001 A 
ATOM     13  C   UNL A   1     -21.453   1.194  27.727  0.00  0.00    +0.001 A 
ATOM     14  C   UNL A   1     -22.779   1.504  27.754  0.00  0.00    +0.016 A 
ATOM     15  C   UNL A   1     -23.630   0.717  28.439  0.00  0.00    +0.069 A 
ATOM     16  N   UNL A   1     -24.910   1.201  28.499  0.00  0.00    -0.264 N 
ENDROOT
BRANCH  16  17
ATOM     17  C   UNL A   1     -25.504   1.241  27.049  0.00  0.00    +0.056 A 
ATOM     18  C   UNL A   1     -25.910   2.385  26.470  0.00  0.00    +0.015 A 
ATOM     19  C   UNL A   1     -26.663   2.363  25.522  0.00  0.00    +0.001 A 
ATOM     20  C   UNL A   1     -25.548   0.043  26.350  0.00  0.00    +0.015 A 
ATOM     21  C   UNL A   1     -26.219  -0.012  25.164  0.00  0.00    +0.001 A 
ATOM     22  C   UNL A   1     -26.783   1.195  24.668  0.00  0.00    +0.000 A 
ENDBRANCH  16  17
BRANCH   8  23
ATOM     23  C   UNL A   1     -23.814  -2.706  29.893  0.00  0.00    +0.099 C 
ATOM     24  C   UNL A   1     -24.194  -3.448  28.888  0.00  0.00    +0.024 C 
ENDBRANCH   8  23
TORSDOF 2
ENDMDL
ENDMDL
