MODEL 2961
MODEL 1
REMARK VINA RESULT:    -7.552      0.000      0.000
REMARK INTER + INTRA:          -9.737
REMARK INTER:                  -8.877
REMARK INTRA:                  -0.860
REMARK UNBOUND:                -0.860
REMARK  Name = No_2961-gen_results/8p0m/2024-11-26-14-13-15/
REMARK  3 active torsions:
REMARK  status: ('A' for Active; 'I' for Inactive)
REMARK    1  A    between atoms: C_3  and  C_8
REMARK    2  A    between atoms: C_12  and  C_14
REMARK    3  A    between atoms: C_14  and  C_15
REMARK                            x       y       z     vdW  Elec       q    Type
REMARK                         _______ _______ _______ _____ _____    ______ ____
ROOT
ATOM      1  C   UNL A   1     -24.634   0.872  26.951  0.00  0.00    -0.014 A 
ATOM      2  C   UNL A   1     -23.507   1.327  26.798  0.00  0.00    -0.004 A 
ATOM      3  C   UNL A   1     -22.397   0.993  27.665  0.00  0.00    -0.001 A 
ATOM      4  C   UNL A   1     -24.927  -0.072  27.923  0.00  0.00    -0.008 A 
ATOM      5  C   UNL A   1     -23.935  -0.470  28.836  0.00  0.00    -0.018 A 
ATOM      6  C   UNL A   1     -22.679   0.081  28.710  0.00  0.00    -0.004 A 
ENDROOT
BRANCH   1   9
ATOM      7  O   UNL A   1     -25.991   3.264  26.659  0.00  0.00    -0.273 OA
ATOM      8  C   UNL A   1     -26.251   2.312  25.913  0.00  0.00    +0.245 C 
ATOM      9  C   UNL A   1     -25.717   1.149  25.979  0.00  0.00    +0.100 C 
ATOM     10  N   UNL A   1     -27.329   2.430  24.951  0.00  0.00    -0.205 NA
ATOM     11  C   UNL A   1     -25.985   0.024  25.109  0.00  0.00    +0.015 C 
ATOM     12  C   UNL A   1     -27.711   1.402  24.077  0.00  0.00    +0.115 C 
ATOM     13  C   UNL A   1     -27.057   0.184  24.131  0.00  0.00    +0.024 C 
ENDBRANCH   1   9
BRANCH   5  14
ATOM     14  C   UNL A   1     -24.273  -1.393  29.911  0.00  0.00    +0.053 C 
BRANCH  14  15
ATOM     15  C   UNL A   1     -24.713  -2.573  29.545  0.00  0.00    -0.018 A 
ATOM     16  C   UNL A   1     -26.000  -3.034  29.894  0.00  0.00    -0.004 A 
ATOM     17  C   UNL A   1     -26.237  -4.465  29.745  0.00  0.00    -0.000 A 
ATOM     18  C   UNL A   1     -25.300  -5.176  29.010  0.00  0.00    -0.000 A 
ATOM     19  C   UNL A   1     -24.139  -4.725  28.609  0.00  0.00    -0.000 A 
ATOM     20  C   UNL A   1     -23.793  -3.407  28.896  0.00  0.00    -0.004 A 
ENDBRANCH  14  15
ENDBRANCH   5  14
TORSDOF 3
ENDMDL
ENDMDL
