REMARK  Name = No_2961-gen_results/8p0m/2024-11-26-14-13-15/
REMARK  3 active torsions:
REMARK  status: ('A' for Active; 'I' for Inactive)
REMARK    1  A    between atoms: C_3  and  C_8
REMARK    2  A    between atoms: C_12  and  C_14
REMARK    3  A    between atoms: C_14  and  C_15
REMARK                            x       y       z     vdW  Elec       q    Type
REMARK                         _______ _______ _______ _____ _____    ______ ____
ROOT
ATOM      1  C   UNL A   1     -28.169   0.697  30.363  0.00  0.00    -0.014 A 
ATOM      2  C   UNL A   1     -28.712   0.196  31.340  0.00  0.00    -0.004 A 
ATOM      3  C   UNL A   1     -29.953   0.694  31.894  0.00  0.00    -0.001 A 
ATOM      4  C   UNL A   1     -28.742   1.737  29.648  0.00  0.00    -0.008 A 
ATOM      5  C   UNL A   1     -29.943   2.316  30.093  0.00  0.00    -0.018 A 
ATOM      6  C   UNL A   1     -30.531   1.799  31.226  0.00  0.00    -0.004 A 
ENDROOT
BRANCH   1   9
ATOM      7  O   UNL A   1     -28.123  -1.335  28.487  0.00  0.00    -0.273 OA
ATOM      8  C   UNL A   1     -27.064  -0.824  28.869  0.00  0.00    +0.245 C 
ATOM      9  C   UNL A   1     -26.959   0.093  29.758  0.00  0.00    +0.100 C 
ATOM     10  N   UNL A   1     -25.801  -1.357  28.397  0.00  0.00    -0.205 NA
ATOM     11  C   UNL A   1     -25.737   0.724  30.210  0.00  0.00    +0.015 C 
ATOM     12  C   UNL A   1     -24.549  -0.860  28.787  0.00  0.00    +0.115 C 
ATOM     13  C   UNL A   1     -24.483   0.183  29.694  0.00  0.00    +0.024 C 
ENDBRANCH   1   9
BRANCH   5  14
ATOM     14  C   UNL A   1     -30.492   3.467  29.389  0.00  0.00    +0.053 C 
BRANCH  14  15
ATOM     15  C   UNL A   1     -30.745   4.527  30.118  0.00  0.00    -0.018 A 
ATOM     16  C   UNL A   1     -30.236   4.677  31.425  0.00  0.00    -0.004 A 
ATOM     17  C   UNL A   1     -30.863   5.701  32.251  0.00  0.00    -0.000 A 
ATOM     18  C   UNL A   1     -31.678   6.613  31.596  0.00  0.00    -0.000 A 
ATOM     19  C   UNL A   1     -32.084   6.524  30.355  0.00  0.00    -0.000 A 
ATOM     20  C   UNL A   1     -31.652   5.450  29.581  0.00  0.00    -0.004 A 
ENDBRANCH  14  15
ENDBRANCH   5  14
TORSDOF 3
