MODEL 2962
MODEL 1
REMARK VINA RESULT:    -4.302      0.000      0.000
REMARK INTER + INTRA:          -4.302
REMARK INTER:                  -4.302
REMARK INTRA:                   0.000
REMARK UNBOUND:                 0.000
REMARK  Name = No_2962-gen_results/8p0m/2024-11-26-14-13-15/
REMARK  0 active torsions:
REMARK  status: ('A' for Active; 'I' for Inactive)
REMARK                            x       y       z     vdW  Elec       q    Type
REMARK                         _______ _______ _______ _____ _____    ______ ____
ROOT
ATOM      1  C   UNL A   1     -26.137  -4.816  29.638  0.00  0.00    +0.000 A 
ATOM      2  C   UNL A   1     -26.149  -3.765  29.704  0.00  0.00    +0.000 A 
ATOM      3  C   UNL A   1     -24.963  -5.347  28.945  0.00  0.00    +0.000 A 
ATOM      4  C   UNL A   1     -24.065  -4.681  28.643  0.00  0.00    +0.000 A 
ATOM      5  C   UNL A   1     -25.192  -2.722  29.386  0.00  0.00    +0.000 A 
ATOM      6  C   UNL A   1     -24.046  -3.287  28.762  0.00  0.00    +0.000 A 
ENDROOT
TORSDOF 0
ENDMDL
ENDMDL
