MODEL 2963
MODEL 1
REMARK VINA RESULT:    -6.894      0.000      0.000
REMARK INTER + INTRA:          -7.630
REMARK INTER:                  -7.297
REMARK INTRA:                  -0.333
REMARK UNBOUND:                -0.333
REMARK  Name = No_2963-gen_results/8p0m/2024-11-26-14-13-15/
REMARK  1 active torsions:
REMARK  status: ('A' for Active; 'I' for Inactive)
REMARK    1  A    between atoms: C_2  and  C_7
REMARK                            x       y       z     vdW  Elec       q    Type
REMARK                         _______ _______ _______ _____ _____    ______ ____
ROOT
ATOM      1  C   UNL A   1     -23.561  -1.516  28.846  0.00  0.00    +0.001 A 
ATOM      2  C   UNL A   1     -22.665  -1.263  29.268  0.00  0.00    +0.000 A 
ATOM      3  C   UNL A   1     -21.776  -0.063  29.041  0.00  0.00    +0.001 A 
ATOM      4  C   UNL A   1     -22.238   0.906  28.172  0.00  0.00    +0.007 A 
ATOM      5  C   UNL A   1     -23.490   0.734  27.577  0.00  0.00    +0.035 A 
ATOM      6  C   UNL A   1     -24.294  -0.451  27.793  0.00  0.00    +0.007 A 
ATOM      7 BR   UNL A   1     -24.132   2.007  26.347  0.00  0.00    -0.049 Br
ENDROOT
BRANCH   1   9
ATOM      8  C   UNL A   1     -25.621  -2.517  29.556  0.00  0.00    +0.000 A 
ATOM      9  C   UNL A   1     -24.503  -2.637  29.110  0.00  0.00    +0.000 A 
ATOM     10  C   UNL A   1     -23.993  -3.886  28.776  0.00  0.00    +0.000 A 
ATOM     11  C   UNL A   1     -24.763  -5.084  28.995  0.00  0.00    +0.000 A 
ATOM     12  C   UNL A   1     -26.035  -4.856  29.536  0.00  0.00    +0.000 A 
ATOM     13  C   UNL A   1     -26.464  -3.655  29.850  0.00  0.00    +0.000 A 
ENDBRANCH   1   9
TORSDOF 1
ENDMDL
ENDMDL
