MODEL 2964
MODEL 1
REMARK VINA RESULT:    -4.260      0.000      0.000
REMARK INTER + INTRA:          -4.260
REMARK INTER:                  -4.260
REMARK INTRA:                   0.000
REMARK UNBOUND:                 0.000
REMARK  Name = No_2964-gen_results/8p0m/2024-11-26-14-13-15/
REMARK  0 active torsions:
REMARK  status: ('A' for Active; 'I' for Inactive)
REMARK                            x       y       z     vdW  Elec       q    Type
REMARK                         _______ _______ _______ _____ _____    ______ ____
ROOT
ATOM      1  C   UNL A   1     -26.205  -4.739  29.669  0.00  0.00    +0.000 A 
ATOM      2  C   UNL A   1     -26.104  -3.693  29.754  0.00  0.00    +0.000 A 
ATOM      3  C   UNL A   1     -25.076  -5.382  28.997  0.00  0.00    +0.000 A 
ATOM      4  C   UNL A   1     -23.991  -4.670  28.548  0.00  0.00    +0.000 A 
ATOM      5  C   UNL A   1     -25.096  -2.699  29.386  0.00  0.00    +0.000 A 
ATOM      6  C   UNL A   1     -23.999  -3.312  28.736  0.00  0.00    +0.000 A 
ENDROOT
TORSDOF 0
ENDMDL
ENDMDL
