REMARK  Name = No_2965-gen_results/8p0m/2024-11-26-14-13-15/
REMARK  3 active torsions:
REMARK  status: ('A' for Active; 'I' for Inactive)
REMARK    1  A    between atoms: C_6  and  O_8
REMARK    2  A    between atoms: O_8  and  C_9
REMARK    3  A    between atoms: C_9  and  C_10
REMARK                            x       y       z     vdW  Elec       q    Type
REMARK                         _______ _______ _______ _____ _____    ______ ____
ROOT
ATOM      1  O   UNL A   1     -28.998  -2.716  30.116  0.00  0.00    -0.421 OA
ENDROOT
BRANCH   1   7
ATOM      2  C   UNL A   1     -28.016  -0.814  28.878  0.00  0.00    +0.044 A 
ATOM      3  C   UNL A   1     -27.064  -0.119  28.608  0.00  0.00    +0.038 A 
ATOM      4  C   UNL A   1     -25.792  -0.430  29.076  0.00  0.00    +0.007 A 
ATOM      5  C   UNL A   1     -25.576  -1.565  29.936  0.00  0.00    +0.004 A 
ATOM      6  C   UNL A   1     -26.735  -2.300  30.217  0.00  0.00    +0.038 A 
ATOM      7  C   UNL A   1     -27.918  -1.954  29.763  0.00  0.00    +0.149 A 
ATOM      8 BR   UNL A   1     -27.157   1.425  27.535  0.00  0.00    -0.049 Br
ENDBRANCH   1   7
BRANCH   1   9
ATOM      9  C   UNL A   1     -30.105  -2.127  30.611  0.00  0.00    +0.346 C 
ATOM     10  O   UNL A   1     -31.032  -3.115  30.514  0.00  0.00    -0.244 OA
BRANCH   9  11
ATOM     11  C   UNL A   1     -30.215  -1.278  31.200  0.00  0.00    +0.076 A 
ATOM     12  C   UNL A   1     -31.505  -0.647  31.654  0.00  0.00    +0.006 A 
ATOM     13  C   UNL A   1     -31.619   0.512  32.416  0.00  0.00    +0.000 A 
ATOM     14  C   UNL A   1     -30.436   1.140  32.844  0.00  0.00    +0.000 A 
ATOM     15  C   UNL A   1     -29.173   0.644  32.496  0.00  0.00    +0.000 A 
ATOM     16  C   UNL A   1     -29.073  -0.470  31.727  0.00  0.00    +0.006 A 
ENDBRANCH   9  11
ENDBRANCH   1   9
TORSDOF 3
