MODEL 2965
MODEL 1
REMARK VINA RESULT:    -6.811      0.000      0.000
REMARK INTER + INTRA:          -8.477
REMARK INTER:                  -8.005
REMARK INTRA:                  -0.471
REMARK UNBOUND:                -0.471
REMARK  Name = No_2965-gen_results/8p0m/2024-11-26-14-13-15/
REMARK  3 active torsions:
REMARK  status: ('A' for Active; 'I' for Inactive)
REMARK    1  A    between atoms: C_6  and  O_8
REMARK    2  A    between atoms: O_8  and  C_9
REMARK    3  A    between atoms: C_9  and  C_10
REMARK                            x       y       z     vdW  Elec       q    Type
REMARK                         _______ _______ _______ _____ _____    ______ ____
ROOT
ATOM      1  O   UNL A   1     -23.850  -0.460  28.999  0.00  0.00    -0.421 OA
ENDROOT
BRANCH   1   7
ATOM      2  C   UNL A   1     -24.985   0.008  26.853  0.00  0.00    +0.044 A 
ATOM      3  C   UNL A   1     -25.095   0.673  25.849  0.00  0.00    +0.038 A 
ATOM      4  C   UNL A   1     -24.174   1.669  25.543  0.00  0.00    +0.007 A 
ATOM      5  C   UNL A   1     -23.085   1.971  26.436  0.00  0.00    +0.004 A 
ATOM      6  C   UNL A   1     -23.047   1.170  27.584  0.00  0.00    +0.038 A 
ATOM      7  C   UNL A   1     -23.952   0.252  27.836  0.00  0.00    +0.149 A 
ATOM      8 BR   UNL A   1     -26.473   0.453  24.585  0.00  0.00    -0.049 Br
ENDBRANCH   1   7
BRANCH   1   9
ATOM      9  C   UNL A   1     -23.641  -1.792  28.958  0.00  0.00    +0.346 C 
ATOM     10  O   UNL A   1     -22.290  -1.881  29.064  0.00  0.00    -0.244 OA
BRANCH   9  11
ATOM     11  C   UNL A   1     -24.293  -2.585  29.115  0.00  0.00    +0.076 A 
ATOM     12  C   UNL A   1     -25.679  -2.520  29.701  0.00  0.00    +0.006 A 
ATOM     13  C   UNL A   1     -26.517  -3.608  29.930  0.00  0.00    +0.000 A 
ATOM     14  C   UNL A   1     -26.062  -4.883  29.550  0.00  0.00    +0.000 A 
ATOM     15  C   UNL A   1     -24.794  -5.073  28.985  0.00  0.00    +0.000 A 
ATOM     16  C   UNL A   1     -23.973  -4.009  28.793  0.00  0.00    +0.006 A 
ENDBRANCH   9  11
ENDBRANCH   1   9
TORSDOF 3
ENDMDL
ENDMDL
