REMARK  Name = No_2966-gen_results/8p0m/2024-11-26-14-13-15/
REMARK  5 active torsions:
REMARK  status: ('A' for Active; 'I' for Inactive)
REMARK    1  A    between atoms: C_2  and  C_7
REMARK    2  A    between atoms: C_7  and  C_8
REMARK    3  A    between atoms: C_7  and  C_14
REMARK    4  A    between atoms: C_15  and  N_16
REMARK    5  A    between atoms: N_16  and  C_17
REMARK                            x       y       z     vdW  Elec       q    Type
REMARK                         _______ _______ _______ _____ _____    ______ ____
ROOT
ATOM      1  C   UNL A   1     -27.106   1.102  27.759  0.00  0.00    +0.068 C 
ENDROOT
BRANCH   1   3
ATOM      2  C   UNL A   1     -28.016  -0.814  28.878  0.00  0.00    -0.004 A 
ATOM      3  C   UNL A   1     -27.064  -0.119  28.608  0.00  0.00    -0.014 A 
ATOM      4  C   UNL A   1     -25.792  -0.430  29.076  0.00  0.00    -0.004 A 
ATOM      5  C   UNL A   1     -25.576  -1.565  29.936  0.00  0.00    -0.000 A 
ATOM      6  C   UNL A   1     -26.735  -2.300  30.217  0.00  0.00    -0.000 A 
ATOM      7  C   UNL A   1     -27.918  -1.954  29.763  0.00  0.00    -0.000 A 
ENDBRANCH   1   3
BRANCH   1   8
ATOM      8  C   UNL A   1     -27.858   1.531  27.216  0.00  0.00    -0.014 A 
ATOM      9  C   UNL A   1     -27.843   2.721  26.286  0.00  0.00    -0.004 A 
ATOM     10  C   UNL A   1     -28.936   3.286  25.617  0.00  0.00    -0.000 A 
ATOM     11  C   UNL A   1     -30.140   2.621  25.695  0.00  0.00    -0.000 A 
ATOM     12  C   UNL A   1     -30.238   1.494  26.453  0.00  0.00    -0.000 A 
ATOM     13  C   UNL A   1     -29.283   0.999  27.162  0.00  0.00    -0.004 A 
ENDBRANCH   1   8
BRANCH   1  14
ATOM     14  C   UNL A   1     -25.609   1.674  27.604  0.00  0.00    +0.000 C 
ATOM     15  C   UNL A   1     -25.136   2.460  28.587  0.00  0.00    +0.084 C 
BRANCH  15  16
ATOM     16  N   UNL A   1     -25.716   2.797  29.741  0.00  0.00    -0.181 NA
BRANCH  16  17
ATOM     17  C   UNL A   1     -26.219   4.042  29.793  0.00  0.00    +0.268 C 
ATOM     18  C   UNL A   1     -27.030   4.346  30.978  0.00  0.00    +0.322 C 
ATOM     19  F   UNL A   1     -26.138   4.797  28.879  0.00  0.00    -0.181 F 
ATOM     20  F   UNL A   1     -26.764   5.318  31.639  0.00  0.00    -0.168 F 
ATOM     21  F   UNL A   1     -27.125   3.246  31.747  0.00  0.00    -0.168 F 
ENDBRANCH  16  17
ENDBRANCH  15  16
ENDBRANCH   1  14
TORSDOF 5
