MODEL 2966
MODEL 1
REMARK VINA RESULT:    -7.251      0.000      0.000
REMARK INTER + INTRA:         -10.999
REMARK INTER:                  -9.370
REMARK INTRA:                  -1.629
REMARK UNBOUND:                -1.629
REMARK  Name = No_2966-gen_results/8p0m/2024-11-26-14-13-15/
REMARK  5 active torsions:
REMARK  status: ('A' for Active; 'I' for Inactive)
REMARK    1  A    between atoms: C_2  and  C_7
REMARK    2  A    between atoms: C_7  and  C_8
REMARK    3  A    between atoms: C_7  and  C_14
REMARK    4  A    between atoms: C_15  and  N_16
REMARK    5  A    between atoms: N_16  and  C_17
REMARK                            x       y       z     vdW  Elec       q    Type
REMARK                         _______ _______ _______ _____ _____    ______ ____
ROOT
ATOM      1  C   UNL A   1     -24.985  -0.921  28.885  0.00  0.00    +0.068 C 
ENDROOT
BRANCH   1   3
ATOM      2  C   UNL A   1     -23.178   0.523  28.251  0.00  0.00    -0.004 A 
ATOM      3  C   UNL A   1     -24.248   0.020  27.999  0.00  0.00    -0.014 A 
ATOM      4  C   UNL A   1     -24.897   0.277  26.796  0.00  0.00    -0.004 A 
ATOM      5  C   UNL A   1     -24.336   1.189  25.832  0.00  0.00    -0.000 A 
ATOM      6  C   UNL A   1     -23.109   1.744  26.215  0.00  0.00    -0.000 A 
ATOM      7  C   UNL A   1     -22.545   1.481  27.372  0.00  0.00    -0.000 A 
ENDBRANCH   1   3
BRANCH   1   8
ATOM      8  C   UNL A   1     -24.983  -1.940  28.951  0.00  0.00    -0.014 A 
ATOM      9  C   UNL A   1     -23.918  -2.947  28.586  0.00  0.00    -0.004 A 
ATOM     10  C   UNL A   1     -24.013  -4.342  28.655  0.00  0.00    -0.000 A 
ATOM     11  C   UNL A   1     -25.141  -4.873  29.241  0.00  0.00    -0.000 A 
ATOM     12  C   UNL A   1     -26.131  -4.042  29.669  0.00  0.00    -0.000 A 
ATOM     13  C   UNL A   1     -26.125  -2.760  29.534  0.00  0.00    -0.004 A 
ENDBRANCH   1   8
BRANCH   1  14
ATOM     14  C   UNL A   1     -26.071  -0.087  29.732  0.00  0.00    +0.000 C 
ATOM     15  C   UNL A   1     -25.675   0.446  30.902  0.00  0.00    +0.084 C 
BRANCH  15  16
ATOM     16  N   UNL A   1     -24.460   0.443  31.454  0.00  0.00    -0.181 NA
BRANCH  16  17
ATOM     17  C   UNL A   1     -24.212  -0.573  32.298  0.00  0.00    +0.268 C 
ATOM     18  C   UNL A   1     -22.957  -1.296  32.062  0.00  0.00    +0.322 C 
ATOM     19  F   UNL A   1     -25.016  -0.954  33.085  0.00  0.00    -0.181 F 
ATOM     20  F   UNL A   1     -22.182  -1.443  32.974  0.00  0.00    -0.168 F 
ATOM     21  F   UNL A   1     -22.343  -0.783  30.980  0.00  0.00    -0.168 F 
ENDBRANCH  16  17
ENDBRANCH  15  16
ENDBRANCH   1  14
TORSDOF 5
ENDMDL
ENDMDL
