REMARK  Name = No_2967-gen_results/8p0m/2024-11-26-14-13-15/
REMARK  1 active torsions:
REMARK  status: ('A' for Active; 'I' for Inactive)
REMARK    1  A    between atoms: C_2  and  C_13
REMARK                            x       y       z     vdW  Elec       q    Type
REMARK                         _______ _______ _______ _____ _____    ______ ____
ROOT
ATOM      1  C   UNL A   1     -28.016  -0.814  28.878  0.00  0.00    +0.011 A 
ATOM      2  C   UNL A   1     -28.469  -0.785  29.829  0.00  0.00    +0.080 A 
ATOM      3  C   UNL A   1     -26.504  -0.778  28.877  0.00  0.00    +0.051 A 
ATOM      4  C   UNL A   1     -25.654  -0.660  27.719  0.00  0.00    +0.266 C 
ATOM      5  C   UNL A   1     -27.918  -0.937  31.182  0.00  0.00    +0.006 A 
ATOM      6  C   UNL A   1     -26.542  -0.940  31.261  0.00  0.00    -0.004 A 
ATOM      7  C   UNL A   1     -25.783  -0.893  30.120  0.00  0.00    -0.015 A 
ATOM      8  N   UNL A   1     -24.363  -0.503  27.869  0.00  0.00    -0.186 NA
ATOM      9  C   UNL A   1     -23.648  -0.738  29.011  0.00  0.00    +0.178 C 
ATOM     10  C   UNL A   1     -24.392  -0.818  30.207  0.00  0.00    +0.065 C 
ATOM     11 CL   UNL A   1     -21.965  -0.579  29.019  0.00  0.00    -0.091 Cl
ATOM     12  O   UNL A   1     -26.113  -0.494  26.587  0.00  0.00    -0.268 OA
ENDROOT
BRANCH   2  13
ATOM     13  C   UNL A   1     -30.062  -0.849  29.876  0.00  0.00    +0.388 C 
ATOM     14  O   UNL A   1     -30.639  -0.180  29.134  0.00  0.00    -0.241 OA
ATOM     15  O   UNL A   1     -30.672  -1.358  30.925  0.00  0.00    -0.241 OA
ENDBRANCH   2  13
TORSDOF 1
