MODEL 2968
MODEL 1
REMARK VINA RESULT:    -6.473      0.000      0.000
REMARK INTER + INTRA:          -7.176
REMARK INTER:                  -6.851
REMARK INTRA:                  -0.325
REMARK UNBOUND:                -0.325
REMARK  Name = No_2968-gen_results/8p0m/2024-11-26-14-13-15/
REMARK  1 active torsions:
REMARK  status: ('A' for Active; 'I' for Inactive)
REMARK    1  A    between atoms: C_3  and  C_7
REMARK                            x       y       z     vdW  Elec       q    Type
REMARK                         _______ _______ _______ _____ _____    ______ ____
ROOT
ATOM      1  C   UNL A   1     -24.826  -5.019  28.973  0.00  0.00    +0.000 A 
ATOM      2  C   UNL A   1     -24.159  -4.053  28.684  0.00  0.00    +0.000 A 
ATOM      3  C   UNL A   1     -24.524  -2.743  28.992  0.00  0.00    +0.000 A 
ATOM      4  C   UNL A   1     -25.797  -2.499  29.642  0.00  0.00    +0.000 A 
ATOM      5  C   UNL A   1     -26.526  -3.673  29.940  0.00  0.00    +0.000 A 
ATOM      6  C   UNL A   1     -26.103  -4.865  29.604  0.00  0.00    +0.000 A 
ENDROOT
BRANCH   3   7
ATOM      7  C   UNL A   1     -23.751  -1.512  28.680  0.00  0.00    +0.000 A 
ATOM      8  C   UNL A   1     -22.615  -1.244  29.272  0.00  0.00    +0.000 A 
ATOM      9  C   UNL A   1     -21.920  -0.018  29.007  0.00  0.00    +0.000 A 
ATOM     10  C   UNL A   1     -22.447   0.987  28.260  0.00  0.00    +0.000 A 
ATOM     11  C   UNL A   1     -24.343  -0.458  27.878  0.00  0.00    +0.000 A 
ATOM     12  C   UNL A   1     -23.668   0.777  27.684  0.00  0.00    +0.000 A 
ENDBRANCH   3   7
TORSDOF 1
ENDMDL
ENDMDL
