REMARK  Name = No_2969-gen_results/8p0m/2024-11-26-14-13-15/
REMARK  1 active torsions:
REMARK  status: ('A' for Active; 'I' for Inactive)
REMARK    1  A    between atoms: C_4  and  C_8
REMARK                            x       y       z     vdW  Elec       q    Type
REMARK                         _______ _______ _______ _____ _____    ______ ____
ROOT
ATOM      1  O   UNL A   1     -28.123  -1.335  28.487  0.00  0.00    -0.296 OA
ATOM      2  C   UNL A   1     -27.064  -0.824  28.869  0.00  0.00    +0.151 C 
ATOM      3  C   UNL A   1     -25.946  -1.040  28.849  0.00  0.00    +0.069 C 
ATOM      4  C   UNL A   1     -24.760  -0.156  29.164  0.00  0.00    +0.030 C 
ATOM      5  C   UNL A   1     -25.092   1.079  29.649  0.00  0.00    +0.005 C 
ATOM      6  C   UNL A   1     -26.409   1.438  29.707  0.00  0.00    +0.008 C 
ATOM      7  C   UNL A   1     -27.369   0.659  29.415  0.00  0.00    +0.065 C 
ENDROOT
BRANCH   4   8
ATOM      8  C   UNL A   1     -23.356  -0.564  29.121  0.00  0.00    -0.022 A 
ATOM      9  C   UNL A   1     -22.509  -0.222  29.799  0.00  0.00    -0.004 A 
ATOM     10  C   UNL A   1     -21.140  -0.609  29.516  0.00  0.00    -0.000 A 
ATOM     11  C   UNL A   1     -20.531  -0.554  28.217  0.00  0.00    -0.000 A 
ATOM     12  C   UNL A   1     -21.400   0.153  27.307  0.00  0.00    -0.000 A 
ATOM     13  C   UNL A   1     -22.910   0.106  27.678  0.00  0.00    -0.004 A 
ENDBRANCH   4   8
TORSDOF 1
