MODEL 2969
MODEL 1
REMARK VINA RESULT:    -6.603      0.000      0.000
REMARK INTER + INTRA:          -7.323
REMARK INTER:                  -6.989
REMARK INTRA:                  -0.333
REMARK UNBOUND:                -0.333
REMARK  Name = No_2969-gen_results/8p0m/2024-11-26-14-13-15/
REMARK  1 active torsions:
REMARK  status: ('A' for Active; 'I' for Inactive)
REMARK    1  A    between atoms: C_4  and  C_8
REMARK                            x       y       z     vdW  Elec       q    Type
REMARK                         _______ _______ _______ _____ _____    ______ ____
ROOT
ATOM      1  O   UNL A   1     -27.571  -3.395  30.632  0.00  0.00    -0.296 OA
ATOM      2  C   UNL A   1     -26.507  -3.364  30.003  0.00  0.00    +0.151 C 
ATOM      3  C   UNL A   1     -25.684  -2.623  29.736  0.00  0.00    +0.069 C 
ATOM      4  C   UNL A   1     -24.309  -2.840  29.146  0.00  0.00    +0.030 C 
ATOM      5  C   UNL A   1     -24.051  -4.132  28.780  0.00  0.00    +0.005 C 
ATOM      6  C   UNL A   1     -24.973  -5.099  29.063  0.00  0.00    +0.008 C 
ATOM      7  C   UNL A   1     -26.111  -4.865  29.576  0.00  0.00    +0.065 C 
ENDROOT
BRANCH   4   8
ATOM      8  C   UNL A   1     -23.342  -1.789  28.826  0.00  0.00    -0.022 A 
ATOM      9  C   UNL A   1     -22.796  -1.101  29.548  0.00  0.00    -0.004 A 
ATOM     10  C   UNL A   1     -21.987  -0.006  29.048  0.00  0.00    -0.000 A 
ATOM     11  C   UNL A   1     -22.396   0.901  28.013  0.00  0.00    -0.000 A 
ATOM     12  C   UNL A   1     -23.796   0.702  27.723  0.00  0.00    -0.000 A 
ATOM     13  C   UNL A   1     -24.332  -0.723  28.043  0.00  0.00    -0.004 A 
ENDBRANCH   4   8
TORSDOF 1
ENDMDL
ENDMDL
