MODEL 296
MODEL 1
REMARK VINA RESULT:    -7.173      0.000      0.000
REMARK INTER + INTRA:         -10.902
REMARK INTER:                  -9.270
REMARK INTRA:                  -1.632
REMARK UNBOUND:                -1.632
REMARK  Name = No_296-gen_results/8p0m/2024-11-26-14-13-15/
REMARK  5 active torsions:
REMARK  status: ('A' for Active; 'I' for Inactive)
REMARK    1  A    between atoms: C_2  and  C_3
REMARK    2  A    between atoms: C_5  and  C_14
REMARK    3  A    between atoms: C_14  and  O_16
REMARK    4  A    between atoms: O_16  and  C_17
REMARK    5  A    between atoms: C_17  and  C_18
REMARK                            x       y       z     vdW  Elec       q    Type
REMARK                         _______ _______ _______ _____ _____    ______ ____
ROOT
ATOM      1  C   UNL A   1     -27.614 -16.350   7.480  0.00  0.00    +0.261 C 
ATOM      2  C   UNL A   1     -28.788 -15.884   6.579  0.00  0.00    +0.083 C 
ATOM      3  C   UNL A   1     -29.912 -15.710   7.134  0.00  0.00    +0.009 A 
ATOM      4  C   UNL A   1     -30.124 -15.739   8.501  0.00  0.00    -0.003 A 
ATOM      5  C   UNL A   1     -31.159 -15.077   9.112  0.00  0.00    -0.000 A 
ATOM      6  C   UNL A   1     -32.236 -14.624   8.252  0.00  0.00    +0.002 A 
ATOM      7  C   UNL A   1     -32.123 -14.623   6.902  0.00  0.00    +0.029 A 
ATOM      8  C   UNL A   1     -30.949 -15.022   6.339  0.00  0.00    +0.136 A 
ATOM      9  F   UNL A   1     -30.850 -14.992   5.043  0.00  0.00    -0.204 F 
ATOM     10  C   UNL A   1     -31.341 -15.186  10.574  0.00  0.00    -0.000 A 
ATOM     11  C   UNL A   1     -30.439 -15.577  11.289  0.00  0.00    -0.000 A 
ATOM     12  C   UNL A   1     -29.163 -16.005  10.801  0.00  0.00    -0.002 A 
ATOM     13  C   UNL A   1     -29.094 -16.120   9.412  0.00  0.00    +0.009 A 
ATOM     14  C   UNL A   1     -27.753 -16.129   8.670  0.00  0.00    +0.189 C 
ATOM     15  O   UNL A   1     -27.052 -17.202   9.426  0.00  0.00    -0.217 OA
ATOM     16  C   UNL A   1     -28.016 -17.122   8.629  0.00  0.00    +0.042 C 
ENDROOT
BRANCH   1  17
ATOM     17  C   UNL A   1     -27.071 -17.442   6.997  0.00  0.00    +0.403 C 
ATOM     18  O   UNL A   1     -27.754 -18.312   6.516  0.00  0.00    -0.242 OA
ATOM     19  O   UNL A   1     -25.821 -17.605   6.906  0.00  0.00    -0.242 OA
ENDBRANCH   1  17
BRANCH   1  20
ATOM     20  O   UNL A   1     -26.854 -15.229   7.564  0.00  0.00    -0.438 OA
BRANCH  20  21
ATOM     21  C   UNL A   1     -26.942 -14.251   6.782  0.00  0.00    +0.342 C 
ATOM     22  O   UNL A   1     -26.834 -14.415   5.611  0.00  0.00    -0.245 OA
BRANCH  21  25
ATOM     23  C   UNL A   1     -28.347 -12.779   8.247  0.00  0.00    +0.007 A 
ATOM     24  C   UNL A   1     -28.544 -11.802   8.932  0.00  0.00    +0.011 A 
ATOM     25  C   UNL A   1     -27.146 -12.784   7.421  0.00  0.00    +0.076 A 
ATOM     26  C   UNL A   1     -26.687 -11.964   7.057  0.00  0.00    +0.007 A 
ATOM     27  C   UNL A   1     -27.885 -10.523   8.599  0.00  0.00    +0.058 A 
ATOM     28  C   UNL A   1     -26.903 -10.582   7.592  0.00  0.00    +0.012 A 
ATOM     29 CL   UNL A   1     -28.343  -8.973   9.073  0.00  0.00    -0.082 Cl
BRANCH  24  30
ATOM     30  C   UNL A   1     -29.489 -11.752   9.938  0.00  0.00    +0.001 A 
ATOM     31  C   UNL A   1     -30.675 -11.540   9.699  0.00  0.00    +0.000 A 
ATOM     32  C   UNL A   1     -29.102 -12.107  11.310  0.00  0.00    +0.000 A 
ATOM     33  C   UNL A   1     -31.719 -11.444  10.733  0.00  0.00    +0.000 A 
ATOM     34  C   UNL A   1     -29.964 -12.001  12.406  0.00  0.00    +0.000 A 
ATOM     35  C   UNL A   1     -31.328 -11.714  12.137  0.00  0.00    +0.000 A 
ENDBRANCH  24  30
ENDBRANCH  21  25
ENDBRANCH  20  21
ENDBRANCH   1  20
TORSDOF 5
ENDMDL
ENDMDL
