REMARK  Name = No_297-gen_results/8p0m/2024-11-26-14-13-15/
REMARK  1 active torsions:
REMARK  status: ('A' for Active; 'I' for Inactive)
REMARK    1  A    between atoms: C_21  and  C_26
REMARK                            x       y       z     vdW  Elec       q    Type
REMARK                         _______ _______ _______ _____ _____    ______ ____
ROOT
ATOM      1  C   UNL A   1     -28.016  -0.814  28.878  0.00  0.00    +0.019 A 
ATOM      2  C   UNL A   1     -27.064  -0.119  28.608  0.00  0.00    +0.037 A 
ATOM      3  C   UNL A   1     -25.765  -0.390  29.036  0.00  0.00    +0.195 C 
ATOM      4  C   UNL A   1     -24.552   0.406  28.765  0.00  0.00    +0.035 A 
ATOM      5  C   UNL A   1     -23.230   0.118  29.258  0.00  0.00    +0.003 A 
ATOM      6  C   UNL A   1     -22.139   0.943  28.922  0.00  0.00    +0.000 A 
ATOM      7  C   UNL A   1     -29.353  -0.372  28.749  0.00  0.00    +0.071 A 
ATOM      8  C   UNL A   1     -29.544   0.769  27.964  0.00  0.00    +0.068 A 
ATOM      9  C   UNL A   1     -28.469   1.491  27.517  0.00  0.00    +0.002 A 
ATOM     10  C   UNL A   1     -27.134   1.151  27.898  0.00  0.00    -0.015 A 
ATOM     11  C   UNL A   1     -22.272   1.955  27.927  0.00  0.00    -0.000 A 
ATOM     12  C   UNL A   1     -23.553   2.223  27.417  0.00  0.00    -0.004 A 
ATOM     13  C   UNL A   1     -24.640   1.439  27.761  0.00  0.00    -0.015 A 
ATOM     14  C   UNL A   1     -26.010   1.870  27.453  0.00  0.00    +0.045 C 
ATOM     15  O   UNL A   1     -25.456  -1.506  29.702  0.00  0.00    -0.287 OA
ATOM     16  C   UNL A   1     -26.137   3.099  26.648  0.00  0.00    +0.009 C 
ATOM     17  C   UNL A   1     -30.914   1.193  27.639  0.00  0.00    +0.251 C 
ATOM     18  N   UNL A   1     -31.799   1.276  28.364  0.00  0.00    -0.260 N 
ATOM     19  C   UNL A   1     -33.036   1.603  28.203  0.00  0.00    +0.100 C 
ATOM     20  O   UNL A   1     -31.087   1.506  26.429  0.00  0.00    -0.270 OA
ATOM     21  C   UNL A   1     -33.955   1.110  28.981  0.00  0.00    +0.042 C 
ATOM     22  C   UNL A   1     -33.612   0.539  30.169  0.00  0.00    +0.010 C 
ATOM     23  C   UNL A   1     -32.321   0.184  30.494  0.00  0.00    +0.043 C 
ATOM     24  C   UNL A   1     -31.463   0.475  29.641  0.00  0.00    +0.169 C 
ATOM     25  N   UNL A   1     -30.421  -0.609  29.613  0.00  0.00    -0.219 NA
ENDROOT
BRANCH  21  26
ATOM     26  C   UNL A   1     -35.384   1.716  28.821  0.00  0.00    -0.021 A 
ATOM     27  C   UNL A   1     -35.603   2.945  29.102  0.00  0.00    -0.004 A 
ATOM     28  C   UNL A   1     -36.916   3.491  28.872  0.00  0.00    -0.000 A 
ATOM     29  C   UNL A   1     -37.882   2.588  28.409  0.00  0.00    -0.000 A 
ATOM     30  C   UNL A   1     -36.368   0.869  28.380  0.00  0.00    -0.004 A 
ATOM     31  C   UNL A   1     -37.621   1.315  28.162  0.00  0.00    -0.000 A 
ENDBRANCH  21  26
TORSDOF 1
