MODEL 2970
MODEL 1
REMARK VINA RESULT:    -6.648      0.000      0.000
REMARK INTER + INTRA:          -7.883
REMARK INTER:                  -7.425
REMARK INTRA:                  -0.458
REMARK UNBOUND:                -0.458
REMARK  Name = No_2970-gen_results/8p0m/2024-11-26-14-13-15/
REMARK  2 active torsions:
REMARK  status: ('A' for Active; 'I' for Inactive)
REMARK    1  A    between atoms: C_3  and  C_4
REMARK    2  A    between atoms: C_4  and  C_8
REMARK                            x       y       z     vdW  Elec       q    Type
REMARK                         _______ _______ _______ _____ _____    ______ ____
ROOT
ATOM      1  C   UNL A   1     -24.308  -1.249  29.177  0.00  0.00    +0.053 C 
ENDROOT
BRANCH   1   4
ATOM      2  C   UNL A   1     -23.801  -3.718  28.561  0.00  0.00    -0.004 A 
ATOM      3  C   UNL A   1     -24.189  -4.693  28.660  0.00  0.00    -0.000 A 
ATOM      4  C   UNL A   1     -24.678  -2.681  29.103  0.00  0.00    -0.018 A 
ATOM      5  C   UNL A   1     -25.409  -5.264  29.214  0.00  0.00    -0.000 A 
ATOM      6  C   UNL A   1     -26.269  -4.314  29.724  0.00  0.00    -0.000 A 
ATOM      7  C   UNL A   1     -25.906  -3.019  29.729  0.00  0.00    -0.004 A 
ENDBRANCH   1   4
BRANCH   1   8
ATOM      8  C   UNL A   1     -23.686  -0.540  28.501  0.00  0.00    -0.018 A 
ATOM      9  C   UNL A   1     -22.354  -0.176  29.022  0.00  0.00    -0.004 A 
ATOM     10  C   UNL A   1     -21.693   0.809  28.124  0.00  0.00    -0.000 A 
ATOM     11  C   UNL A   1     -22.011   1.506  27.433  0.00  0.00    -0.000 A 
ATOM     12  C   UNL A   1     -23.450   1.359  26.979  0.00  0.00    -0.000 A 
ATOM     13  C   UNL A   1     -24.210   0.328  27.560  0.00  0.00    -0.004 A 
ENDBRANCH   1   8
TORSDOF 2
ENDMDL
ENDMDL
