MODEL 2971
MODEL 1
REMARK VINA RESULT:    -4.368      0.000      0.000
REMARK INTER + INTRA:          -4.368
REMARK INTER:                  -4.368
REMARK INTRA:                   0.000
REMARK UNBOUND:                 0.000
REMARK  Name = No_2971-gen_results/8p0m/2024-11-26-14-13-15/
REMARK  0 active torsions:
REMARK  status: ('A' for Active; 'I' for Inactive)
REMARK                            x       y       z     vdW  Elec       q    Type
REMARK                         _______ _______ _______ _____ _____    ______ ____
ROOT
ATOM      1  C   UNL A   1     -24.919  -5.424  29.005  0.00  0.00    +0.000 A 
ATOM      2  C   UNL A   1     -24.183  -4.756  28.655  0.00  0.00    +0.000 A 
ATOM      3  C   UNL A   1     -26.095  -4.754  29.572  0.00  0.00    +0.000 A 
ATOM      4  C   UNL A   1     -26.136  -3.438  29.787  0.00  0.00    +0.000 A 
ATOM      5  C   UNL A   1     -23.998  -3.332  28.789  0.00  0.00    +0.000 A 
ATOM      6  C   UNL A   1     -25.091  -2.730  29.341  0.00  0.00    +0.000 A 
ENDROOT
TORSDOF 0
ENDMDL
ENDMDL
