REMARK  Name = No_2972-gen_results/8p0m/2024-11-26-14-13-15/
REMARK  3 active torsions:
REMARK  status: ('A' for Active; 'I' for Inactive)
REMARK    1  A    between atoms: C_2  and  C_13
REMARK    2  A    between atoms: C_3  and  C_7
REMARK    3  A    between atoms: C_6  and  C_10
REMARK                            x       y       z     vdW  Elec       q    Type
REMARK                         _______ _______ _______ _____ _____    ______ ____
ROOT
ATOM      1  C   UNL A   1     -28.016  -0.814  28.878  0.00  0.00    +0.009 A 
ATOM      2  C   UNL A   1     -28.469  -0.785  29.829  0.00  0.00    +0.079 A 
ATOM      3  C   UNL A   1     -28.182   0.428  28.113  0.00  0.00    +0.053 A 
ATOM      4  C   UNL A   1     -28.984   1.415  28.515  0.00  0.00    +0.000 A 
ATOM      5  C   UNL A   1     -29.380   0.138  30.461  0.00  0.00    +0.005 A 
ATOM      6  C   UNL A   1     -29.541   1.274  29.724  0.00  0.00    +0.008 A 
ENDROOT
BRANCH   3   7
ATOM      7  C   UNL A   1     -27.445   0.487  26.773  0.00  0.00    +0.350 C 
ATOM      8 CL   UNL A   1     -26.538   1.714  26.390  0.00  0.00    -0.042 Cl
ATOM      9  F   UNL A   1     -28.236  -0.273  25.952  0.00  0.00    -0.182 F 
ATOM     10  F   UNL A   1     -26.296  -0.433  26.953  0.00  0.00    -0.182 F 
ENDBRANCH   3   7
BRANCH   6  11
ATOM     11  C   UNL A   1     -30.463   2.341  30.254  0.00  0.00    +0.181 C 
ATOM     12 CL   UNL A   1     -31.309   2.939  30.066  0.00  0.00    -0.092 Cl
ATOM     13 CL   UNL A   1     -29.300   3.091  31.366  0.00  0.00    -0.092 Cl
ENDBRANCH   6  11
BRANCH   2  14
ATOM     14  C   UNL A   1     -28.270  -2.171  30.774  0.00  0.00    +0.388 C 
ATOM     15  O   UNL A   1     -27.700  -3.100  30.250  0.00  0.00    -0.241 OA
ATOM     16  O   UNL A   1     -28.832  -2.240  31.889  0.00  0.00    -0.241 OA
ENDBRANCH   2  14
TORSDOF 3
