REMARK  Name = No_2973-gen_results/8p0m/2024-11-26-14-13-15/
REMARK  3 active torsions:
REMARK  status: ('A' for Active; 'I' for Inactive)
REMARK    1  A    between atoms: C_2  and  C_3
REMARK    2  A    between atoms: C_3  and  C_4
REMARK    3  A    between atoms: C_4  and  C_5
REMARK                            x       y       z     vdW  Elec       q    Type
REMARK                         _______ _______ _______ _____ _____    ______ ____
ROOT
ATOM      1  C   UNL A   1     -24.656   1.424  27.918  0.00  0.00    -0.022 A 
ATOM      2  C   UNL A   1     -23.460   2.116  27.616  0.00  0.00    -0.004 A 
ATOM      3  C   UNL A   1     -22.363   1.915  28.448  0.00  0.00    -0.000 A 
ATOM      4  C   UNL A   1     -22.414   0.921  29.458  0.00  0.00    -0.000 A 
ATOM      5  C   UNL A   1     -23.553   0.232  29.768  0.00  0.00    -0.000 A 
ATOM      6  C   UNL A   1     -24.676   0.436  28.985  0.00  0.00    -0.004 A 
ENDROOT
BRANCH   1   7
ATOM      7  C   UNL A   1     -25.820   1.491  27.116  0.00  0.00    +0.031 C 
BRANCH   7   8
ATOM      8  C   UNL A   1     -26.972   0.714  27.506  0.00  0.00    +0.031 C 
BRANCH   8  10
ATOM      9  C   UNL A   1     -28.016  -0.814  28.878  0.00  0.00    -0.005 C 
ATOM     10  C   UNL A   1     -27.064  -0.119  28.608  0.00  0.00    -0.026 C 
ENDBRANCH   8  10
ENDBRANCH   7   8
ENDBRANCH   1   7
TORSDOF 3
