MODEL 2973
MODEL 1
REMARK VINA RESULT:    -4.973      0.000      0.000
REMARK INTER + INTRA:          -6.246
REMARK INTER:                  -5.846
REMARK INTRA:                  -0.400
REMARK UNBOUND:                -0.400
REMARK  Name = No_2973-gen_results/8p0m/2024-11-26-14-13-15/
REMARK  3 active torsions:
REMARK  status: ('A' for Active; 'I' for Inactive)
REMARK    1  A    between atoms: C_2  and  C_3
REMARK    2  A    between atoms: C_3  and  C_4
REMARK    3  A    between atoms: C_4  and  C_5
REMARK                            x       y       z     vdW  Elec       q    Type
REMARK                         _______ _______ _______ _____ _____    ______ ____
ROOT
ATOM      1  C   UNL A   1     -24.774  -2.599  29.111  0.00  0.00    -0.022 A 
ATOM      2  C   UNL A   1     -25.966  -3.009  29.753  0.00  0.00    -0.004 A 
ATOM      3  C   UNL A   1     -26.284  -4.363  29.733  0.00  0.00    -0.000 A 
ATOM      4  C   UNL A   1     -25.350  -5.302  29.227  0.00  0.00    -0.000 A 
ATOM      5  C   UNL A   1     -24.188  -4.936  28.607  0.00  0.00    -0.000 A 
ATOM      6  C   UNL A   1     -23.858  -3.592  28.574  0.00  0.00    -0.004 A 
ENDROOT
BRANCH   1   7
ATOM      7  C   UNL A   1     -24.305  -1.264  29.116  0.00  0.00    +0.031 C 
BRANCH   7   8
ATOM      8  C   UNL A   1     -23.157  -0.939  29.928  0.00  0.00    +0.031 C 
BRANCH   8  10
ATOM      9  C   UNL A   1     -23.032  -1.187  32.215  0.00  0.00    -0.005 C 
ATOM     10  C   UNL A   1     -23.181  -0.490  31.238  0.00  0.00    -0.026 C 
ENDBRANCH   8  10
ENDBRANCH   7   8
ENDBRANCH   1   7
TORSDOF 3
ENDMDL
ENDMDL
