MODEL 2974
MODEL 1
REMARK VINA RESULT:    -5.260      0.000      0.000
REMARK INTER + INTRA:          -6.049
REMARK INTER:                  -5.876
REMARK INTRA:                  -0.174
REMARK UNBOUND:                -0.174
REMARK  Name = No_2974-gen_results/8p0m/2024-11-26-14-13-15/
REMARK  2 active torsions:
REMARK  status: ('A' for Active; 'I' for Inactive)
REMARK    1  A    between atoms: C_4  and  C_8
REMARK    2  A    between atoms: C_8  and  C_9
REMARK                            x       y       z     vdW  Elec       q    Type
REMARK                         _______ _______ _______ _____ _____    ______ ____
ROOT
ATOM      1  O   UNL A   1     -27.702  -2.787  30.628  0.00  0.00    -0.296 OA
ATOM      2  C   UNL A   1     -26.603  -2.896  30.071  0.00  0.00    +0.151 C 
ATOM      3  C   UNL A   1     -25.682  -2.263  29.851  0.00  0.00    +0.065 C 
ATOM      4  C   UNL A   1     -24.307  -2.653  29.357  0.00  0.00    +0.012 C 
ATOM      5  C   UNL A   1     -24.182  -3.975  29.026  0.00  0.00    +0.001 C 
ATOM      6  C   UNL A   1     -25.230  -4.820  29.258  0.00  0.00    +0.008 C 
ATOM      7  C   UNL A   1     -26.363  -4.441  29.690  0.00  0.00    +0.065 C 
ENDROOT
BRANCH   4   8
ATOM      8  C   UNL A   1     -23.203  -1.732  29.089  0.00  0.00    +0.026 C 
BRANCH   8   9
ATOM      9  C   UNL A   1     -23.464  -0.528  28.433  0.00  0.00    -0.031 C 
ATOM     10  C   UNL A   1     -22.510   0.473  28.238  0.00  0.00    -0.030 C 
ATOM     11  C   UNL A   1     -22.919   1.727  27.792  0.00  0.00    +0.030 C 
ENDBRANCH   8   9
ENDBRANCH   4   8
TORSDOF 2
ENDMDL
ENDMDL
