MODEL 2975
MODEL 1
REMARK VINA RESULT:    -5.892      0.000      0.000
REMARK INTER + INTRA:          -7.388
REMARK INTER:                  -7.269
REMARK INTRA:                  -0.119
REMARK UNBOUND:                -0.119
REMARK  Name = No_2975-gen_results/8p0m/2024-11-26-14-13-15/
REMARK  4 active torsions:
REMARK  status: ('A' for Active; 'I' for Inactive)
REMARK    1  A    between atoms: C_2  and  C_7
REMARK    2  A    between atoms: N_9  and  C_11
REMARK    3  A    between atoms: C_12  and  C_13
REMARK    4  A    between atoms: C_13  and  C_14
REMARK                            x       y       z     vdW  Elec       q    Type
REMARK                         _______ _______ _______ _____ _____    ______ ____
ROOT
ATOM      1  C   UNL A   1     -24.645  -1.017  29.043  0.00  0.00    +0.253 C 
ATOM      2  O   UNL A   1     -25.156  -0.354  28.328  0.00  0.00    -0.270 OA
ATOM      3  N   UNL A   1     -23.742  -0.520  29.990  0.00  0.00    -0.253 N 
ATOM      4  C   UNL A   1     -23.471   0.873  30.009  0.00  0.00    +0.120 C 
ENDROOT
BRANCH   1   6
ATOM      5  C   UNL A   1     -23.898  -3.157  28.599  0.00  0.00    +0.004 A 
ATOM      6  C   UNL A   1     -24.684  -2.617  29.050  0.00  0.00    +0.054 A 
ATOM      7  C   UNL A   1     -24.034  -4.622  28.575  0.00  0.00    +0.000 A 
ATOM      8  C   UNL A   1     -24.987  -5.172  29.116  0.00  0.00    +0.000 A 
ATOM      9  C   UNL A   1     -25.963  -3.043  29.647  0.00  0.00    +0.004 A 
ATOM     10  C   UNL A   1     -26.067  -4.399  29.685  0.00  0.00    +0.000 A 
ENDBRANCH   1   6
BRANCH   3  11
ATOM     11  C   UNL A   1     -23.061  -1.345  30.976  0.00  0.00    +0.064 C 
ATOM     12  C   UNL A   1     -23.659  -1.464  32.090  0.00  0.00    -0.005 C 
BRANCH  12  13
ATOM     13  C   UNL A   1     -23.973  -0.858  32.892  0.00  0.00    +0.053 C 
BRANCH  13  14
ATOM     14  C   UNL A   1     -25.268  -0.264  33.285  0.00  0.00    -0.026 C 
ATOM     15  C   UNL A   1     -25.534  -0.404  34.653  0.00  0.00    -0.030 C 
ATOM     16  C   UNL A   1     -24.614  -1.049  35.469  0.00  0.00    +0.030 C 
ENDBRANCH  13  14
ENDBRANCH  12  13
ENDBRANCH   3  11
TORSDOF 4
ENDMDL
ENDMDL
