REMARK  Name = No_2975-gen_results/8p0m/2024-11-26-14-13-15/
REMARK  4 active torsions:
REMARK  status: ('A' for Active; 'I' for Inactive)
REMARK    1  A    between atoms: C_2  and  C_7
REMARK    2  A    between atoms: N_9  and  C_11
REMARK    3  A    between atoms: C_12  and  C_13
REMARK    4  A    between atoms: C_13  and  C_14
REMARK                            x       y       z     vdW  Elec       q    Type
REMARK                         _______ _______ _______ _____ _____    ______ ____
ROOT
ATOM      1  C   UNL A   1     -30.066  -0.797  29.941  0.00  0.00    +0.253 C 
ATOM      2  O   UNL A   1     -30.688  -1.627  30.311  0.00  0.00    -0.270 OA
ATOM      3  N   UNL A   1     -30.631   0.345  29.363  0.00  0.00    -0.253 N 
ATOM      4  C   UNL A   1     -32.043   0.419  29.239  0.00  0.00    +0.120 C 
ENDROOT
BRANCH   1   6
ATOM      5  C   UNL A   1     -28.016  -0.814  28.878  0.00  0.00    +0.004 A 
ATOM      6  C   UNL A   1     -28.469  -0.785  29.829  0.00  0.00    +0.054 A 
ATOM      7  C   UNL A   1     -26.546  -0.876  28.850  0.00  0.00    +0.000 A 
ATOM      8  C   UNL A   1     -25.897  -0.827  29.889  0.00  0.00    +0.000 A 
ATOM      9  C   UNL A   1     -27.913  -0.839  31.194  0.00  0.00    +0.004 A 
ATOM     10  C   UNL A   1     -26.552  -0.832  31.177  0.00  0.00    +0.000 A 
ENDBRANCH   1   6
BRANCH   3  11
ATOM     11  C   UNL A   1     -29.860   1.482  28.884  0.00  0.00    +0.064 C 
ATOM     12  C   UNL A   1     -29.967   1.726  27.643  0.00  0.00    -0.005 C 
BRANCH  12  13
ATOM     13  C   UNL A   1     -29.756   1.263  26.721  0.00  0.00    +0.053 C 
BRANCH  13  14
ATOM     14  C   UNL A   1     -29.840   1.696  25.310  0.00  0.00    -0.026 C 
ATOM     15  C   UNL A   1     -30.231   3.035  25.178  0.00  0.00    -0.030 C 
ATOM     16  C   UNL A   1     -30.488   3.790  26.314  0.00  0.00    +0.030 C 
ENDBRANCH  13  14
ENDBRANCH  12  13
ENDBRANCH   3  11
TORSDOF 4
