MODEL 2976
MODEL 1
REMARK VINA RESULT:    -4.348      0.000      0.000
REMARK INTER + INTRA:          -4.348
REMARK INTER:                  -4.348
REMARK INTRA:                   0.000
REMARK UNBOUND:                 0.000
REMARK  Name = No_2976-gen_results/8p0m/2024-11-26-14-13-15/
REMARK  0 active torsions:
REMARK  status: ('A' for Active; 'I' for Inactive)
REMARK                            x       y       z     vdW  Elec       q    Type
REMARK                         _______ _______ _______ _____ _____    ______ ____
ROOT
ATOM      1  C   UNL A   1     -24.178  -4.901  28.628  0.00  0.00    +0.000 A 
ATOM      2  C   UNL A   1     -25.048  -5.289  29.078  0.00  0.00    +0.000 A 
ATOM      3  C   UNL A   1     -24.032  -3.449  28.793  0.00  0.00    +0.000 A 
ATOM      4  C   UNL A   1     -25.000  -2.685  29.302  0.00  0.00    +0.000 A 
ATOM      5  C   UNL A   1     -26.220  -4.676  29.653  0.00  0.00    +0.000 A 
ATOM      6  C   UNL A   1     -26.076  -3.326  29.775  0.00  0.00    +0.000 A 
ENDROOT
TORSDOF 0
ENDMDL
ENDMDL
