MODEL 2977
MODEL 1
REMARK VINA RESULT:    -6.472      0.000      0.000
REMARK INTER + INTRA:          -7.368
REMARK INTER:                  -7.229
REMARK INTRA:                  -0.139
REMARK UNBOUND:                -0.139
REMARK  Name = No_2977-gen_results/8p0m/2024-11-26-14-13-15/
REMARK  2 active torsions:
REMARK  status: ('A' for Active; 'I' for Inactive)
REMARK    1  A    between atoms: C_3  and  C_14
REMARK    2  A    between atoms: C_5  and  C_11
REMARK                            x       y       z     vdW  Elec       q    Type
REMARK                         _______ _______ _______ _____ _____    ______ ____
ROOT
ATOM      1  C   UNL A   1     -30.642  -9.411  29.869  0.00  0.00    +0.000 A 
ATOM      2  C   UNL A   1     -29.973 -10.123  30.582  0.00  0.00    +0.006 A 
ATOM      3  C   UNL A   1     -29.642  -9.849  31.898  0.00  0.00    +0.080 A 
ATOM      4  C   UNL A   1     -28.780 -10.639  32.744  0.00  0.00    +0.013 A 
ATOM      5  C   UNL A   1     -28.188 -11.453  32.332  0.00  0.00    +0.080 A 
ATOM      6  C   UNL A   1     -28.315 -12.002  30.964  0.00  0.00    +0.007 A 
ATOM      7  C   UNL A   1     -29.160 -11.259  30.179  0.00  0.00    +0.000 A 
ATOM      8  C   UNL A   1     -31.054 -10.048  28.562  0.00  0.00    +0.000 A 
ATOM      9  C   UNL A   1     -30.234 -11.005  27.938  0.00  0.00    +0.000 A 
ATOM     10  C   UNL A   1     -29.387 -11.723  28.772  0.00  0.00    +0.000 A 
ENDROOT
BRANCH   5  11
ATOM     11  C   UNL A   1     -27.228 -12.382  33.194  0.00  0.00    +0.388 C 
ATOM     12  O   UNL A   1     -27.204 -12.344  34.429  0.00  0.00    -0.241 OA
ATOM     13  O   UNL A   1     -26.414 -13.141  32.576  0.00  0.00    -0.241 OA
ENDBRANCH   5  11
BRANCH   3  14
ATOM     14  C   UNL A   1     -30.267  -8.594  32.503  0.00  0.00    +0.388 C 
ATOM     15  O   UNL A   1     -31.321  -8.619  33.087  0.00  0.00    -0.241 OA
ATOM     16  O   UNL A   1     -29.574  -7.506  32.464  0.00  0.00    -0.241 OA
ENDBRANCH   3  14
TORSDOF 2
ENDMDL
ENDMDL
