REMARK  Name = No_2977-gen_results/8p0m/2024-11-26-14-13-15/
REMARK  2 active torsions:
REMARK  status: ('A' for Active; 'I' for Inactive)
REMARK    1  A    between atoms: C_3  and  C_14
REMARK    2  A    between atoms: C_5  and  C_11
REMARK                            x       y       z     vdW  Elec       q    Type
REMARK                         _______ _______ _______ _____ _____    ______ ____
ROOT
ATOM      1  C   UNL A   1     -28.016  -0.814  28.878  0.00  0.00    +0.000 A 
ATOM      2  C   UNL A   1     -27.064  -0.119  28.608  0.00  0.00    +0.006 A 
ATOM      3  C   UNL A   1     -26.972   0.714  27.506  0.00  0.00    +0.080 A 
ATOM      4  C   UNL A   1     -25.820   1.491  27.116  0.00  0.00    +0.013 A 
ATOM      5  C   UNL A   1     -24.858   1.342  27.601  0.00  0.00    +0.080 A 
ATOM      6  C   UNL A   1     -24.622   0.529  28.814  0.00  0.00    +0.007 A 
ATOM      7  C   UNL A   1     -25.734  -0.181  29.191  0.00  0.00    +0.000 A 
ATOM      8  C   UNL A   1     -27.960  -1.441  30.252  0.00  0.00    +0.000 A 
ATOM      9  C   UNL A   1     -26.727  -1.770  30.843  0.00  0.00    +0.000 A 
ATOM     10  C   UNL A   1     -25.629  -1.033  30.420  0.00  0.00    +0.000 A 
ENDROOT
BRANCH   5  11
ATOM     11  C   UNL A   1     -23.544   2.165  27.245  0.00  0.00    +0.388 C 
ATOM     12  O   UNL A   1     -22.591   2.260  28.026  0.00  0.00    -0.241 OA
ATOM     13  O   UNL A   1     -23.513   2.796  26.140  0.00  0.00    -0.241 OA
ENDBRANCH   5  11
BRANCH   3  14
ATOM     14  C   UNL A   1     -28.223   0.822  26.636  0.00  0.00    +0.388 C 
ATOM     15  O   UNL A   1     -28.201   0.606  25.450  0.00  0.00    -0.241 OA
ATOM     16  O   UNL A   1     -29.344   1.051  27.232  0.00  0.00    -0.241 OA
ENDBRANCH   3  14
TORSDOF 2
