MODEL 2978
MODEL 1
REMARK VINA RESULT:    -7.546      0.000      0.000
REMARK INTER + INTRA:         -12.111
REMARK INTER:                  -9.310
REMARK INTRA:                  -2.800
REMARK UNBOUND:                -2.800
REMARK  Name = No_2978-gen_results/8p0m/2024-11-26-14-13-15/
REMARK  4 active torsions:
REMARK  status: ('A' for Active; 'I' for Inactive)
REMARK    1  A    between atoms: C_3  and  C_7
REMARK    2  A    between atoms: C_8  and  C_13
REMARK    3  A    between atoms: C_16  and  C_18
REMARK    4  A    between atoms: C_22  and  C_23
REMARK                            x       y       z     vdW  Elec       q    Type
REMARK                         _______ _______ _______ _____ _____    ______ ____
ROOT
ATOM      1  C   UNL A   1     -25.884  -2.246  29.907  0.00  0.00    -0.000 A 
ATOM      2  C   UNL A   1     -24.705  -2.273  29.261  0.00  0.00    -0.000 A 
ATOM      3  C   UNL A   1     -24.290  -3.488  28.556  0.00  0.00    -0.000 A 
ATOM      4  C   UNL A   1     -25.016  -4.583  28.964  0.00  0.00    -0.000 A 
ATOM      5  C   UNL A   1     -26.363  -3.620  30.076  0.00  0.00    -0.000 A 
ATOM      6  C   UNL A   1     -26.105  -4.618  29.616  0.00  0.00    -0.000 A 
ENDROOT
BRANCH   1   9
ATOM      7  C   UNL A   1     -26.186   0.060  32.747  0.00  0.00    +0.058 A 
ATOM      8  C   UNL A   1     -25.803  -0.816  32.006  0.00  0.00    +0.011 A 
ATOM      9  C   UNL A   1     -26.296  -1.057  30.735  0.00  0.00    -0.003 A 
ATOM     10  C   UNL A   1     -27.314  -0.180  30.257  0.00  0.00    -0.022 A 
ATOM     11  C   UNL A   1     -27.608   0.876  31.032  0.00  0.00    -0.003 A 
ATOM     12  C   UNL A   1     -27.059   1.048  32.200  0.00  0.00    +0.011 A 
ATOM     13  C   UNL A   1     -27.821  -0.365  28.874  0.00  0.00    +0.031 C 
ATOM     14 CL   UNL A   1     -25.484   0.107  34.369  0.00  0.00    -0.082 Cl
ENDBRANCH   1   9
BRANCH   2  15
ATOM     15  C   UNL A   1     -23.951  -1.035  28.928  0.00  0.00    -0.000 C 
ATOM     16  C   UNL A   1     -24.117  -0.414  27.759  0.00  0.00    -0.000 C 
ATOM     17  C   UNL A   1     -23.705   0.571  27.376  0.00  0.00    +0.000 C 
ATOM     18  C   UNL A   1     -23.981   1.148  26.074  0.00  0.00    +0.000 C 
ATOM     19  C   UNL A   1     -25.238  -0.767  26.750  0.00  0.00    +0.000 C 
ATOM     20  C   UNL A   1     -24.968   0.295  25.505  0.00  0.00    +0.000 C 
BRANCH  18  21
ATOM     21  C   UNL A   1     -23.317   2.334  25.475  0.00  0.00    +0.000 C 
ATOM     22  C   UNL A   1     -23.788   3.479  25.804  0.00  0.00    +0.000 C 
BRANCH  22  23
ATOM     23  C   UNL A   1     -25.064   3.695  26.307  0.00  0.00    +0.000 A 
ATOM     24  C   UNL A   1     -26.169   3.458  25.877  0.00  0.00    +0.000 A 
ATOM     25  C   UNL A   1     -27.159   2.963  26.269  0.00  0.00    +0.000 A 
ATOM     26  C   UNL A   1     -27.371   3.025  27.791  0.00  0.00    +0.000 A 
ATOM     27  C   UNL A   1     -26.230   3.410  28.474  0.00  0.00    +0.000 A 
ATOM     28  C   UNL A   1     -25.093   3.602  27.776  0.00  0.00    +0.000 A 
ENDBRANCH  22  23
ENDBRANCH  18  21
ENDBRANCH   2  15
TORSDOF 4
ENDMDL
ENDMDL
