REMARK  Name = No_2978-gen_results/8p0m/2024-11-26-14-13-15/
REMARK  4 active torsions:
REMARK  status: ('A' for Active; 'I' for Inactive)
REMARK    1  A    between atoms: C_3  and  C_7
REMARK    2  A    between atoms: C_8  and  C_13
REMARK    3  A    between atoms: C_16  and  C_18
REMARK    4  A    between atoms: C_22  and  C_23
REMARK                            x       y       z     vdW  Elec       q    Type
REMARK                         _______ _______ _______ _____ _____    ______ ____
ROOT
ATOM      1  C   UNL A   1     -25.711   1.452  27.138  0.00  0.00    -0.000 A 
ATOM      2  C   UNL A   1     -25.207   2.413  27.932  0.00  0.00    -0.000 A 
ATOM      3  C   UNL A   1     -23.923   3.033  27.599  0.00  0.00    -0.000 A 
ATOM      4  C   UNL A   1     -23.216   2.276  26.693  0.00  0.00    -0.000 A 
ATOM      5  C   UNL A   1     -24.648   0.956  26.262  0.00  0.00    -0.000 A 
ATOM      6  C   UNL A   1     -23.627   1.328  25.955  0.00  0.00    -0.000 A 
ENDROOT
BRANCH   1   9
ATOM      7  C   UNL A   1     -28.016  -0.814  28.878  0.00  0.00    +0.058 A 
ATOM      8  C   UNL A   1     -27.064  -0.119  28.608  0.00  0.00    +0.011 A 
ATOM      9  C   UNL A   1     -26.972   0.714  27.506  0.00  0.00    -0.003 A 
ATOM     10  C   UNL A   1     -28.105   0.774  26.642  0.00  0.00    -0.022 A 
ATOM     11  C   UNL A   1     -29.204   0.118  27.048  0.00  0.00    -0.003 A 
ATOM     12  C   UNL A   1     -29.213  -0.609  28.128  0.00  0.00    +0.011 A 
ATOM     13  C   UNL A   1     -28.071   1.706  25.487  0.00  0.00    +0.031 C 
ATOM     14 CL   UNL A   1     -27.862  -1.881  30.279  0.00  0.00    -0.082 Cl
ENDBRANCH   1   9
BRANCH   2  15
ATOM     15  C   UNL A   1     -26.035   3.128  28.941  0.00  0.00    -0.000 C 
ATOM     16  C   UNL A   1     -26.417   4.392  28.755  0.00  0.00    -0.000 C 
ATOM     17  C   UNL A   1     -27.112   5.054  29.360  0.00  0.00    +0.000 C 
ATOM     18  C   UNL A   1     -27.462   6.424  29.034  0.00  0.00    +0.000 C 
ATOM     19  C   UNL A   1     -26.245   5.154  27.418  0.00  0.00    +0.000 C 
ATOM     20  C   UNL A   1     -26.877   6.650  27.757  0.00  0.00    +0.000 C 
BRANCH  18  21
ATOM     21  C   UNL A   1     -28.214   7.372  29.895  0.00  0.00    +0.000 C 
ATOM     22  C   UNL A   1     -27.837   8.596  29.860  0.00  0.00    +0.000 C 
BRANCH  22  23
ATOM     23  C   UNL A   1     -26.586   9.027  29.441  0.00  0.00    +0.000 A 
ATOM     24  C   UNL A   1     -25.767   9.773  29.926  0.00  0.00    +0.000 A 
ATOM     25  C   UNL A   1     -24.612   9.765  30.138  0.00  0.00    +0.000 A 
ATOM     26  C   UNL A   1     -23.776   8.869  29.209  0.00  0.00    +0.000 A 
ATOM     27  C   UNL A   1     -24.555   8.009  28.454  0.00  0.00    +0.000 A 
ATOM     28  C   UNL A   1     -25.886   7.993  28.661  0.00  0.00    +0.000 A 
ENDBRANCH  22  23
ENDBRANCH  18  21
ENDBRANCH   2  15
TORSDOF 4
