MODEL 2979
MODEL 1
REMARK VINA RESULT:    -8.126      0.000      0.000
REMARK INTER + INTRA:         -12.546
REMARK INTER:                 -10.026
REMARK INTRA:                  -2.519
REMARK UNBOUND:                -2.519
REMARK  Name = No_2979-gen_results/8p0m/2024-11-26-14-13-15/
REMARK  4 active torsions:
REMARK  status: ('A' for Active; 'I' for Inactive)
REMARK    1  A    between atoms: C_2  and  C_17
REMARK    2  A    between atoms: C_3  and  C_4
REMARK    3  A    between atoms: C_10  and  C_14
REMARK    4  A    between atoms: C_21  and  C_22
REMARK                            x       y       z     vdW  Elec       q    Type
REMARK                         _______ _______ _______ _____ _____    ______ ____
ROOT
ATOM      1  C   UNL A   1     -25.122   0.978  25.635  0.00  0.00    +0.252 C 
ATOM      2  O   UNL A   1     -25.004   0.375  24.651  0.00  0.00    -0.270 OA
ATOM      3  N   UNL A   1     -26.014   1.973  25.822  0.00  0.00    -0.236 N 
ATOM      4  C   UNL A   1     -26.930   2.352  24.785  0.00  0.00    +0.127 C 
ATOM      5  C   UNL A   1     -26.187   2.718  27.112  0.00  0.00    +0.271 C 
ATOM      6  C   UNL A   1     -28.133   2.760  25.254  0.00  0.00    +0.032 A 
ATOM      7  C   UNL A   1     -29.047   3.063  24.780  0.00  0.00    +0.000 A 
ATOM      8  C   UNL A   1     -30.366   3.470  25.361  0.00  0.00    -0.000 A 
ATOM      9  C   UNL A   1     -30.443   3.535  26.733  0.00  0.00    -0.001 A 
ATOM     10  C   UNL A   1     -29.318   3.143  27.441  0.00  0.00    +0.012 A 
ATOM     11  C   UNL A   1     -28.235   2.744  26.819  0.00  0.00    +0.134 A 
ATOM     12  O   UNL A   1     -27.068   1.956  27.731  0.00  0.00    -0.457 OA
ATOM     13  C   UNL A   1     -29.428   3.112  28.966  0.00  0.00    +0.034 C 
ENDROOT
BRANCH   1  15
ATOM     14  C   UNL A   1     -24.239   0.029  27.527  0.00  0.00    +0.001 A 
ATOM     15  C   UNL A   1     -24.033   0.746  26.782  0.00  0.00    +0.053 A 
ATOM     16  C   UNL A   1     -23.131  -0.203  28.529  0.00  0.00    -0.018 A 
ATOM     17  C   UNL A   1     -22.956   1.735  26.645  0.00  0.00    +0.004 A 
ATOM     18  C   UNL A   1     -21.919   1.606  27.544  0.00  0.00    -0.000 A 
ATOM     19  C   UNL A   1     -21.976   0.660  28.535  0.00  0.00    -0.004 A 
BRANCH  16  20
ATOM     20  C   UNL A   1     -23.101  -1.222  29.548  0.00  0.00    +0.045 C 
ATOM     21  C   UNL A   1     -22.610  -0.938  30.809  0.00  0.00    -0.022 C 
ATOM     22  C   UNL A   1     -23.247  -0.373  31.696  0.00  0.00    +0.002 C 
ATOM     23  C   UNL A   1     -24.684  -0.049  31.491  0.00  0.00    +0.075 C 
ATOM     24  C   UNL A   1     -25.477  -0.824  31.039  0.00  0.00    -0.019 C 
ATOM     25  C   UNL A   1     -25.156  -1.974  30.232  0.00  0.00    +0.027 C 
ATOM     26  C   UNL A   1     -24.099  -2.134  29.392  0.00  0.00    +0.013 C 
BRANCH  23  27
ATOM     27  C   UNL A   1     -24.846   1.390  31.335  0.00  0.00    +0.387 C 
ATOM     28  O   UNL A   1     -26.019   1.693  30.800  0.00  0.00    -0.241 OA
ATOM     29  O   UNL A   1     -23.872   2.229  31.099  0.00  0.00    -0.241 OA
ENDBRANCH  23  27
ENDBRANCH  16  20
ENDBRANCH   1  15
BRANCH   5  30
ATOM     30  C   UNL A   1     -25.714   3.989  27.139  0.00  0.00    +0.037 A 
ATOM     31  C   UNL A   1     -25.141   4.659  26.435  0.00  0.00    +0.001 A 
ATOM     32  C   UNL A   1     -24.661   5.995  26.692  0.00  0.00    -0.000 A 
ATOM     33  C   UNL A   1     -24.983   6.548  27.952  0.00  0.00    -0.000 A 
ATOM     34  C   UNL A   1     -25.734   5.824  28.880  0.00  0.00    -0.000 A 
ATOM     35  C   UNL A   1     -26.098   4.577  28.573  0.00  0.00    +0.001 A 
ENDBRANCH   5  30
TORSDOF 4
ENDMDL
ENDMDL
