REMARK  Name = No_2979-gen_results/8p0m/2024-11-26-14-13-15/
REMARK  4 active torsions:
REMARK  status: ('A' for Active; 'I' for Inactive)
REMARK    1  A    between atoms: C_2  and  C_17
REMARK    2  A    between atoms: C_3  and  C_4
REMARK    3  A    between atoms: C_10  and  C_14
REMARK    4  A    between atoms: C_21  and  C_22
REMARK                            x       y       z     vdW  Elec       q    Type
REMARK                         _______ _______ _______ _____ _____    ______ ____
ROOT
ATOM      1  C   UNL A   1     -30.065  -0.729  29.904  0.00  0.00    +0.252 C 
ATOM      2  O   UNL A   1     -30.628  -1.720  30.122  0.00  0.00    -0.270 OA
ATOM      3  N   UNL A   1     -30.660   0.430  29.553  0.00  0.00    -0.236 N 
ATOM      4  C   UNL A   1     -32.087   0.527  29.445  0.00  0.00    +0.127 C 
ATOM      5  C   UNL A   1     -29.926   1.715  29.314  0.00  0.00    +0.271 C 
ATOM      6  C   UNL A   1     -32.572   1.739  29.805  0.00  0.00    +0.032 A 
ATOM      7  C   UNL A   1     -33.562   2.144  29.891  0.00  0.00    +0.000 A 
ATOM      8  C   UNL A   1     -34.036   3.493  30.335  0.00  0.00    -0.000 A 
ATOM      9  C   UNL A   1     -33.066   4.420  30.638  0.00  0.00    -0.001 A 
ATOM     10  C   UNL A   1     -31.750   3.989  30.577  0.00  0.00    +0.012 A 
ATOM     11  C   UNL A   1     -31.459   2.758  30.233  0.00  0.00    +0.134 A 
ATOM     12  O   UNL A   1     -29.897   2.223  30.531  0.00  0.00    -0.457 OA
ATOM     13  C   UNL A   1     -30.670   4.980  31.013  0.00  0.00    +0.034 C 
ENDROOT
BRANCH   1  15
ATOM     14  C   UNL A   1     -28.016  -0.814  28.878  0.00  0.00    +0.001 A 
ATOM     15  C   UNL A   1     -28.469  -0.785  29.829  0.00  0.00    +0.053 A 
ATOM     16  C   UNL A   1     -26.504  -0.778  28.877  0.00  0.00    -0.018 A 
ATOM     17  C   UNL A   1     -27.918  -0.937  31.182  0.00  0.00    +0.004 A 
ATOM     18  C   UNL A   1     -26.542  -0.940  31.261  0.00  0.00    -0.000 A 
ATOM     19  C   UNL A   1     -25.783  -0.893  30.120  0.00  0.00    -0.004 A 
BRANCH  16  20
ATOM     20  C   UNL A   1     -25.654  -0.660  27.719  0.00  0.00    +0.045 C 
ATOM     21  C   UNL A   1     -25.926   0.282  26.744  0.00  0.00    -0.022 C 
ATOM     22  C   UNL A   1     -25.626   1.472  26.819  0.00  0.00    +0.002 C 
ATOM     23  C   UNL A   1     -24.816   1.966  27.965  0.00  0.00    +0.075 C 
ATOM     24  C   UNL A   1     -23.833   1.412  28.366  0.00  0.00    -0.019 C 
ATOM     25  C   UNL A   1     -23.510   0.024  28.152  0.00  0.00    +0.027 C 
ATOM     26  C   UNL A   1     -24.369  -1.016  27.986  0.00  0.00    +0.013 C 
BRANCH  23  27
ATOM     27  C   UNL A   1     -25.651   2.775  28.843  0.00  0.00    +0.387 C 
ATOM     28  O   UNL A   1     -25.759   4.019  28.401  0.00  0.00    -0.241 OA
ATOM     29  O   UNL A   1     -25.750   2.613  30.136  0.00  0.00    -0.241 OA
ENDBRANCH  23  27
ENDBRANCH  16  20
ENDBRANCH   1  15
BRANCH   5  30
ATOM     30  C   UNL A   1     -29.816   2.112  28.022  0.00  0.00    +0.037 A 
ATOM     31  C   UNL A   1     -30.003   1.650  27.010  0.00  0.00    +0.001 A 
ATOM     32  C   UNL A   1     -29.747   2.237  25.717  0.00  0.00    -0.000 A 
ATOM     33  C   UNL A   1     -29.247   3.559  25.713  0.00  0.00    -0.000 A 
ATOM     34  C   UNL A   1     -29.028   4.243  26.910  0.00  0.00    -0.000 A 
ATOM     35  C   UNL A   1     -29.251   3.605  28.061  0.00  0.00    +0.001 A 
ENDBRANCH   5  30
TORSDOF 4
