MODEL 297
MODEL 1
REMARK VINA RESULT:    -8.408      0.000      0.000
REMARK INTER + INTRA:          -9.204
REMARK INTER:                  -8.900
REMARK INTRA:                  -0.304
REMARK UNBOUND:                -0.304
REMARK  Name = No_297-gen_results/8p0m/2024-11-26-14-13-15/
REMARK  1 active torsions:
REMARK  status: ('A' for Active; 'I' for Inactive)
REMARK    1  A    between atoms: C_21  and  C_26
REMARK                            x       y       z     vdW  Elec       q    Type
REMARK                         _______ _______ _______ _____ _____    ______ ____
ROOT
ATOM      1  C   UNL A   1     -14.179   2.678  35.873  0.00  0.00    +0.019 A 
ATOM      2  C   UNL A   1     -14.572   3.159  36.910  0.00  0.00    +0.037 A 
ATOM      3  C   UNL A   1     -15.621   4.075  36.987  0.00  0.00    +0.195 C 
ATOM      4  C   UNL A   1     -16.156   4.718  38.203  0.00  0.00    +0.035 A 
ATOM      5  C   UNL A   1     -17.216   5.692  38.241  0.00  0.00    +0.003 A 
ATOM      6  C   UNL A   1     -17.657   6.231  39.465  0.00  0.00    +0.000 A 
ATOM      7  C   UNL A   1     -12.924   2.038  35.748  0.00  0.00    +0.071 A 
ATOM      8  C   UNL A   1     -12.308   1.667  36.947  0.00  0.00    +0.068 A 
ATOM      9  C   UNL A   1     -12.825   2.076  38.148  0.00  0.00    +0.002 A 
ATOM     10  C   UNL A   1     -13.954   2.950  38.213  0.00  0.00    -0.015 A 
ATOM     11  C   UNL A   1     -17.215   5.680  40.703  0.00  0.00    -0.000 A 
ATOM     12  C   UNL A   1     -16.203   4.707  40.675  0.00  0.00    -0.004 A 
ATOM     13  C   UNL A   1     -15.739   4.189  39.479  0.00  0.00    -0.015 A 
ATOM     14  C   UNL A   1     -14.511   3.385  39.429  0.00  0.00    +0.045 C 
ATOM     15  O   UNL A   1     -16.343   4.417  35.917  0.00  0.00    -0.287 OA
ATOM     16  C   UNL A   1     -13.897   3.058  40.730  0.00  0.00    +0.009 C 
ATOM     17  C   UNL A   1     -11.089   0.847  36.902  0.00  0.00    +0.251 C 
ATOM     18  N   UNL A   1     -10.175   1.009  36.228  0.00  0.00    -0.260 N 
ATOM     19  C   UNL A   1      -9.073   0.357  36.074  0.00  0.00    +0.100 C 
ATOM     20  O   UNL A   1     -11.080  -0.116  37.717  0.00  0.00    -0.270 OA
ATOM     21  C   UNL A   1      -8.457   0.365  34.927  0.00  0.00    +0.042 C 
ATOM     22  C   UNL A   1      -8.753   1.315  33.998  0.00  0.00    +0.010 C 
ATOM     23  C   UNL A   1      -9.871   2.117  34.064  0.00  0.00    +0.043 C 
ATOM     24  C   UNL A   1     -10.578   1.955  35.075  0.00  0.00    +0.169 C 
ATOM     25  N   UNL A   1     -12.022   2.120  34.689  0.00  0.00    -0.219 NA
ENDROOT
BRANCH  21  26
ATOM     26  C   UNL A   1      -7.043  -0.295  34.906  0.00  0.00    -0.021 A 
ATOM     27  C   UNL A   1      -6.008   0.376  35.244  0.00  0.00    -0.004 A 
ATOM     28  C   UNL A   1      -4.729  -0.285  35.284  0.00  0.00    -0.000 A 
ATOM     29  C   UNL A   1      -4.719  -1.626  34.878  0.00  0.00    -0.000 A 
ATOM     30  C   UNL A   1      -6.980  -1.605  34.505  0.00  0.00    -0.004 A 
ATOM     31  C   UNL A   1      -5.810  -2.274  34.504  0.00  0.00    -0.000 A 
ENDBRANCH  21  26
TORSDOF 1
ENDMDL
ENDMDL
