REMARK  Name = No_298-gen_results/8p0m/2024-11-26-14-13-15/
REMARK  5 active torsions:
REMARK  status: ('A' for Active; 'I' for Inactive)
REMARK    1  A    between atoms: C_2  and  C_5
REMARK    2  A    between atoms: C_4  and  C_11
REMARK    3  A    between atoms: C_11  and  C_12
REMARK    4  A    between atoms: C_13  and  N_18
REMARK    5  A    between atoms: N_18  and  C_19
REMARK                            x       y       z     vdW  Elec       q    Type
REMARK                         _______ _______ _______ _____ _____    ______ ____
ROOT
ATOM      1  C   UNL A   1     -28.016  -0.814  28.878  0.00  0.00    +0.018 A 
ATOM      2  C   UNL A   1     -28.469  -0.785  29.829  0.00  0.00    +0.081 A 
ATOM      3  C   UNL A   1     -26.504  -0.778  28.877  0.00  0.00    +0.054 A 
ATOM      4  C   UNL A   1     -25.810  -0.853  30.103  0.00  0.00    -0.007 A 
ATOM      5  C   UNL A   1     -26.567  -0.885  31.252  0.00  0.00    -0.003 A 
ATOM      6  C   UNL A   1     -27.941  -0.907  31.185  0.00  0.00    +0.006 A 
ATOM      7 CL   UNL A   1     -25.533  -0.712  27.469  0.00  0.00    -0.083 Cl
ENDROOT
BRANCH   2   8
ATOM      8  C   UNL A   1     -30.014  -0.841  29.851  0.00  0.00    +0.388 C 
ATOM      9  O   UNL A   1     -30.649  -0.057  30.676  0.00  0.00    -0.241 OA
ATOM     10  O   UNL A   1     -30.599  -1.862  29.354  0.00  0.00    -0.241 OA
ENDBRANCH   2   8
BRANCH   4  11
ATOM     11  C   UNL A   1     -24.337  -0.815  30.159  0.00  0.00    +0.055 C 
BRANCH  11  12
ATOM     12  C   UNL A   1     -23.446  -0.298  29.747  0.00  0.00    -0.003 A 
ATOM     13  C   UNL A   1     -23.379   1.175  29.631  0.00  0.00    +0.067 A 
ATOM     14  C   UNL A   1     -22.552   1.874  28.740  0.00  0.00    +0.016 A 
ATOM     15  C   UNL A   1     -21.680   1.056  27.945  0.00  0.00    +0.001 A 
ATOM     16  C   UNL A   1     -22.564  -0.926  28.752  0.00  0.00    -0.003 A 
ATOM     17  C   UNL A   1     -21.663  -0.235  28.035  0.00  0.00    -0.000 A 
BRANCH  13  18
ATOM     18  N   UNL A   1     -24.243   1.898  30.496  0.00  0.00    -0.211 NA
BRANCH  18  19
ATOM     19  C   UNL A   1     -25.215   2.730  30.177  0.00  0.00    +0.086 C 
ATOM     20  C   UNL A   1     -25.947   3.374  31.224  0.00  0.00    +0.019 C 
ENDBRANCH  18  19
ENDBRANCH  13  18
ENDBRANCH  11  12
ENDBRANCH   4  11
TORSDOF 5
