REMARK  Name = No_2980-gen_results/8p0m/2024-11-26-14-13-15/
REMARK  4 active torsions:
REMARK  status: ('A' for Active; 'I' for Inactive)
REMARK    1  A    between atoms: C_2  and  C_7
REMARK    2  A    between atoms: C_4  and  C_10
REMARK    3  A    between atoms: C_10  and  C_11
REMARK    4  A    between atoms: C_11  and  C_12
REMARK                            x       y       z     vdW  Elec       q    Type
REMARK                         _______ _______ _______ _____ _____    ______ ____
ROOT
ATOM      1  C   UNL A   1     -28.016  -0.814  28.878  0.00  0.00    +0.006 A 
ATOM      2  C   UNL A   1     -28.469  -0.785  29.829  0.00  0.00    +0.080 A 
ATOM      3  C   UNL A   1     -26.546  -0.876  28.850  0.00  0.00    -0.004 A 
ATOM      4  C   UNL A   1     -25.804  -1.032  30.057  0.00  0.00    -0.022 A 
ATOM      5  C   UNL A   1     -27.944  -0.987  31.207  0.00  0.00    +0.006 A 
ATOM      6  C   UNL A   1     -26.582  -1.039  31.223  0.00  0.00    -0.004 A 
ENDROOT
BRANCH   2   7
ATOM      7  C   UNL A   1     -30.061  -0.737  29.902  0.00  0.00    +0.388 C 
ATOM      8  O   UNL A   1     -30.552  -0.277  29.011  0.00  0.00    -0.241 OA
ATOM      9  O   UNL A   1     -30.730  -1.220  30.950  0.00  0.00    -0.241 OA
ENDBRANCH   2   7
BRANCH   4  10
ATOM     10  C   UNL A   1     -24.369  -1.094  30.075  0.00  0.00    +0.026 C 
BRANCH  10  11
ATOM     11  C   UNL A   1     -23.580  -0.582  29.107  0.00  0.00    +0.007 C 
BRANCH  11  12
ATOM     12  C   UNL A   1     -23.767   0.529  28.352  0.00  0.00    +0.031 C 
ATOM     13  C   UNL A   1     -23.068   1.591  28.435  0.00  0.00    +0.126 C 
ATOM     14  N   UNL A   1     -23.509   2.755  27.868  0.00  0.00    -0.274 NA
ATOM     15  C   UNL A   1     -24.660   2.480  27.229  0.00  0.00    +0.067 C 
ATOM     16  C   UNL A   1     -24.987   0.928  27.619  0.00  0.00    +0.049 C 
ENDBRANCH  11  12
ENDBRANCH  10  11
ENDBRANCH   4  10
TORSDOF 4
