MODEL 2980
MODEL 1
REMARK VINA RESULT:    -5.949      0.000      0.000
REMARK INTER + INTRA:          -7.817
REMARK INTER:                  -7.340
REMARK INTRA:                  -0.477
REMARK UNBOUND:                -0.477
REMARK  Name = No_2980-gen_results/8p0m/2024-11-26-14-13-15/
REMARK  4 active torsions:
REMARK  status: ('A' for Active; 'I' for Inactive)
REMARK    1  A    between atoms: C_2  and  C_7
REMARK    2  A    between atoms: C_4  and  C_10
REMARK    3  A    between atoms: C_10  and  C_11
REMARK    4  A    between atoms: C_11  and  C_12
REMARK                            x       y       z     vdW  Elec       q    Type
REMARK                         _______ _______ _______ _____ _____    ______ ____
ROOT
ATOM      1  C   UNL A   1     -27.860 -12.080  31.599  0.00  0.00    +0.006 A 
ATOM      2  C   UNL A   1     -28.056 -11.496  32.454  0.00  0.00    +0.080 A 
ATOM      3  C   UNL A   1     -28.734 -11.860  30.436  0.00  0.00    -0.004 A 
ATOM      4  C   UNL A   1     -29.696 -10.807  30.441  0.00  0.00    -0.022 A 
ATOM      5  C   UNL A   1     -28.937 -10.321  32.698  0.00  0.00    +0.006 A 
ATOM      6  C   UNL A   1     -29.770 -10.091  31.644  0.00  0.00    -0.004 A 
ENDROOT
BRANCH   2   7
ATOM      7  C   UNL A   1     -27.119 -11.692  33.729  0.00  0.00    +0.388 C 
ATOM      8  O   UNL A   1     -26.644 -12.699  33.805  0.00  0.00    -0.241 OA
ATOM      9  O   UNL A   1     -26.926 -10.713  34.615  0.00  0.00    -0.241 OA
ENDBRANCH   2   7
BRANCH   4  10
ATOM     10  C   UNL A   1     -30.570 -10.559  29.329  0.00  0.00    +0.026 C 
BRANCH  10  11
ATOM     11  C   UNL A   1     -30.158 -10.494  28.046  0.00  0.00    +0.007 C 
BRANCH  11  12
ATOM     12  C   UNL A   1     -30.140 -11.470  27.104  0.00  0.00    +0.031 C 
ATOM     13  C   UNL A   1     -31.174 -11.965  26.550  0.00  0.00    +0.126 C 
ATOM     14  N   UNL A   1     -31.090 -13.139  25.852  0.00  0.00    -0.274 NA
ATOM     15  C   UNL A   1     -29.798 -13.511  25.847  0.00  0.00    +0.067 C 
ATOM     16  C   UNL A   1     -29.054 -12.433  26.823  0.00  0.00    +0.049 C 
ENDBRANCH  11  12
ENDBRANCH  10  11
ENDBRANCH   4  10
TORSDOF 4
ENDMDL
ENDMDL
