MODEL 2981
MODEL 1
REMARK VINA RESULT:    -6.914      0.000      0.000
REMARK INTER + INTRA:          -8.225
REMARK INTER:                  -7.723
REMARK INTRA:                  -0.502
REMARK UNBOUND:                -0.502
REMARK  Name = No_2981-gen_results/8p0m/2024-11-26-14-13-15/
REMARK  2 active torsions:
REMARK  status: ('A' for Active; 'I' for Inactive)
REMARK    1  A    between atoms: C_3  and  C_4
REMARK    2  A    between atoms: C_7  and  C_13
REMARK                            x       y       z     vdW  Elec       q    Type
REMARK                         _______ _______ _______ _____ _____    ______ ____
ROOT
ATOM      1  C   UNL A   1     -24.973  -0.018  24.837  0.00  0.00    +0.005 A 
ATOM      2  C   UNL A   1     -26.038  -0.361  24.378  0.00  0.00    +0.000 A 
ATOM      3  C   UNL A   1     -27.163   0.449  24.490  0.00  0.00    +0.000 A 
ATOM      4  C   UNL A   1     -24.870   1.170  25.706  0.00  0.00    +0.057 A 
ATOM      5  C   UNL A   1     -25.908   2.057  25.802  0.00  0.00    +0.005 A 
ATOM      6  C   UNL A   1     -27.168   1.720  25.225  0.00  0.00    +0.000 A 
ENDROOT
BRANCH   4   7
ATOM      7  C   UNL A   1     -23.608   1.579  26.354  0.00  0.00    +0.265 C 
ATOM      8  O   UNL A   1     -22.938   2.471  25.913  0.00  0.00    -0.267 OA
ATOM      9  N   UNL A   1     -23.204   0.920  27.461  0.00  0.00    -0.272 N 
ATOM     10  C   UNL A   1     -23.931  -0.137  28.131  0.00  0.00    +0.083 A 
ATOM     11  C   UNL A   1     -23.151  -0.824  28.928  0.00  0.00    +0.021 A 
ATOM     12  C   UNL A   1     -21.915  -0.476  29.203  0.00  0.00    +0.021 A 
ATOM     13  C   UNL A   1     -21.892   0.859  27.989  0.00  0.00    +0.083 A 
ENDBRANCH   4   7
BRANCH   3  14
ATOM     14  C   UNL A   1     -28.528   0.137  23.977  0.00  0.00    +0.000 A 
ATOM     15  C   UNL A   1     -29.120  -1.173  23.931  0.00  0.00    +0.000 A 
ATOM     16  C   UNL A   1     -30.406  -1.363  23.489  0.00  0.00    +0.000 A 
ATOM     17  C   UNL A   1     -31.300  -0.339  23.261  0.00  0.00    +0.000 A 
ATOM     18  C   UNL A   1     -29.467   1.229  23.722  0.00  0.00    +0.000 A 
ATOM     19  C   UNL A   1     -30.806   0.942  23.356  0.00  0.00    +0.000 A 
ENDBRANCH   3  14
TORSDOF 2
ENDMDL
ENDMDL
