REMARK  Name = No_2981-gen_results/8p0m/2024-11-26-14-13-15/
REMARK  2 active torsions:
REMARK  status: ('A' for Active; 'I' for Inactive)
REMARK    1  A    between atoms: C_3  and  C_4
REMARK    2  A    between atoms: C_7  and  C_13
REMARK                            x       y       z     vdW  Elec       q    Type
REMARK                         _______ _______ _______ _____ _____    ______ ____
ROOT
ATOM      1  C   UNL A   1     -28.016  -0.814  28.878  0.00  0.00    +0.005 A 
ATOM      2  C   UNL A   1     -27.064  -0.119  28.608  0.00  0.00    +0.000 A 
ATOM      3  C   UNL A   1     -25.792  -0.430  29.076  0.00  0.00    +0.000 A 
ATOM      4  C   UNL A   1     -27.905  -1.898  29.873  0.00  0.00    +0.057 A 
ATOM      5  C   UNL A   1     -26.680  -2.314  30.318  0.00  0.00    +0.005 A 
ATOM      6  C   UNL A   1     -25.520  -1.556  29.977  0.00  0.00    +0.000 A 
ENDROOT
BRANCH   4   7
ATOM      7  C   UNL A   1     -29.059  -2.718  30.293  0.00  0.00    +0.265 C 
ATOM      8  O   UNL A   1     -29.012  -3.917  30.280  0.00  0.00    -0.267 OA
ATOM      9  N   UNL A   1     -30.189  -2.094  30.688  0.00  0.00    -0.272 N 
ATOM     10  C   UNL A   1     -30.371  -0.663  30.802  0.00  0.00    +0.083 A 
ATOM     11  C   UNL A   1     -31.641  -0.344  30.842  0.00  0.00    +0.021 A 
ATOM     12  C   UNL A   1     -32.604  -1.231  30.942  0.00  0.00    +0.021 A 
ATOM     13  C   UNL A   1     -31.494  -2.639  30.736  0.00  0.00    +0.083 A 
ENDBRANCH   4   7
BRANCH   3  14
ATOM     14  C   UNL A   1     -24.546   0.349  28.823  0.00  0.00    +0.000 A 
ATOM     15  C   UNL A   1     -23.241   0.022  29.332  0.00  0.00    +0.000 A 
ATOM     16  C   UNL A   1     -22.136   0.769  29.006  0.00  0.00    +0.000 A 
ATOM     17  C   UNL A   1     -22.125   1.736  28.024  0.00  0.00    +0.000 A 
ATOM     18  C   UNL A   1     -24.544   1.386  27.791  0.00  0.00    +0.000 A 
ATOM     19  C   UNL A   1     -23.337   2.047  27.452  0.00  0.00    +0.000 A 
ENDBRANCH   3  14
TORSDOF 2
