REMARK  Name = No_2982-gen_results/8p0m/2024-11-26-14-13-15/
REMARK  1 active torsions:
REMARK  status: ('A' for Active; 'I' for Inactive)
REMARK    1  A    between atoms: C_3  and  N_7
REMARK                            x       y       z     vdW  Elec       q    Type
REMARK                         _______ _______ _______ _____ _____    ______ ____
ROOT
ATOM      1  C   UNL A   1     -28.016  -0.814  28.878  0.00  0.00    +0.001 A 
ATOM      2  C   UNL A   1     -27.064  -0.119  28.608  0.00  0.00    +0.015 A 
ATOM      3  C   UNL A   1     -25.765  -0.390  29.036  0.00  0.00    +0.048 A 
ATOM      4  C   UNL A   1     -25.530  -1.530  29.901  0.00  0.00    +0.015 A 
ATOM      5  C   UNL A   1     -26.689  -2.289  30.181  0.00  0.00    +0.001 A 
ATOM      6  C   UNL A   1     -27.873  -1.951  29.737  0.00  0.00    +0.000 A 
ENDROOT
BRANCH   3   7
ATOM      7  N   UNL A   1     -24.627   0.369  28.754  0.00  0.00    -0.307 N 
ATOM      8  C   UNL A   1     -24.047   1.231  29.502  0.00  0.00    +0.091 C 
ATOM      9  C   UNL A   1     -22.843   1.880  29.024  0.00  0.00    +0.021 C 
ATOM     10  C   UNL A   1     -24.119   0.378  27.434  0.00  0.00    +0.091 C 
ATOM     11  C   UNL A   1     -23.039   1.059  26.972  0.00  0.00    +0.021 C 
ATOM     12  C   UNL A   1     -22.381   1.919  27.866  0.00  0.00    +0.004 C 
ENDBRANCH   3   7
TORSDOF 1
