MODEL 2982
MODEL 1
REMARK VINA RESULT:    -6.057      0.000      0.000
REMARK INTER + INTRA:          -6.642
REMARK INTER:                  -6.411
REMARK INTRA:                  -0.231
REMARK UNBOUND:                -0.231
REMARK  Name = No_2982-gen_results/8p0m/2024-11-26-14-13-15/
REMARK  1 active torsions:
REMARK  status: ('A' for Active; 'I' for Inactive)
REMARK    1  A    between atoms: C_3  and  N_7
REMARK                            x       y       z     vdW  Elec       q    Type
REMARK                         _______ _______ _______ _____ _____    ______ ____
ROOT
ATOM      1  C   UNL A   1     -24.838  -4.872  28.974  0.00  0.00    +0.001 A 
ATOM      2  C   UNL A   1     -24.125  -3.932  28.708  0.00  0.00    +0.015 A 
ATOM      3  C   UNL A   1     -24.434  -2.612  29.036  0.00  0.00    +0.048 A 
ATOM      4  C   UNL A   1     -25.702  -2.323  29.677  0.00  0.00    +0.015 A 
ATOM      5  C   UNL A   1     -26.486  -3.468  29.947  0.00  0.00    +0.001 A 
ATOM      6  C   UNL A   1     -26.113  -4.672  29.595  0.00  0.00    +0.000 A 
ENDROOT
BRANCH   3   7
ATOM      7  N   UNL A   1     -23.652  -1.488  28.762  0.00  0.00    -0.307 N 
ATOM      8  C   UNL A   1     -22.528  -1.162  29.281  0.00  0.00    +0.091 C 
ATOM      9  C   UNL A   1     -21.861   0.038  28.818  0.00  0.00    +0.021 C 
ATOM     10  C   UNL A   1     -24.198  -0.450  27.972  0.00  0.00    +0.091 C 
ATOM     11  C   UNL A   1     -23.597   0.714  27.613  0.00  0.00    +0.021 C 
ATOM     12  C   UNL A   1     -22.321   0.976  28.136  0.00  0.00    +0.004 C 
ENDBRANCH   3   7
TORSDOF 1
ENDMDL
ENDMDL
