REMARK  Name = No_2983-gen_results/8p0m/2024-11-26-14-13-15/
REMARK  4 active torsions:
REMARK  status: ('A' for Active; 'I' for Inactive)
REMARK    1  A    between atoms: C_3  and  C_4
REMARK    2  A    between atoms: C_4  and  C_13
REMARK    3  A    between atoms: C_8  and  C_22
REMARK    4  A    between atoms: C_16  and  C_19
REMARK                            x       y       z     vdW  Elec       q    Type
REMARK                         _______ _______ _______ _____ _____    ______ ____
ROOT
ATOM      1  C   UNL A   1     -26.252   0.411  27.422  0.00  0.00    +0.038 C 
ATOM      2  C   UNL A   1     -25.733   1.689  27.155  0.00  0.00    +0.007 C 
ATOM      3  C   UNL A   1     -24.674   1.780  26.331  0.00  0.00    +0.001 C 
ATOM      4  C   UNL A   1     -23.893   0.747  25.946  0.00  0.00    +0.000 C 
ATOM      5  C   UNL A   1     -25.087  -0.565  27.333  0.00  0.00    +0.008 C 
ATOM      6  C   UNL A   1     -24.094  -0.428  26.443  0.00  0.00    +0.001 C 
ENDROOT
BRANCH   1   9
ATOM      7  C   UNL A   1     -28.016  -0.814  28.878  0.00  0.00    -0.004 A 
ATOM      8  C   UNL A   1     -28.469  -0.785  29.829  0.00  0.00    -0.000 A 
ATOM      9  C   UNL A   1     -27.087   0.290  28.638  0.00  0.00    -0.019 A 
ATOM     10  C   UNL A   1     -28.391   0.104  30.980  0.00  0.00    -0.000 A 
ATOM     11  C   UNL A   1     -27.533   1.167  30.787  0.00  0.00    -0.000 A 
ATOM     12  C   UNL A   1     -26.828   1.256  29.645  0.00  0.00    -0.004 A 
ENDBRANCH   1   9
BRANCH   1  13
ATOM     13  C   UNL A   1     -27.148   0.149  26.146  0.00  0.00    -0.019 A 
ATOM     14  C   UNL A   1     -26.821   0.272  24.952  0.00  0.00    -0.004 A 
ATOM     15  C   UNL A   1     -28.589   0.060  26.426  0.00  0.00    +0.003 A 
ATOM     16  C   UNL A   1     -29.430   0.067  25.288  0.00  0.00    +0.080 A 
ATOM     17  C   UNL A   1     -27.615   0.168  23.854  0.00  0.00    -0.000 A 
ATOM     18  C   UNL A   1     -28.911   0.082  24.060  0.00  0.00    +0.007 A 
BRANCH  16  19
ATOM     19  C   UNL A   1     -30.881  -0.101  25.544  0.00  0.00    +0.388 C 
ATOM     20  O   UNL A   1     -31.566  -0.808  24.870  0.00  0.00    -0.241 OA
ATOM     21  O   UNL A   1     -31.583   0.728  26.312  0.00  0.00    -0.241 OA
ENDBRANCH  16  19
ENDBRANCH   1  13
BRANCH   2  22
ATOM     22  C   UNL A   1     -26.493   2.934  27.503  0.00  0.00    +0.001 C 
ATOM     23  C   UNL A   1     -26.793   3.886  26.604  0.00  0.00    +0.000 C 
ATOM     24  C   UNL A   1     -25.767   3.620  28.734  0.00  0.00    +0.000 C 
ATOM     25  C   UNL A   1     -27.775   2.579  28.363  0.00  0.00    +0.000 C 
ENDBRANCH   2  22
TORSDOF 4
