MODEL 2984
MODEL 1
REMARK VINA RESULT:    -5.219      0.000      0.000
REMARK INTER + INTRA:          -5.977
REMARK INTER:                  -5.829
REMARK INTRA:                  -0.148
REMARK UNBOUND:                -0.148
REMARK  Name = No_2984-gen_results/8p0m/2024-11-26-14-13-15/
REMARK  2 active torsions:
REMARK  status: ('A' for Active; 'I' for Inactive)
REMARK    1  A    between atoms: C_3  and  C_7
REMARK    2  A    between atoms: C_7  and  C_9
REMARK                            x       y       z     vdW  Elec       q    Type
REMARK                         _______ _______ _______ _____ _____    ______ ____
ROOT
ATOM      1  C   UNL A   1     -23.845  -3.884  28.629  0.00  0.00    -0.004 A 
ATOM      2  C   UNL A   1     -24.259  -4.848  28.728  0.00  0.00    -0.000 A 
ATOM      3  C   UNL A   1     -24.644  -2.782  29.006  0.00  0.00    -0.021 A 
ATOM      4  C   UNL A   1     -25.669  -2.890  29.516  0.00  0.00    -0.004 A 
ATOM      5  C   UNL A   1     -25.538  -5.244  29.317  0.00  0.00    -0.000 A 
ATOM      6  C   UNL A   1     -26.274  -4.181  29.722  0.00  0.00    -0.000 A 
ENDROOT
BRANCH   3   7
ATOM      7  C   UNL A   1     -24.035  -1.360  28.856  0.00  0.00    +0.041 C 
ATOM      8  C   UNL A   1     -24.617  -0.526  27.847  0.00  0.00    +0.006 C 
BRANCH   7   9
ATOM      9  C   UNL A   1     -22.880  -0.943  29.515  0.00  0.00    +0.114 C 
ATOM     10  N   UNL A   1     -21.750  -1.036  28.940  0.00  0.00    -0.131 NA
ENDBRANCH   7   9
ENDBRANCH   3   7
TORSDOF 2
ENDMDL
ENDMDL
