REMARK  Name = No_2986-gen_results/8p0m/2024-11-26-14-13-15/
REMARK  2 active torsions:
REMARK  status: ('A' for Active; 'I' for Inactive)
REMARK    1  A    between atoms: C_3  and  C_7
REMARK    2  A    between atoms: C_10  and  C_13
REMARK                            x       y       z     vdW  Elec       q    Type
REMARK                         _______ _______ _______ _____ _____    ______ ____
ROOT
ATOM      1  C   UNL A   1     -26.411   0.307  27.219  0.00  0.00    -0.000 A 
ATOM      2  C   UNL A   1     -25.012   0.334  27.320  0.00  0.00    -0.000 A 
ATOM      3  C   UNL A   1     -24.347   0.886  26.155  0.00  0.00    -0.000 A 
ATOM      4  C   UNL A   1     -26.856   1.183  26.253  0.00  0.00    -0.000 A 
ATOM      5  C   UNL A   1     -26.256   1.473  25.064  0.00  0.00    -0.000 A 
ATOM      6  C   UNL A   1     -24.861   1.564  25.180  0.00  0.00    -0.000 A 
ENDROOT
BRANCH   1   9
ATOM      7  C   UNL A   1     -28.016  -0.814  28.878  0.00  0.00    -0.000 A 
ATOM      8  C   UNL A   1     -28.469  -0.785  29.829  0.00  0.00    +0.000 A 
ATOM      9  C   UNL A   1     -27.136   0.236  28.535  0.00  0.00    -0.000 A 
ATOM     10  C   UNL A   1     -26.875   1.282  29.398  0.00  0.00    -0.000 A 
ATOM     11  C   UNL A   1     -27.507   1.238  30.630  0.00  0.00    +0.000 A 
ATOM     12  C   UNL A   1     -28.327   0.164  30.924  0.00  0.00    +0.000 A 
ENDBRANCH   1   9
BRANCH   4  13
ATOM     13  C   UNL A   1     -28.443   0.958  25.944  0.00  0.00    -0.005 C 
ATOM     14  C   UNL A   1     -29.276   1.845  26.055  0.00  0.00    -0.026 C 
ATOM     15  C   UNL A   1     -30.391   1.940  26.125  0.00  0.00    +0.031 C 
ENDBRANCH   4  13
TORSDOF 2
