MODEL 2986
MODEL 1
REMARK VINA RESULT:    -6.874      0.000      0.000
REMARK INTER + INTRA:          -8.740
REMARK INTER:                  -7.678
REMARK INTRA:                  -1.062
REMARK UNBOUND:                -1.062
REMARK  Name = No_2986-gen_results/8p0m/2024-11-26-14-13-15/
REMARK  2 active torsions:
REMARK  status: ('A' for Active; 'I' for Inactive)
REMARK    1  A    between atoms: C_3  and  C_7
REMARK    2  A    between atoms: C_10  and  C_13
REMARK                            x       y       z     vdW  Elec       q    Type
REMARK                         _______ _______ _______ _____ _____    ______ ____
ROOT
ATOM      1  C   UNL A   1     -24.466  -1.219  29.050  0.00  0.00    -0.000 A 
ATOM      2  C   UNL A   1     -24.599  -0.644  27.777  0.00  0.00    -0.000 A 
ATOM      3  C   UNL A   1     -23.833   0.574  27.598  0.00  0.00    -0.000 A 
ATOM      4  C   UNL A   1     -23.334  -0.759  29.687  0.00  0.00    -0.000 A 
ATOM      5  C   UNL A   1     -22.808   0.496  29.628  0.00  0.00    -0.000 A 
ATOM      6  C   UNL A   1     -22.882   1.045  28.339  0.00  0.00    -0.000 A 
ENDROOT
BRANCH   1   9
ATOM      7  C   UNL A   1     -25.993  -3.179  29.695  0.00  0.00    -0.000 A 
ATOM      8  C   UNL A   1     -26.148  -4.221  29.684  0.00  0.00    +0.000 A 
ATOM      9  C   UNL A   1     -24.803  -2.684  29.118  0.00  0.00    -0.000 A 
ATOM     10  C   UNL A   1     -23.855  -3.522  28.565  0.00  0.00    -0.000 A 
ATOM     11  C   UNL A   1     -24.141  -4.877  28.588  0.00  0.00    +0.000 A 
ATOM     12  C   UNL A   1     -25.341  -5.299  29.131  0.00  0.00    +0.000 A 
ENDBRANCH   1   9
BRANCH   4  13
ATOM     13  C   UNL A   1     -23.321  -1.209  31.256  0.00  0.00    -0.005 C 
ATOM     14  C   UNL A   1     -24.131  -0.798  32.074  0.00  0.00    -0.026 C 
ATOM     15  C   UNL A   1     -24.241  -0.751  33.189  0.00  0.00    +0.031 C 
ENDBRANCH   4  13
TORSDOF 2
ENDMDL
ENDMDL
