MODEL 2987
MODEL 1
REMARK VINA RESULT:    -5.088      0.000      0.000
REMARK INTER + INTRA:          -5.604
REMARK INTER:                  -5.385
REMARK INTRA:                  -0.219
REMARK UNBOUND:                -0.219
REMARK  Name = No_2987-gen_results/8p0m/2024-11-26-14-13-15/
REMARK  1 active torsions:
REMARK  status: ('A' for Active; 'I' for Inactive)
REMARK    1  A    between atoms: C_3  and  C_4
REMARK                            x       y       z     vdW  Elec       q    Type
REMARK                         _______ _______ _______ _____ _____    ______ ____
ROOT
ATOM      1  C   UNL A   1     -25.926  -2.596  29.928  0.00  0.00    +0.004 A 
ATOM      2  C   UNL A   1     -26.480  -3.486  30.035  0.00  0.00    -0.000 A 
ATOM      3  C   UNL A   1     -24.661  -2.678  29.305  0.00  0.00    +0.071 A 
ATOM      4  C   UNL A   1     -26.170  -4.876  29.656  0.00  0.00    -0.000 A 
ATOM      5  C   UNL A   1     -24.930  -5.034  29.036  0.00  0.00    -0.000 A 
ATOM      6  C   UNL A   1     -24.163  -3.939  28.801  0.00  0.00    +0.004 A 
ENDROOT
BRANCH   3   7
ATOM      7  C   UNL A   1     -23.805  -1.508  28.979  0.00  0.00    +0.419 C 
ATOM      8  F   UNL A   1     -22.699  -1.887  28.934  0.00  0.00    -0.166 F 
ATOM      9  F   UNL A   1     -24.216  -0.928  27.840  0.00  0.00    -0.166 F 
ATOM     10  F   UNL A   1     -23.860  -0.585  30.001  0.00  0.00    -0.166 F 
ENDBRANCH   3   7
TORSDOF 1
ENDMDL
ENDMDL
