MODEL 2988
MODEL 1
REMARK VINA RESULT:    -7.199      0.000      0.000
REMARK INTER + INTRA:          -8.470
REMARK INTER:                  -8.041
REMARK INTRA:                  -0.429
REMARK UNBOUND:                -0.429
REMARK  Name = No_2988-gen_results/8p0m/2024-11-26-14-13-15/
REMARK  2 active torsions:
REMARK  status: ('A' for Active; 'I' for Inactive)
REMARK    1  A    between atoms: C_3  and  C_10
REMARK    2  A    between atoms: C_5  and  C_6
REMARK                            x       y       z     vdW  Elec       q    Type
REMARK                         _______ _______ _______ _____ _____    ______ ____
ROOT
ATOM      1  C   UNL A   1     -29.657  -9.657  32.354  0.00  0.00    +0.000 A 
ATOM      2  C   UNL A   1     -29.942  -9.961  31.219  0.00  0.00    +0.000 A 
ATOM      3  C   UNL A   1     -29.355 -10.986  30.497  0.00  0.00    +0.000 A 
ATOM      4  C   UNL A   1     -28.356 -11.758  31.161  0.00  0.00    +0.007 A 
ATOM      5  C   UNL A   1     -28.171 -11.503  32.466  0.00  0.00    +0.080 A 
ATOM      6  C   UNL A   1     -28.773 -10.477  33.065  0.00  0.00    +0.007 A 
ENDROOT
BRANCH   3   7
ATOM      7  C   UNL A   1     -29.646 -11.181  29.006  0.00  0.00    +0.000 A 
ATOM      8  C   UNL A   1     -30.502 -10.356  28.395  0.00  0.00    +0.000 A 
ATOM      9  C   UNL A   1     -30.816 -10.636  26.975  0.00  0.00    +0.000 A 
ATOM     10  C   UNL A   1     -29.972 -11.542  26.308  0.00  0.00    +0.000 A 
ATOM     11  C   UNL A   1     -28.982 -12.082  28.159  0.00  0.00    +0.000 A 
ATOM     12  C   UNL A   1     -29.157 -12.360  26.928  0.00  0.00    +0.000 A 
ENDBRANCH   3   7
BRANCH   5  13
ATOM     13  C   UNL A   1     -27.235 -12.337  33.133  0.00  0.00    +0.388 C 
ATOM     14  O   UNL A   1     -26.373 -12.822  32.565  0.00  0.00    -0.241 OA
ATOM     15  O   UNL A   1     -27.175 -12.354  34.441  0.00  0.00    -0.241 OA
ENDBRANCH   5  13
TORSDOF 2
ENDMDL
ENDMDL
