REMARK  Name = No_2988-gen_results/8p0m/2024-11-26-14-13-15/
REMARK  2 active torsions:
REMARK  status: ('A' for Active; 'I' for Inactive)
REMARK    1  A    between atoms: C_3  and  C_10
REMARK    2  A    between atoms: C_5  and  C_6
REMARK                            x       y       z     vdW  Elec       q    Type
REMARK                         _______ _______ _______ _____ _____    ______ ____
ROOT
ATOM      1  C   UNL A   1     -28.016  -0.814  28.878  0.00  0.00    +0.000 A 
ATOM      2  C   UNL A   1     -27.064  -0.119  28.608  0.00  0.00    +0.000 A 
ATOM      3  C   UNL A   1     -26.972   0.714  27.506  0.00  0.00    +0.000 A 
ATOM      4  C   UNL A   1     -28.105   0.774  26.642  0.00  0.00    +0.007 A 
ATOM      5  C   UNL A   1     -29.204   0.118  27.048  0.00  0.00    +0.080 A 
ATOM      6  C   UNL A   1     -29.182  -0.676  28.117  0.00  0.00    +0.007 A 
ENDROOT
BRANCH   3   7
ATOM      7  C   UNL A   1     -25.660   1.415  27.142  0.00  0.00    +0.000 A 
ATOM      8  C   UNL A   1     -24.528   1.032  27.740  0.00  0.00    +0.000 A 
ATOM      9  C   UNL A   1     -23.300   1.795  27.418  0.00  0.00    +0.000 A 
ATOM     10  C   UNL A   1     -23.359   2.645  26.299  0.00  0.00    +0.000 A 
ATOM     11  C   UNL A   1     -25.499   2.357  26.113  0.00  0.00    +0.000 A 
ATOM     12  C   UNL A   1     -24.482   3.029  25.743  0.00  0.00    +0.000 A 
ENDBRANCH   3   7
BRANCH   5  13
ATOM     13  C   UNL A   1     -30.349   0.257  26.220  0.00  0.00    +0.388 C 
ATOM     14  O   UNL A   1     -31.339  -0.235  26.500  0.00  0.00    -0.241 OA
ATOM     15  O   UNL A   1     -30.376   1.159  25.271  0.00  0.00    -0.241 OA
ENDBRANCH   5  13
TORSDOF 2
