REMARK  Name = No_2989-gen_results/8p0m/2024-11-26-14-13-15/
REMARK  4 active torsions:
REMARK  status: ('A' for Active; 'I' for Inactive)
REMARK    1  A    between atoms: C_3  and  C_8
REMARK    2  A    between atoms: C_6  and  O_7
REMARK    3  A    between atoms: O_7  and  C_14
REMARK    4  A    between atoms: C_14  and  C_15
REMARK                            x       y       z     vdW  Elec       q    Type
REMARK                         _______ _______ _______ _____ _____    ______ ____
ROOT
ATOM      1  C   UNL A   1     -28.016  -0.814  28.878  0.00  0.00    +0.037 A 
ATOM      2  C   UNL A   1     -27.064  -0.119  28.608  0.00  0.00    +0.003 A 
ATOM      3  C   UNL A   1     -25.765  -0.390  29.036  0.00  0.00    +0.000 A 
ATOM      4  C   UNL A   1     -25.530  -1.530  29.901  0.00  0.00    +0.003 A 
ATOM      5  C   UNL A   1     -26.689  -2.289  30.181  0.00  0.00    +0.037 A 
ATOM      6  C   UNL A   1     -27.873  -1.951  29.737  0.00  0.00    +0.139 A 
ENDROOT
BRANCH   3   7
ATOM      7  C   UNL A   1     -24.539   0.421  28.742  0.00  0.00    +0.000 A 
ATOM      8  C   UNL A   1     -23.346   0.114  29.169  0.00  0.00    +0.000 A 
ATOM      9  C   UNL A   1     -22.194   0.874  28.755  0.00  0.00    +0.000 A 
ATOM     10  C   UNL A   1     -22.361   1.834  27.695  0.00  0.00    +0.000 A 
ATOM     11  C   UNL A   1     -24.598   1.358  27.640  0.00  0.00    +0.000 A 
ATOM     12  C   UNL A   1     -23.546   2.083  27.233  0.00  0.00    +0.000 A 
ENDBRANCH   3   7
BRANCH   6  13
ATOM     13  O   UNL A   1     -28.930  -2.730  30.115  0.00  0.00    -0.471 OA
BRANCH  13  14
ATOM     14  C   UNL A   1     -30.063  -2.219  30.576  0.00  0.00    +0.232 C 
BRANCH  14  15
ATOM     15  C   UNL A   1     -31.102  -2.917  30.226  0.00  0.00    +0.021 A 
ATOM     16  C   UNL A   1     -32.429  -2.384  30.422  0.00  0.00    +0.002 A 
ATOM     17  C   UNL A   1     -33.523  -2.956  29.938  0.00  0.00    +0.029 A 
ATOM     18  C   UNL A   1     -31.215  -4.190  29.623  0.00  0.00    +0.002 A 
ATOM     19  C   UNL A   1     -32.284  -4.828  29.128  0.00  0.00    +0.029 A 
ATOM     20  C   UNL A   1     -33.494  -4.219  29.326  0.00  0.00    +0.140 A 
ATOM     21  F   UNL A   1     -34.589  -4.870  28.928  0.00  0.00    -0.204 F 
ENDBRANCH  14  15
ENDBRANCH  13  14
ENDBRANCH   6  13
TORSDOF 4
