MODEL 2989
MODEL 1
REMARK VINA RESULT:    -6.856      0.000      0.000
REMARK INTER + INTRA:          -9.347
REMARK INTER:                  -8.460
REMARK INTRA:                  -0.888
REMARK UNBOUND:                -0.888
REMARK  Name = No_2989-gen_results/8p0m/2024-11-26-14-13-15/
REMARK  4 active torsions:
REMARK  status: ('A' for Active; 'I' for Inactive)
REMARK    1  A    between atoms: C_3  and  C_8
REMARK    2  A    between atoms: C_6  and  O_7
REMARK    3  A    between atoms: O_7  and  C_14
REMARK    4  A    between atoms: C_14  and  C_15
REMARK                            x       y       z     vdW  Elec       q    Type
REMARK                         _______ _______ _______ _____ _____    ______ ____
ROOT
ATOM      1  C   UNL A   1     -24.929   0.035  24.995  0.00  0.00    +0.037 A 
ATOM      2  C   UNL A   1     -26.014  -0.185  24.507  0.00  0.00    +0.003 A 
ATOM      3  C   UNL A   1     -27.068   0.727  24.526  0.00  0.00    +0.000 A 
ATOM      4  C   UNL A   1     -26.894   1.992  25.214  0.00  0.00    +0.003 A 
ATOM      5  C   UNL A   1     -25.606   2.175  25.767  0.00  0.00    +0.037 A 
ATOM      6  C   UNL A   1     -24.679   1.254  25.704  0.00  0.00    +0.139 A 
ENDROOT
BRANCH   3   7
ATOM      7  C   UNL A   1     -28.434   0.527  23.944  0.00  0.00    +0.000 A 
ATOM      8  C   UNL A   1     -29.098  -0.592  24.018  0.00  0.00    +0.000 A 
ATOM      9  C   UNL A   1     -30.453  -0.682  23.536  0.00  0.00    +0.000 A 
ATOM     10  C   UNL A   1     -31.126   0.539  23.177  0.00  0.00    +0.000 A 
ATOM     11  C   UNL A   1     -29.211   1.707  23.624  0.00  0.00    +0.000 A 
ATOM     12  C   UNL A   1     -30.471   1.657  23.170  0.00  0.00    +0.000 A 
ENDBRANCH   3   7
BRANCH   6  13
ATOM     13  O   UNL A   1     -23.488   1.519  26.321  0.00  0.00    -0.471 OA
BRANCH  13  14
ATOM     14  C   UNL A   1     -23.411   2.190  27.461  0.00  0.00    +0.232 C 
BRANCH  14  15
ATOM     15  C   UNL A   1     -23.257   1.409  28.488  0.00  0.00    +0.021 A 
ATOM     16  C   UNL A   1     -22.243   0.382  28.469  0.00  0.00    +0.002 A 
ATOM     17  C   UNL A   1     -21.912  -0.336  29.534  0.00  0.00    +0.029 A 
ATOM     18  C   UNL A   1     -23.919   1.361  29.736  0.00  0.00    +0.002 A 
ATOM     19  C   UNL A   1     -23.647   0.654  30.841  0.00  0.00    +0.029 A 
ATOM     20  C   UNL A   1     -22.636  -0.264  30.734  0.00  0.00    +0.140 A 
ATOM     21  F   UNL A   1     -22.399  -1.051  31.786  0.00  0.00    -0.204 F 
ENDBRANCH  14  15
ENDBRANCH  13  14
ENDBRANCH   6  13
TORSDOF 4
ENDMDL
ENDMDL
