MODEL 298
MODEL 1
REMARK VINA RESULT:    -5.918      0.000      0.000
REMARK INTER + INTRA:          -8.651
REMARK INTER:                  -7.647
REMARK INTRA:                  -1.004
REMARK UNBOUND:                -1.004
REMARK  Name = No_298-gen_results/8p0m/2024-11-26-14-13-15/
REMARK  5 active torsions:
REMARK  status: ('A' for Active; 'I' for Inactive)
REMARK    1  A    between atoms: C_2  and  C_5
REMARK    2  A    between atoms: C_4  and  C_11
REMARK    3  A    between atoms: C_11  and  C_12
REMARK    4  A    between atoms: C_13  and  N_18
REMARK    5  A    between atoms: N_18  and  C_19
REMARK                            x       y       z     vdW  Elec       q    Type
REMARK                         _______ _______ _______ _____ _____    ______ ____
ROOT
ATOM      1  C   UNL A   1     -26.441  -2.441  29.658  0.00  0.00    +0.018 A 
ATOM      2  C   UNL A   1     -25.716  -3.188  29.491  0.00  0.00    +0.081 A 
ATOM      3  C   UNL A   1     -25.968  -1.019  29.460  0.00  0.00    +0.054 A 
ATOM      4  C   UNL A   1     -24.676  -0.786  28.942  0.00  0.00    -0.007 A 
ATOM      5  C   UNL A   1     -23.886  -1.888  28.708  0.00  0.00    -0.003 A 
ATOM      6  C   UNL A   1     -24.374  -3.157  28.917  0.00  0.00    +0.006 A 
ATOM      7 CL   UNL A   1     -26.915   0.374  29.765  0.00  0.00    -0.083 Cl
ENDROOT
BRANCH   2   8
ATOM      8  C   UNL A   1     -26.188  -4.649  29.669  0.00  0.00    +0.388 C 
ATOM      9  O   UNL A   1     -27.361  -4.860  30.197  0.00  0.00    -0.241 OA
ATOM     10  O   UNL A   1     -25.317  -5.583  29.641  0.00  0.00    -0.241 OA
ENDBRANCH   2   8
BRANCH   4  11
ATOM     11  C   UNL A   1     -24.163   0.581  28.736  0.00  0.00    +0.055 C 
BRANCH  11  12
ATOM     12  C   UNL A   1     -23.594   1.218  28.028  0.00  0.00    -0.003 A 
ATOM     13  C   UNL A   1     -24.162   1.650  26.732  0.00  0.00    +0.067 A 
ATOM     14  C   UNL A   1     -23.410   2.034  25.613  0.00  0.00    +0.016 A 
ATOM     15  C   UNL A   1     -21.987   2.051  25.809  0.00  0.00    +0.001 A 
ATOM     16  C   UNL A   1     -22.125   1.192  27.954  0.00  0.00    -0.003 A 
ATOM     17  C   UNL A   1     -21.436   1.726  26.933  0.00  0.00    -0.000 A 
BRANCH  13  18
ATOM     18  N   UNL A   1     -25.580   1.648  26.654  0.00  0.00    -0.211 NA
BRANCH  18  19
ATOM     19  C   UNL A   1     -26.369   0.768  26.069  0.00  0.00    +0.086 C 
ATOM     20  C   UNL A   1     -25.780  -0.316  25.345  0.00  0.00    +0.019 C 
ENDBRANCH  18  19
ENDBRANCH  13  18
ENDBRANCH  11  12
ENDBRANCH   4  11
TORSDOF 5
ENDMDL
ENDMDL
