REMARK  Name = No_299-gen_results/8p0m/2024-11-26-14-13-15/
REMARK  4 active torsions:
REMARK  status: ('A' for Active; 'I' for Inactive)
REMARK    1  A    between atoms: C_2  and  C_8
REMARK    2  A    between atoms: C_4  and  C_11
REMARK    3  A    between atoms: C_11  and  C_12
REMARK    4  A    between atoms: C_11  and  C_13
REMARK                            x       y       z     vdW  Elec       q    Type
REMARK                         _______ _______ _______ _____ _____    ______ ____
ROOT
ATOM      1  C   UNL A   1     -28.016  -0.814  28.878  0.00  0.00    +0.018 A 
ATOM      2  C   UNL A   1     -28.469  -0.785  29.829  0.00  0.00    +0.081 A 
ATOM      3  C   UNL A   1     -27.087   0.290  28.638  0.00  0.00    +0.054 A 
ATOM      4  C   UNL A   1     -26.832   1.249  29.587  0.00  0.00    -0.002 A 
ATOM      5  C   UNL A   1     -28.391   0.080  31.006  0.00  0.00    +0.006 A 
ATOM      6  C   UNL A   1     -27.494   1.152  30.784  0.00  0.00    -0.003 A 
ATOM      7 CL   UNL A   1     -26.209   0.394  27.165  0.00  0.00    -0.083 Cl
ENDROOT
BRANCH   2   8
ATOM      8  C   UNL A   1     -29.507  -1.897  30.405  0.00  0.00    +0.388 C 
ATOM      9  O   UNL A   1     -29.424  -2.633  31.200  0.00  0.00    -0.241 OA
ATOM     10  O   UNL A   1     -30.554  -1.964  29.508  0.00  0.00    -0.241 OA
ENDBRANCH   2   8
BRANCH   4  11
ATOM     11  C   UNL A   1     -25.890   2.368  29.305  0.00  0.00    +0.112 C 
BRANCH  11  12
ATOM     12  C   UNL A   1     -26.293   3.568  29.724  0.00  0.00    -0.021 C 
ATOM     13  C   UNL A   1     -26.440   3.948  30.783  0.00  0.00    -0.030 C 
ATOM     14  C   UNL A   1     -26.780   5.330  31.292  0.00  0.00    +0.030 C 
ENDBRANCH  11  12
BRANCH  11  15
ATOM     15  C   UNL A   1     -24.614   2.157  28.789  0.00  0.00    +0.326 C 
ATOM     16  F   UNL A   1     -23.674   1.926  29.624  0.00  0.00    -0.198 F 
ATOM     17  F   UNL A   1     -24.589   1.060  27.966  0.00  0.00    -0.198 F 
ENDBRANCH  11  15
ENDBRANCH   4  11
TORSDOF 4
