MODEL 2990
MODEL 1
REMARK VINA RESULT:    -6.246      0.000      0.000
REMARK INTER + INTRA:          -9.077
REMARK INTER:                  -8.072
REMARK INTRA:                  -1.006
REMARK UNBOUND:                -1.006
REMARK  Name = No_2990-gen_results/8p0m/2024-11-26-14-13-15/
REMARK  5 active torsions:
REMARK  status: ('A' for Active; 'I' for Inactive)
REMARK    1  A    between atoms: C_1  and  C_2
REMARK    2  A    between atoms: C_1  and  C_8
REMARK    3  A    between atoms: C_5  and  C_10
REMARK    4  A    between atoms: C_9  and  C_14
REMARK    5  A    between atoms: C_15  and  C_16
REMARK                            x       y       z     vdW  Elec       q    Type
REMARK                         _______ _______ _______ _____ _____    ______ ____
ROOT
ATOM      1  C   UNL A   1     -23.500   0.995  29.741  0.00  0.00    -0.018 A 
ATOM      2  C   UNL A   1     -22.408   0.771  29.068  0.00  0.00    -0.004 A 
ATOM      3  C   UNL A   1     -22.134   1.195  27.673  0.00  0.00    +0.004 A 
ATOM      4  C   UNL A   1     -23.190   1.871  26.999  0.00  0.00    +0.071 A 
ATOM      5  C   UNL A   1     -24.364   2.056  27.684  0.00  0.00    +0.004 A 
ATOM      6  C   UNL A   1     -24.579   1.640  28.953  0.00  0.00    -0.004 A 
ENDROOT
BRANCH   4   7
ATOM      7  C   UNL A   1     -23.022   2.352  25.649  0.00  0.00    +0.419 C 
ATOM      8  F   UNL A   1     -23.481   3.421  25.380  0.00  0.00    -0.166 F 
ATOM      9  F   UNL A   1     -21.691   2.271  25.228  0.00  0.00    -0.166 F 
ATOM     10  F   UNL A   1     -23.557   1.392  24.730  0.00  0.00    -0.166 F 
ENDBRANCH   4   7
BRANCH   1  11
ATOM     11  C   UNL A   1     -23.755   0.660  30.875  0.00  0.00    +0.052 C 
BRANCH  11  12
ATOM     12  C   UNL A   1     -23.099  -0.653  31.297  0.00  0.00    -0.021 C 
ATOM     13  C   UNL A   1     -23.677  -1.744  31.143  0.00  0.00    -0.004 C 
BRANCH  13  14
ATOM     14  C   UNL A   1     -24.959  -1.809  30.523  0.00  0.00    -0.000 C 
ATOM     15  C   UNL A   1     -25.139  -2.472  29.318  0.00  0.00    -0.000 C 
BRANCH  15  16
ATOM     16  C   UNL A   1     -24.130  -3.270  28.804  0.00  0.00    -0.000 C 
ATOM     17  C   UNL A   1     -24.239  -4.626  28.690  0.00  0.00    -0.000 C 
ENDBRANCH  15  16
ENDBRANCH  13  14
ENDBRANCH  11  12
ENDBRANCH   1  11
TORSDOF 5
ENDMDL
ENDMDL
