REMARK  Name = No_2991-gen_results/8p0m/2024-11-26-14-13-15/
REMARK  2 active torsions:
REMARK  status: ('A' for Active; 'I' for Inactive)
REMARK    1  A    between atoms: C_2  and  C_10
REMARK    2  A    between atoms: C_6  and  C_7
REMARK                            x       y       z     vdW  Elec       q    Type
REMARK                         _______ _______ _______ _____ _____    ______ ____
ROOT
ATOM      1  C   UNL A   1     -28.016  -0.814  28.878  0.00  0.00    +0.007 A 
ATOM      2  C   UNL A   1     -27.064  -0.119  28.608  0.00  0.00    -0.000 A 
ATOM      3  C   UNL A   1     -25.792  -0.430  29.076  0.00  0.00    -0.000 A 
ATOM      4  C   UNL A   1     -25.576  -1.565  29.936  0.00  0.00    +0.000 A 
ATOM      5  C   UNL A   1     -26.735  -2.300  30.217  0.00  0.00    +0.007 A 
ATOM      6  C   UNL A   1     -27.918  -1.954  29.763  0.00  0.00    +0.080 A 
ENDROOT
BRANCH   6   7
ATOM      7  C   UNL A   1     -29.073  -2.784  30.178  0.00  0.00    +0.388 C 
ATOM      8  O   UNL A   1     -29.002  -3.985  30.235  0.00  0.00    -0.241 OA
ATOM      9  O   UNL A   1     -30.181  -2.190  30.460  0.00  0.00    -0.241 OA
ENDBRANCH   6   7
BRANCH   2  10
ATOM     10  C   UNL A   1     -27.095   1.110  27.755  0.00  0.00    -0.005 C 
ATOM     11  C   UNL A   1     -26.199   1.441  26.917  0.00  0.00    -0.026 C 
ATOM     12  C   UNL A   1     -24.823   0.909  27.190  0.00  0.00    +0.031 C 
ENDBRANCH   2  10
TORSDOF 2
