MODEL 2992
MODEL 1
REMARK VINA RESULT:    -9.187      0.000      0.000
REMARK INTER + INTRA:          -9.572
REMARK INTER:                 -10.261
REMARK INTRA:                   0.689
REMARK UNBOUND:                 0.689
REMARK  Name = No_2992-gen_results/8p0m/2024-11-26-14-13-15/
REMARK  2 active torsions:
REMARK  status: ('A' for Active; 'I' for Inactive)
REMARK    1  A    between atoms: C_10  and  C_11
REMARK    2  A    between atoms: N_13  and  C_14
REMARK                            x       y       z     vdW  Elec       q    Type
REMARK                         _______ _______ _______ _____ _____    ______ ____
ROOT
ATOM      1  C   UNL A   1     -25.395   0.323  25.477  0.00  0.00    +0.249 C 
ATOM      2  O   UNL A   1     -24.980   0.037  24.384  0.00  0.00    -0.270 OA
ATOM      3  N   UNL A   1     -26.596   0.972  25.633  0.00  0.00    -0.271 N 
ATOM      4  C   UNL A   1     -27.131   1.351  26.898  0.00  0.00    +0.116 C 
ENDROOT
BRANCH   3   5
ATOM      5  C   UNL A   1     -27.551   0.959  24.496  0.00  0.00    +0.112 C 
ATOM      6  C   UNL A   1     -27.995  -0.126  24.027  0.00  0.00    +0.050 C 
ATOM      7  C   UNL A   1     -28.978  -0.447  23.825  0.00  0.00    -0.013 C 
ATOM      8  C   UNL A   1     -29.657  -1.214  23.728  0.00  0.00    +0.045 C 
ATOM      9  C   UNL A   1     -31.134  -1.236  23.553  0.00  0.00    -0.022 C 
ATOM     10  C   UNL A   1     -31.727  -0.083  23.511  0.00  0.00    -0.005 C 
ATOM     11  C   UNL A   1     -31.010   1.048  23.592  0.00  0.00    -0.009 C 
ATOM     12  C   UNL A   1     -29.711   0.971  23.750  0.00  0.00    -0.042 C 
ATOM     13  C   UNL A   1     -28.620   1.874  24.126  0.00  0.00    +0.047 C 
ATOM     14  C   UNL A   1     -30.114   1.803  22.775  0.00  0.00    +0.026 C 
ATOM     15  C   UNL A   1     -29.060  -1.588  23.448  0.00  0.00    +0.009 C 
ATOM     16 CL   UNL A   1     -27.969  -0.339  24.306  0.00  0.00    -0.086 Cl
ENDBRANCH   3   5
BRANCH   1  26
ATOM     17  C   UNL A   1     -23.228  -1.171  29.820  0.00  0.00    +0.000 A 
ATOM     18  C   UNL A   1     -23.831  -2.026  29.694  0.00  0.00    +0.000 A 
ATOM     19  C   UNL A   1     -23.426  -0.157  28.785  0.00  0.00    +0.000 A 
ATOM     20  C   UNL A   1     -22.773   1.171  28.801  0.00  0.00    +0.000 A 
ATOM     21  C   UNL A   1     -24.830  -2.447  28.722  0.00  0.00    +0.000 A 
ATOM     22  C   UNL A   1     -25.037  -1.520  27.721  0.00  0.00    +0.000 A 
ATOM     23  C   UNL A   1     -24.386  -0.344  27.757  0.00  0.00    +0.004 A 
ATOM     24  C   UNL A   1     -22.739   1.857  27.575  0.00  0.00    +0.000 A 
ATOM     25  C   UNL A   1     -23.739   1.729  26.647  0.00  0.00    +0.004 A 
ATOM     26  C   UNL A   1     -24.440   0.502  26.606  0.00  0.00    +0.054 A 
ENDBRANCH   1  26
TORSDOF 2
ENDMDL
ENDMDL
