REMARK  Name = No_2994-gen_results/8p0m/2024-11-26-14-13-15/
REMARK  3 active torsions:
REMARK  status: ('A' for Active; 'I' for Inactive)
REMARK    1  A    between atoms: C_2  and  C_11
REMARK    2  A    between atoms: C_3  and  C_14
REMARK    3  A    between atoms: C_14  and  C_15
REMARK                            x       y       z     vdW  Elec       q    Type
REMARK                         _______ _______ _______ _____ _____    ______ ____
ROOT
ATOM      1  C   UNL A   1     -28.016  -0.814  28.878  0.00  0.00    +0.003 A 
ATOM      2  C   UNL A   1     -28.469  -0.785  29.829  0.00  0.00    +0.080 A 
ATOM      3  C   UNL A   1     -26.546  -0.876  28.850  0.00  0.00    -0.018 A 
ATOM      4  C   UNL A   1     -25.804  -1.032  30.057  0.00  0.00    -0.004 A 
ATOM      5  C   UNL A   1     -27.944  -0.987  31.207  0.00  0.00    +0.007 A 
ATOM      6  C   UNL A   1     -26.582  -1.039  31.223  0.00  0.00    -0.000 A 
ATOM      7  C   UNL A   1     -24.381  -1.108  30.085  0.00  0.00    -0.000 A 
ATOM      8  C   UNL A   1     -23.759  -1.132  30.896  0.00  0.00    -0.000 A 
ATOM      9  C   UNL A   1     -24.356  -0.770  32.249  0.00  0.00    -0.000 A 
ATOM     10  C   UNL A   1     -25.765  -0.895  32.403  0.00  0.00    -0.000 A 
ENDROOT
BRANCH   2  11
ATOM     11  C   UNL A   1     -30.076  -0.831  30.023  0.00  0.00    +0.388 C 
ATOM     12  O   UNL A   1     -30.698  -0.073  29.404  0.00  0.00    -0.241 OA
ATOM     13  O   UNL A   1     -30.662  -1.659  30.818  0.00  0.00    -0.241 OA
ENDBRANCH   2  11
BRANCH   3  14
ATOM     14  C   UNL A   1     -25.785  -0.831  27.562  0.00  0.00    +0.053 C 
BRANCH  14  15
ATOM     15  C   UNL A   1     -25.600   0.519  27.027  0.00  0.00    -0.018 A 
ATOM     16  C   UNL A   1     -24.508   1.077  27.327  0.00  0.00    -0.004 A 
ATOM     17  C   UNL A   1     -24.042   2.103  27.308  0.00  0.00    -0.000 A 
ATOM     18  C   UNL A   1     -24.704   3.085  26.388  0.00  0.00    -0.000 A 
ATOM     19  C   UNL A   1     -26.514   1.083  26.162  0.00  0.00    -0.004 A 
ATOM     20  C   UNL A   1     -25.954   2.741  26.029  0.00  0.00    -0.000 A 
ENDBRANCH  14  15
ENDBRANCH   3  14
TORSDOF 3
