MODEL 2994
MODEL 1
REMARK VINA RESULT:    -7.676      0.000      0.000
REMARK INTER + INTRA:          -9.748
REMARK INTER:                  -9.023
REMARK INTRA:                  -0.725
REMARK UNBOUND:                -0.725
REMARK  Name = No_2994-gen_results/8p0m/2024-11-26-14-13-15/
REMARK  3 active torsions:
REMARK  status: ('A' for Active; 'I' for Inactive)
REMARK    1  A    between atoms: C_2  and  C_11
REMARK    2  A    between atoms: C_3  and  C_14
REMARK    3  A    between atoms: C_14  and  C_15
REMARK                            x       y       z     vdW  Elec       q    Type
REMARK                         _______ _______ _______ _____ _____    ______ ____
ROOT
ATOM      1  C   UNL A   1     -23.499  -2.329  28.964  0.00  0.00    +0.003 A 
ATOM      2  C   UNL A   1     -24.329  -2.871  29.322  0.00  0.00    +0.080 A 
ATOM      3  C   UNL A   1     -23.327  -0.965  29.491  0.00  0.00    -0.018 A 
ATOM      4  C   UNL A   1     -24.168  -0.480  30.534  0.00  0.00    -0.004 A 
ATOM      5  C   UNL A   1     -25.300  -2.626  30.423  0.00  0.00    +0.007 A 
ATOM      6  C   UNL A   1     -25.178  -1.367  30.930  0.00  0.00    -0.000 A 
ATOM      7  C   UNL A   1     -24.037   0.828  31.087  0.00  0.00    -0.000 A 
ATOM      8  C   UNL A   1     -24.638   1.296  31.769  0.00  0.00    -0.000 A 
ATOM      9  C   UNL A   1     -25.998   0.671  32.050  0.00  0.00    -0.000 A 
ATOM     10  C   UNL A   1     -26.162  -0.712  31.756  0.00  0.00    -0.000 A 
ENDROOT
BRANCH   2  11
ATOM     11  C   UNL A   1     -24.586  -4.419  28.924  0.00  0.00    +0.388 C 
ATOM     12  O   UNL A   1     -23.824  -4.905  28.197  0.00  0.00    -0.241 OA
ATOM     13  O   UNL A   1     -25.580  -5.103  29.377  0.00  0.00    -0.241 OA
ENDBRANCH   2  11
BRANCH   3  14
ATOM     14  C   UNL A   1     -22.240  -0.065  28.993  0.00  0.00    +0.053 C 
BRANCH  14  15
ATOM     15  C   UNL A   1     -22.623   0.747  27.837  0.00  0.00    -0.018 A 
ATOM     16  C   UNL A   1     -23.776   0.523  27.374  0.00  0.00    -0.004 A 
ATOM     17  C   UNL A   1     -24.382   0.747  26.450  0.00  0.00    -0.000 A 
ATOM     18  C   UNL A   1     -23.882   1.895  25.625  0.00  0.00    -0.000 A 
ATOM     19  C   UNL A   1     -21.815   1.762  27.369  0.00  0.00    -0.004 A 
ATOM     20  C   UNL A   1     -22.604   2.232  25.874  0.00  0.00    -0.000 A 
ENDBRANCH  14  15
ENDBRANCH   3  14
TORSDOF 3
ENDMDL
ENDMDL
