REMARK  Name = No_2995-gen_results/8p0m/2024-11-26-14-13-15/
REMARK  0 active torsions:
REMARK  status: ('A' for Active; 'I' for Inactive)
REMARK                            x       y       z     vdW  Elec       q    Type
REMARK                         _______ _______ _______ _____ _____    ______ ____
ROOT
ATOM      1  C   UNL A   1     -28.016  -0.814  28.878  0.00  0.00    +0.029 A 
ATOM      2  C   UNL A   1     -27.064  -0.119  28.608  0.00  0.00    +0.140 A 
ATOM      3  C   UNL A   1     -26.929   1.171  29.008  0.00  0.00    +0.029 A 
ATOM      4  C   UNL A   1     -27.956   1.741  29.784  0.00  0.00    -0.002 A 
ATOM      5  C   UNL A   1     -29.057  -0.327  29.747  0.00  0.00    -0.002 A 
ATOM      6  C   UNL A   1     -28.983   0.972  30.152  0.00  0.00    -0.018 A 
ATOM      7  F   UNL A   1     -26.035  -0.599  27.863  0.00  0.00    -0.204 F 
ATOM      8  C   UNL A   1     -30.073   1.505  31.007  0.00  0.00    +0.053 C 
ATOM      9  C   UNL A   1     -31.074   1.074  31.188  0.00  0.00    -0.018 A 
ATOM     10  C   UNL A   1     -32.132   0.997  31.706  0.00  0.00    -0.004 A 
ATOM     11  C   UNL A   1     -33.035  -0.015  31.802  0.00  0.00    -0.000 A 
ATOM     12  C   UNL A   1     -32.773  -1.156  31.060  0.00  0.00    -0.000 A 
ATOM     13  C   UNL A   1     -31.654  -1.295  30.354  0.00  0.00    -0.000 A 
ATOM     14  C   UNL A   1     -30.734  -0.268  30.384  0.00  0.00    -0.004 A 
ENDROOT
TORSDOF 0
