MODEL 2996
MODEL 1
REMARK VINA RESULT:    -4.192      0.000      0.000
REMARK INTER + INTRA:          -4.489
REMARK INTER:                  -4.437
REMARK INTRA:                  -0.053
REMARK UNBOUND:                -0.053
REMARK  Name = No_2996-gen_results/8p0m/2024-11-26-14-13-15/
REMARK  1 active torsions:
REMARK  status: ('A' for Active; 'I' for Inactive)
REMARK    1  A    between atoms: C_4  and  C_7
REMARK                            x       y       z     vdW  Elec       q    Type
REMARK                         _______ _______ _______ _____ _____    ______ ____
ROOT
ATOM      1  C   UNL A   1     -24.845  -5.134  29.262  0.00  0.00    +0.003 C 
ATOM      2  C   UNL A   1     -25.871  -4.893  29.265  0.00  0.00    +0.019 C 
ATOM      3  C   UNL A   1     -23.934  -4.093  28.651  0.00  0.00    +0.022 C 
ATOM      4  C   UNL A   1     -24.052  -2.785  29.096  0.00  0.00    +0.095 C 
ATOM      5  C   UNL A   1     -26.387  -3.596  29.984  0.00  0.00    +0.089 C 
ATOM      6  N   UNL A   1     -25.553  -2.482  29.481  0.00  0.00    -0.215 NA
ENDROOT
BRANCH   4   7
ATOM      7  C   UNL A   1     -23.240  -1.766  29.081  0.00  0.00    -0.009 C 
ATOM      8  C   UNL A   1     -23.381  -0.647  29.086  0.00  0.00    -0.004 C 
ENDBRANCH   4   7
TORSDOF 1
ENDMDL
ENDMDL
