REMARK  Name = No_2996-gen_results/8p0m/2024-11-26-14-13-15/
REMARK  1 active torsions:
REMARK  status: ('A' for Active; 'I' for Inactive)
REMARK    1  A    between atoms: C_4  and  C_7
REMARK                            x       y       z     vdW  Elec       q    Type
REMARK                         _______ _______ _______ _____ _____    ______ ____
ROOT
ATOM      1  C   UNL A   1     -28.016  -0.814  28.878  0.00  0.00    +0.003 C 
ATOM      2  C   UNL A   1     -28.469  -0.785  29.829  0.00  0.00    +0.019 C 
ATOM      3  C   UNL A   1     -26.504  -0.778  28.877  0.00  0.00    +0.022 C 
ATOM      4  C   UNL A   1     -25.831  -1.681  29.685  0.00  0.00    +0.095 C 
ATOM      5  C   UNL A   1     -28.149  -1.885  30.903  0.00  0.00    +0.089 C 
ATOM      6  N   UNL A   1     -26.674  -1.966  30.989  0.00  0.00    -0.215 NA
ENDROOT
BRANCH   4   7
ATOM      7  C   UNL A   1     -24.623  -2.167  29.658  0.00  0.00    -0.009 C 
ATOM      8  C   UNL A   1     -24.087  -2.908  28.998  0.00  0.00    -0.004 C 
ENDBRANCH   4   7
TORSDOF 1
