REMARK  Name = No_2997-gen_results/8p0m/2024-11-26-14-13-15/
REMARK  5 active torsions:
REMARK  status: ('A' for Active; 'I' for Inactive)
REMARK    1  A    between atoms: C_2  and  O_7
REMARK    2  A    between atoms: C_4  and  C_14
REMARK    3  A    between atoms: O_7  and  C_8
REMARK    4  A    between atoms: C_14  and  C_16
REMARK    5  A    between atoms: C_17  and  C_18
REMARK                            x       y       z     vdW  Elec       q    Type
REMARK                         _______ _______ _______ _____ _____    ______ ____
ROOT
ATOM      1  C   UNL A   1     -28.016  -0.814  28.878  0.00  0.00    +0.037 A 
ATOM      2  C   UNL A   1     -28.469  -0.785  29.829  0.00  0.00    +0.145 A 
ATOM      3  C   UNL A   1     -26.504  -0.778  28.877  0.00  0.00    -0.001 A 
ATOM      4  C   UNL A   1     -25.810  -0.853  30.103  0.00  0.00    -0.018 A 
ATOM      5  C   UNL A   1     -27.991  -0.892  31.226  0.00  0.00    +0.037 A 
ATOM      6  C   UNL A   1     -26.604  -0.868  31.265  0.00  0.00    -0.001 A 
ENDROOT
BRANCH   4   7
ATOM      7  C   UNL A   1     -24.377  -0.883  30.130  0.00  0.00    +0.044 C 
ATOM      8  C   UNL A   1     -23.708  -1.194  30.873  0.00  0.00    +0.009 C 
BRANCH   7   9
ATOM      9  C   UNL A   1     -23.750  -0.507  28.804  0.00  0.00    -0.022 C 
ATOM     10  C   UNL A   1     -24.018   0.418  27.944  0.00  0.00    -0.005 C 
BRANCH  10  11
ATOM     11  C   UNL A   1     -23.588   1.795  27.959  0.00  0.00    -0.005 C 
ATOM     12  C   UNL A   1     -24.015   2.684  26.945  0.00  0.00    -0.026 C 
ATOM     13  C   UNL A   1     -24.988   2.271  26.039  0.00  0.00    +0.031 C 
ENDBRANCH  10  11
ENDBRANCH   7   9
ENDBRANCH   4   7
BRANCH   2  14
ATOM     14  O   UNL A   1     -29.939  -0.819  29.836  0.00  0.00    -0.454 OA
BRANCH  14  15
ATOM     15  C   UNL A   1     -30.639   0.234  30.252  0.00  0.00    +0.145 A 
ATOM     16  C   UNL A   1     -31.760   0.224  30.039  0.00  0.00    +0.037 A 
ATOM     17  C   UNL A   1     -32.604   1.405  30.411  0.00  0.00    +0.003 A 
ATOM     18  C   UNL A   1     -31.925   2.473  31.046  0.00  0.00    +0.000 A 
ATOM     19  C   UNL A   1     -30.580   2.381  31.258  0.00  0.00    +0.003 A 
ATOM     20  C   UNL A   1     -29.858   1.305  30.884  0.00  0.00    +0.037 A 
ENDBRANCH  14  15
ENDBRANCH   2  14
TORSDOF 5
