REMARK  Name = No_2998-gen_results/8p0m/2024-11-26-14-13-15/
REMARK  7 active torsions:
REMARK  status: ('A' for Active; 'I' for Inactive)
REMARK    1  A    between atoms: C_2  and  C_11
REMARK    2  A    between atoms: C_3  and  C_4
REMARK    3  A    between atoms: C_11  and  O_12
REMARK    4  A    between atoms: O_12  and  C_14
REMARK    5  A    between atoms: C_14  and  C_15
REMARK    6  A    between atoms: N_17  and  C_18
REMARK    7  A    between atoms: N_17  and  C_25
REMARK                            x       y       z     vdW  Elec       q    Type
REMARK                         _______ _______ _______ _____ _____    ______ ____
ROOT
ATOM      1  C   UNL A   1     -31.941   0.095  30.838  0.00  0.00    +0.294 C 
ENDROOT
BRANCH   1   2
ATOM      2  C   UNL A   1     -32.590   1.141  31.716  0.00  0.00    +0.278 C 
ATOM      3  O   UNL A   1     -31.882   1.758  32.432  0.00  0.00    -0.270 OA
ATOM      4  N   UNL A   1     -33.865   1.364  31.556  0.00  0.00    -0.233 N 
BRANCH   4   5
ATOM      5  C   UNL A   1     -34.501   2.386  32.410  0.00  0.00    +0.058 A 
ATOM      6  C   UNL A   1     -35.658   2.551  32.244  0.00  0.00    +0.016 A 
ATOM      7  C   UNL A   1     -36.402   3.540  33.093  0.00  0.00    +0.008 A 
ATOM      8  C   UNL A   1     -35.674   4.265  34.057  0.00  0.00    +0.035 A 
ATOM      9  C   UNL A   1     -34.289   3.975  34.146  0.00  0.00    +0.008 A 
ATOM     10  C   UNL A   1     -33.696   3.077  33.381  0.00  0.00    +0.016 A 
ATOM     11 BR   UNL A   1     -36.547   5.489  35.108  0.00  0.00    -0.049 Br
ENDBRANCH   4   5
BRANCH   4  12
ATOM     12  C   UNL A   1     -34.655   0.662  30.661  0.00  0.00    +0.068 C 
ATOM     13  C   UNL A   1     -35.545   1.354  30.090  0.00  0.00    -0.009 C 
ATOM     14  C   UNL A   1     -36.337   2.089  31.057  0.00  0.00    +0.032 C 
ENDBRANCH   4  12
ENDBRANCH   1   2
BRANCH   1  15
ATOM     15  O   UNL A   1     -30.666  -0.048  30.745  0.00  0.00    -0.435 OA
BRANCH  15  16
ATOM     16  C   UNL A   1     -30.051  -0.808  29.883  0.00  0.00    +0.342 C 
ATOM     17  O   UNL A   1     -30.649  -1.407  29.017  0.00  0.00    -0.245 OA
BRANCH  16  19
ATOM     18  C   UNL A   1     -28.016  -0.814  28.878  0.00  0.00    +0.010 A 
ATOM     19  C   UNL A   1     -28.469  -0.785  29.829  0.00  0.00    +0.076 A 
ATOM     20  C   UNL A   1     -26.504  -0.778  28.877  0.00  0.00    +0.072 A 
ATOM     21  C   UNL A   1     -27.918  -0.937  31.182  0.00  0.00    +0.006 A 
ATOM     22  C   UNL A   1     -26.542  -0.940  31.261  0.00  0.00    +0.000 A 
ATOM     23  C   UNL A   1     -25.783  -0.893  30.120  0.00  0.00    +0.004 A 
BRANCH  20  24
ATOM     24  C   UNL A   1     -25.654  -0.660  27.719  0.00  0.00    +0.419 C 
ATOM     25  F   UNL A   1     -26.151  -0.971  26.710  0.00  0.00    -0.166 F 
ATOM     26  F   UNL A   1     -24.448  -1.395  27.891  0.00  0.00    -0.166 F 
ATOM     27  F   UNL A   1     -25.129   0.673  27.622  0.00  0.00    -0.166 F 
ENDBRANCH  20  24
ENDBRANCH  16  19
ENDBRANCH  15  16
ENDBRANCH   1  15
TORSDOF 7
