MODEL 2998
MODEL 1
REMARK VINA RESULT:    -6.675      0.000      0.000
REMARK INTER + INTRA:          -9.829
REMARK INTER:                  -9.407
REMARK INTRA:                  -0.422
REMARK UNBOUND:                -0.422
REMARK  Name = No_2998-gen_results/8p0m/2024-11-26-14-13-15/
REMARK  7 active torsions:
REMARK  status: ('A' for Active; 'I' for Inactive)
REMARK    1  A    between atoms: C_2  and  C_11
REMARK    2  A    between atoms: C_3  and  C_4
REMARK    3  A    between atoms: C_11  and  O_12
REMARK    4  A    between atoms: O_12  and  C_14
REMARK    5  A    between atoms: C_14  and  C_15
REMARK    6  A    between atoms: N_17  and  C_18
REMARK    7  A    between atoms: N_17  and  C_25
REMARK                            x       y       z     vdW  Elec       q    Type
REMARK                         _______ _______ _______ _____ _____    ______ ____
ROOT
ATOM      1  C   UNL A   1     -10.043   3.099  34.947  0.00  0.00    +0.294 C 
ENDROOT
BRANCH   1   2
ATOM      2  C   UNL A   1      -8.942   2.132  34.575  0.00  0.00    +0.278 C 
ATOM      3  O   UNL A   1      -8.631   2.081  33.437  0.00  0.00    -0.270 OA
ATOM      4  N   UNL A   1      -8.340   1.494  35.540  0.00  0.00    -0.233 N 
BRANCH   4   5
ATOM      5  C   UNL A   1      -7.264   0.551  35.181  0.00  0.00    +0.058 A 
ATOM      6  C   UNL A   1      -6.168   0.884  35.466  0.00  0.00    +0.016 A 
ATOM      7  C   UNL A   1      -5.010  -0.026  35.178  0.00  0.00    +0.008 A 
ATOM      8  C   UNL A   1      -5.276  -1.256  34.544  0.00  0.00    +0.035 A 
ATOM      9  C   UNL A   1      -6.636  -1.528  34.249  0.00  0.00    +0.008 A 
ATOM     10  C   UNL A   1      -7.613  -0.692  34.547  0.00  0.00    +0.016 A 
ATOM     11 BR   UNL A   1      -3.886  -2.392  34.168  0.00  0.00    -0.049 Br
ENDBRANCH   4   5
BRANCH   4  12
ATOM     12  C   UNL A   1      -8.690   1.624  36.874  0.00  0.00    +0.068 C 
ATOM     13  C   UNL A   1      -9.043   0.547  37.433  0.00  0.00    -0.009 C 
ATOM     14  C   UNL A   1     -10.069  -0.131  36.663  0.00  0.00    +0.032 C 
ENDBRANCH   4  12
ENDBRANCH   1   2
BRANCH   1  15
ATOM     15  O   UNL A   1     -11.200   3.091  34.386  0.00  0.00    -0.435 OA
BRANCH  15  16
ATOM     16  C   UNL A   1     -12.165   2.256  34.654  0.00  0.00    +0.342 C 
ATOM     17  O   UNL A   1     -12.228   1.164  34.135  0.00  0.00    -0.245 OA
BRANCH  16  19
ATOM     18  C   UNL A   1     -14.068   3.061  35.592  0.00  0.00    +0.010 A 
ATOM     19  C   UNL A   1     -13.160   2.586  35.840  0.00  0.00    +0.076 A 
ATOM     20  C   UNL A   1     -14.991   3.345  36.756  0.00  0.00    +0.072 A 
ATOM     21  C   UNL A   1     -12.505   2.336  37.130  0.00  0.00    +0.006 A 
ATOM     22  C   UNL A   1     -13.276   2.597  38.243  0.00  0.00    +0.000 A 
ATOM     23  C   UNL A   1     -14.529   3.137  38.106  0.00  0.00    +0.004 A 
BRANCH  20  24
ATOM     24  C   UNL A   1     -16.340   3.846  36.673  0.00  0.00    +0.419 C 
ATOM     25  F   UNL A   1     -16.915   3.553  35.701  0.00  0.00    -0.166 F 
ATOM     26  F   UNL A   1     -16.372   5.260  36.826  0.00  0.00    -0.166 F 
ATOM     27  F   UNL A   1     -17.090   3.447  37.831  0.00  0.00    -0.166 F 
ENDBRANCH  20  24
ENDBRANCH  16  19
ENDBRANCH  15  16
ENDBRANCH   1  15
TORSDOF 7
ENDMDL
ENDMDL
