MODEL 2999
MODEL 1
REMARK VINA RESULT:    -5.810      0.000      0.000
REMARK INTER + INTRA:          -6.324
REMARK INTER:                  -6.150
REMARK INTRA:                  -0.174
REMARK UNBOUND:                -0.174
REMARK  Name = No_2999-gen_results/8p0m/2024-11-26-14-13-15/
REMARK  1 active torsions:
REMARK  status: ('A' for Active; 'I' for Inactive)
REMARK    1  A    between atoms: C_3  and  C_7
REMARK                            x       y       z     vdW  Elec       q    Type
REMARK                         _______ _______ _______ _____ _____    ______ ____
ROOT
ATOM      1  C   UNL A   1     -24.934  -5.051  28.979  0.00  0.00    +0.000 A 
ATOM      2  C   UNL A   1     -24.127  -4.212  28.651  0.00  0.00    +0.001 A 
ATOM      3  C   UNL A   1     -24.263  -2.856  28.945  0.00  0.00    +0.016 A 
ATOM      4  C   UNL A   1     -25.457  -2.398  29.630  0.00  0.00    +0.001 A 
ATOM      5  C   UNL A   1     -26.357  -3.432  29.972  0.00  0.00    +0.000 A 
ATOM      6  C   UNL A   1     -26.146  -4.682  29.646  0.00  0.00    +0.000 A 
ENDROOT
BRANCH   3   7
ATOM      7  C   UNL A   1     -23.409  -1.640  28.744  0.00  0.00    +0.086 C 
ATOM      8  N   UNL A   1     -22.376  -1.559  29.197  0.00  0.00    -0.152 NA
ATOM      9  N   UNL A   1     -21.837  -0.319  28.969  0.00  0.00    -0.151 NA
ATOM     10  C   UNL A   1     -23.849  -0.429  28.302  0.00  0.00    +0.096 C 
ATOM     11  C   UNL A   1     -22.788   0.360  28.427  0.00  0.00    +0.102 C 
ENDBRANCH   3   7
TORSDOF 1
ENDMDL
ENDMDL
