REMARK  Name = No_2999-gen_results/8p0m/2024-11-26-14-13-15/
REMARK  1 active torsions:
REMARK  status: ('A' for Active; 'I' for Inactive)
REMARK    1  A    between atoms: C_3  and  C_7
REMARK                            x       y       z     vdW  Elec       q    Type
REMARK                         _______ _______ _______ _____ _____    ______ ____
ROOT
ATOM      1  C   UNL A   1     -28.016  -0.814  28.878  0.00  0.00    +0.000 A 
ATOM      2  C   UNL A   1     -27.064  -0.119  28.608  0.00  0.00    +0.001 A 
ATOM      3  C   UNL A   1     -25.765  -0.390  29.036  0.00  0.00    +0.016 A 
ATOM      4  C   UNL A   1     -25.530  -1.530  29.901  0.00  0.00    +0.001 A 
ATOM      5  C   UNL A   1     -26.689  -2.289  30.181  0.00  0.00    +0.000 A 
ATOM      6  C   UNL A   1     -27.873  -1.951  29.737  0.00  0.00    +0.000 A 
ENDROOT
BRANCH   3   7
ATOM      7  C   UNL A   1     -24.421   0.230  28.793  0.00  0.00    +0.086 C 
ATOM      8  N   UNL A   1     -24.043   1.091  29.421  0.00  0.00    -0.152 NA
ATOM      9  N   UNL A   1     -22.846   1.557  28.942  0.00  0.00    -0.151 NA
ATOM     10  C   UNL A   1     -23.672   0.076  27.666  0.00  0.00    +0.096 C 
ATOM     11  C   UNL A   1     -22.657   0.915  27.842  0.00  0.00    +0.102 C 
ENDBRANCH   3   7
TORSDOF 1
