MODEL 299
MODEL 1
REMARK VINA RESULT:    -5.687      0.000      0.000
REMARK INTER + INTRA:          -7.856
REMARK INTER:                  -7.017
REMARK INTRA:                  -0.838
REMARK UNBOUND:                -0.838
REMARK  Name = No_299-gen_results/8p0m/2024-11-26-14-13-15/
REMARK  4 active torsions:
REMARK  status: ('A' for Active; 'I' for Inactive)
REMARK    1  A    between atoms: C_2  and  C_8
REMARK    2  A    between atoms: C_4  and  C_11
REMARK    3  A    between atoms: C_11  and  C_12
REMARK    4  A    between atoms: C_11  and  C_13
REMARK                            x       y       z     vdW  Elec       q    Type
REMARK                         _______ _______ _______ _____ _____    ______ ____
ROOT
ATOM      1  C   UNL A   1     -25.020  -1.054  27.754  0.00  0.00    +0.018 A 
ATOM      2  C   UNL A   1     -24.248  -1.225  28.451  0.00  0.00    +0.081 A 
ATOM      3  C   UNL A   1     -24.852   0.179  26.986  0.00  0.00    +0.054 A 
ATOM      4  C   UNL A   1     -23.771   1.007  27.162  0.00  0.00    -0.002 A 
ATOM      5  C   UNL A   1     -23.014  -0.546  28.843  0.00  0.00    +0.006 A 
ATOM      6  C   UNL A   1     -22.842   0.650  28.105  0.00  0.00    -0.003 A 
ATOM      7 CL   UNL A   1     -25.978   0.612  25.763  0.00  0.00    -0.083 Cl
ENDROOT
BRANCH   2   8
ATOM      8  C   UNL A   1     -24.131  -2.531  29.415  0.00  0.00    +0.388 C 
ATOM      9  O   UNL A   1     -23.879  -3.568  29.213  0.00  0.00    -0.241 OA
ATOM     10  O   UNL A   1     -24.678  -2.176  30.631  0.00  0.00    -0.241 OA
ENDBRANCH   2   8
BRANCH   4  11
ATOM     11  C   UNL A   1     -23.637   2.263  26.372  0.00  0.00    +0.112 C 
BRANCH  11  12
ATOM     12  C   UNL A   1     -24.202   3.340  26.919  0.00  0.00    -0.021 C 
ATOM     13  C   UNL A   1     -24.602   4.276  26.417  0.00  0.00    -0.030 C 
ATOM     14  C   UNL A   1     -25.351   5.456  26.994  0.00  0.00    +0.030 C 
ENDBRANCH  11  12
BRANCH  11  15
ATOM     15  C   UNL A   1     -22.845   2.346  25.230  0.00  0.00    +0.326 C 
ATOM     16  F   UNL A   1     -21.583   2.213  25.380  0.00  0.00    -0.198 F 
ATOM     17  F   UNL A   1     -23.168   1.359  24.333  0.00  0.00    -0.198 F 
ENDBRANCH  11  15
ENDBRANCH   4  11
TORSDOF 4
ENDMDL
ENDMDL
