MODEL 29
MODEL 1
REMARK VINA RESULT:    -6.422      0.000      0.000
REMARK INTER + INTRA:          -6.422
REMARK INTER:                  -6.422
REMARK INTRA:                   0.000
REMARK UNBOUND:                 0.000
REMARK  Name = No_29-gen_results/8p0m/2024-11-26-14-13-15/
REMARK  0 active torsions:
REMARK  status: ('A' for Active; 'I' for Inactive)
REMARK                            x       y       z     vdW  Elec       q    Type
REMARK                         _______ _______ _______ _____ _____    ______ ____
ROOT
ATOM      1  C   UNL A   1     -22.793  -1.075  31.635  0.00  0.00    +0.033 A 
ATOM      2  C   UNL A   1     -23.588  -0.757  32.249  0.00  0.00    +0.146 A 
ATOM      3  C   UNL A   1     -22.698  -0.520  30.340  0.00  0.00    -0.016 A 
ATOM      4  C   UNL A   1     -23.615   0.400  29.870  0.00  0.00    +0.034 A 
ATOM      5  C   UNL A   1     -24.684   0.200  31.998  0.00  0.00    +0.042 A 
ATOM      6  C   UNL A   1     -24.631   0.754  30.767  0.00  0.00    +0.006 A 
ATOM      7  C   UNL A   1     -21.706  -0.774  29.212  0.00  0.00    +0.030 C 
ATOM      8  C   UNL A   1     -21.181   0.039  28.516  0.00  0.00    +0.048 C 
ATOM      9  C   UNL A   1     -22.054   1.174  28.128  0.00  0.00    +0.222 C 
ATOM     10  C   UNL A   1     -23.210   1.426  28.903  0.00  0.00    +0.205 C 
ATOM     11  F   UNL A   1     -21.704   1.955  27.102  0.00  0.00    -0.229 F 
ATOM     12  O   UNL A   1     -23.999   2.479  28.555  0.00  0.00    -0.288 OA
ATOM     13  O   UNL A   1     -23.797  -1.393  33.564  0.00  0.00    -0.442 OA
ATOM     14  C   UNL A   1     -24.440  -0.804  34.585  0.00  0.00    +0.222 C 
ATOM     15  C   UNL A   1     -25.659   0.535  33.021  0.00  0.00    +0.048 C 
ATOM     16  C   UNL A   1     -25.660  -0.129  34.282  0.00  0.00    -0.061 C 
ENDROOT
TORSDOF 0
ENDMDL
ENDMDL
