MODEL 2
MODEL 1
REMARK VINA RESULT:    -5.999      0.000      0.000
REMARK INTER + INTRA:         -14.784
REMARK INTER:                 -10.908
REMARK INTRA:                  -3.876
REMARK UNBOUND:                -3.876
REMARK  Name = No_2-gen_results/8p0m/2024-11-26-14-13-15/
REMARK  14 active torsions:
REMARK  status: ('A' for Active; 'I' for Inactive)
REMARK    1  A    between atoms: C_1  and  C_15
REMARK    2  A    between atoms: C_4  and  C_11
REMARK    3  A    between atoms: C_4  and  C_21
REMARK    4  A    between atoms: C_5  and  C_6
REMARK    5  A    between atoms: C_6  and  O_9
REMARK    6  A    between atoms: O_9  and  P_27
REMARK    7  A    between atoms: C_11  and  C_12
REMARK    8  A    between atoms: C_12  and  C_14
REMARK    9  A    between atoms: C_14  and  C_22
REMARK   10  A    between atoms: C_21  and  C_24
REMARK   11  A    between atoms: C_22  and  O_23
REMARK   12  A    between atoms: O_23  and  C_32
REMARK   13  A    between atoms: C_24  and  C_25
REMARK   14  A    between atoms: C_32  and  C_33
REMARK                            x       y       z     vdW  Elec       q    Type
REMARK                         _______ _______ _______ _____ _____    ______ ____
ROOT
ATOM      1  C   UNL A   1     -28.817 -11.691   9.918  0.00  0.00    +0.023 C 
ATOM      2  C   UNL A   1     -28.749 -12.244   9.023  0.00  0.00    +0.013 C 
ATOM      3  C   UNL A   1     -30.150 -11.767  10.628  0.00  0.00    +0.007 C 
ATOM      4  C   UNL A   1     -30.686 -13.021  10.874  0.00  0.00    +0.033 C 
ATOM      5  C   UNL A   1     -28.995 -13.795   9.019  0.00  0.00    +0.091 C 
ATOM      6  C   UNL A   1     -30.502 -13.849   9.593  0.00  0.00    +0.011 C 
ENDROOT
BRANCH   1   7
ATOM      7  C   UNL A   1     -28.732 -10.138   9.558  0.00  0.00    -0.022 A 
ATOM      8  C   UNL A   1     -29.795  -9.421   9.537  0.00  0.00    -0.004 A 
ATOM      9  C   UNL A   1     -27.413  -9.565   9.498  0.00  0.00    -0.004 A 
ATOM     10  C   UNL A   1     -27.223  -8.240   9.425  0.00  0.00    -0.000 A 
ATOM     11  C   UNL A   1     -29.649  -7.973   9.320  0.00  0.00    -0.000 A 
ATOM     12  C   UNL A   1     -28.381  -7.417   9.268  0.00  0.00    -0.000 A 
ENDBRANCH   1   7
BRANCH   5  13
ATOM     13  C   UNL A   1     -28.620 -14.615   7.961  0.00  0.00    +0.373 C 
ATOM     14  F   UNL A   1     -29.101 -15.826   8.168  0.00  0.00    -0.174 F 
ATOM     15  F   UNL A   1     -29.087 -14.189   6.795  0.00  0.00    -0.174 F 
BRANCH  13  16
ATOM     16  O   UNL A   1     -27.219 -14.724   7.839  0.00  0.00    -0.217 OA
BRANCH  16  17
ATOM     17  P   UNL A   1     -26.405 -15.964   7.524  0.00  0.00    +0.536 P 
ATOM     18  O   UNL A   1     -26.751 -16.603   6.551  0.00  0.00    -0.114 OA
ATOM     19  O   UNL A   1     -24.991 -15.375   7.328  0.00  0.00    -0.114 OA
ATOM     20  O   UNL A   1     -26.329 -16.555   8.981  0.00  0.00    -0.222 OA
ENDBRANCH  16  17
ENDBRANCH  13  16
ENDBRANCH   5  13
BRANCH   4  21
ATOM     21  C   UNL A   1     -29.838 -13.695  12.033  0.00  0.00    +0.155 C 
ATOM     22  O   UNL A   1     -30.483 -13.244  13.204  0.00  0.00    -0.223 OA
BRANCH  21  23
ATOM     23  C   UNL A   1     -30.067 -15.086  11.947  0.00  0.00    +0.068 C 
BRANCH  23  24
ATOM     24  C   UNL A   1     -29.596 -15.486  13.174  0.00  0.00    +0.185 C 
ATOM     25  O   UNL A   1     -28.501 -15.889  13.196  0.00  0.00    -0.220 OA
ENDBRANCH  23  24
ENDBRANCH  21  23
ENDBRANCH   4  21
BRANCH   4  26
ATOM     26  C   UNL A   1     -32.117 -13.059  11.329  0.00  0.00    +0.025 C 
BRANCH  26  27
ATOM     27  C   UNL A   1     -33.066 -13.212  10.343  0.00  0.00    -0.042 C 
ATOM     28  C   UNL A   1     -33.828 -12.030   9.922  0.00  0.00    -0.009 C 
BRANCH  27  29
ATOM     29  C   UNL A   1     -34.148 -14.274  10.689  0.00  0.00    +0.054 C 
BRANCH  29  30
ATOM     30  C   UNL A   1     -34.033 -15.469   9.831  0.00  0.00    +0.147 C 
BRANCH  30  31
ATOM     31  O   UNL A   1     -34.501 -15.450   8.678  0.00  0.00    -0.351 OA
BRANCH  31  32
ATOM     32  C   UNL A   1     -33.641 -15.438   7.563  0.00  0.00    +0.137 C 
ATOM     33  C   UNL A   1     -32.515 -16.155   7.573  0.00  0.00    +0.037 C 
BRANCH  32  34
ATOM     34  C   UNL A   1     -33.640 -14.268   6.853  0.00  0.00    +0.003 C 
ATOM     35  C   UNL A   1     -32.635 -13.805   6.688  0.00  0.00    -0.002 C 
ENDBRANCH  32  34
ENDBRANCH  31  32
ENDBRANCH  30  31
ENDBRANCH  29  30
ENDBRANCH  27  29
ENDBRANCH  26  27
ENDBRANCH   4  26
TORSDOF 14
ENDMDL
ENDMDL
