REMARK  Name = No_3-gen_results/8p0m/2024-11-26-14-13-15/
REMARK  2 active torsions:
REMARK  status: ('A' for Active; 'I' for Inactive)
REMARK    1  A    between atoms: C_2  and  C_11
REMARK    2  A    between atoms: C_3  and  C_4
REMARK                            x       y       z     vdW  Elec       q    Type
REMARK                         _______ _______ _______ _____ _____    ______ ____
ROOT
ATOM      1  C   UNL A   1     -28.016  -0.814  28.878  0.00  0.00    +0.010 A 
ATOM      2  C   UNL A   1     -28.469  -0.785  29.829  0.00  0.00    +0.080 A 
ATOM      3  C   UNL A   1     -26.504  -0.778  28.877  0.00  0.00    +0.072 A 
ATOM      4  C   UNL A   1     -27.918  -0.937  31.182  0.00  0.00    +0.007 A 
ATOM      5  C   UNL A   1     -26.542  -0.940  31.261  0.00  0.00    +0.000 A 
ATOM      6  C   UNL A   1     -25.783  -0.893  30.120  0.00  0.00    +0.004 A 
ENDROOT
BRANCH   3   7
ATOM      7  C   UNL A   1     -25.654  -0.660  27.719  0.00  0.00    +0.419 C 
ATOM      8  F   UNL A   1     -24.529  -1.224  27.784  0.00  0.00    -0.166 F 
ATOM      9  F   UNL A   1     -25.414   0.686  27.421  0.00  0.00    -0.166 F 
ATOM     10  F   UNL A   1     -26.328  -1.005  26.554  0.00  0.00    -0.166 F 
ENDBRANCH   3   7
BRANCH   2  11
ATOM     11  C   UNL A   1     -30.052  -0.814  29.890  0.00  0.00    +0.388 C 
ATOM     12  O   UNL A   1     -30.671  -0.190  30.788  0.00  0.00    -0.241 OA
ATOM     13  O   UNL A   1     -30.636  -1.374  28.941  0.00  0.00    -0.241 OA
ENDBRANCH   2  11
TORSDOF 2
