REMARK  Name = No_30-gen_results/8p0m/2024-11-26-14-13-15/
REMARK  0 active torsions:
REMARK  status: ('A' for Active; 'I' for Inactive)
REMARK                            x       y       z     vdW  Elec       q    Type
REMARK                         _______ _______ _______ _____ _____    ______ ____
ROOT
ATOM      1  C   UNL A   1     -28.016  -0.814  28.878  0.00  0.00    -0.004 A 
ATOM      2  C   UNL A   1     -28.469  -0.785  29.829  0.00  0.00    -0.000 A 
ATOM      3  C   UNL A   1     -27.136   0.236  28.535  0.00  0.00    -0.015 A 
ATOM      4  C   UNL A   1     -26.875   1.282  29.398  0.00  0.00    +0.035 A 
ATOM      5  C   UNL A   1     -27.507   1.238  30.630  0.00  0.00    +0.003 A 
ATOM      6  C   UNL A   1     -28.329   0.174  30.935  0.00  0.00    +0.000 A 
ATOM      7  C   UNL A   1     -26.408   0.307  27.226  0.00  0.00    +0.053 C 
ATOM      8  C   UNL A   1     -25.713   1.490  26.921  0.00  0.00    -0.015 A 
ATOM      9  C   UNL A   1     -24.709   1.512  26.085  0.00  0.00    -0.004 A 
ATOM     10  C   UNL A   1     -23.882   2.770  25.955  0.00  0.00    -0.000 A 
ATOM     11  C   UNL A   1     -24.268   3.897  26.757  0.00  0.00    +0.000 A 
ATOM     12  C   UNL A   1     -25.359   3.817  27.552  0.00  0.00    +0.003 A 
ATOM     13  C   UNL A   1     -26.034   2.611  27.752  0.00  0.00    +0.035 A 
ATOM     14  C   UNL A   1     -26.282   2.476  28.956  0.00  0.00    +0.195 C 
ATOM     15  O   UNL A   1     -26.252   3.474  29.930  0.00  0.00    -0.287 OA
ENDROOT
TORSDOF 0
