MODEL 3000
MODEL 1
REMARK VINA RESULT:    -7.758      0.000      0.000
REMARK INTER + INTRA:         -13.422
REMARK INTER:                 -11.386
REMARK INTRA:                  -2.036
REMARK UNBOUND:                -2.036
REMARK  Name = No_3000-gen_results/8p0m/2024-11-26-14-13-15/
REMARK  8 active torsions:
REMARK  status: ('A' for Active; 'I' for Inactive)
REMARK    1  A    between atoms: C_2  and  C_5
REMARK    2  A    between atoms: C_3  and  C_11
REMARK    3  A    between atoms: C_12  and  C_26
REMARK    4  A    between atoms: C_14  and  C_15
REMARK    5  A    between atoms: C_18  and  C_19
REMARK    6  A    between atoms: C_26  and  N_27
REMARK    7  A    between atoms: C_28  and  C_30
REMARK    8  A    between atoms: C_32  and  C_33
REMARK                            x       y       z     vdW  Elec       q    Type
REMARK                         _______ _______ _______ _____ _____    ______ ____
ROOT
ATOM      1  C   UNL A   1     -24.575  -0.393  28.618  0.00  0.00    -0.002 A 
ATOM      2  C   UNL A   1     -24.663   0.113  27.536  0.00  0.00    -0.002 A 
ATOM      3  C   UNL A   1     -23.808   1.195  27.174  0.00  0.00    -0.003 A 
ATOM      4  C   UNL A   1     -23.982   0.379  29.666  0.00  0.00    -0.000 A 
ATOM      5  C   UNL A   1     -23.185   1.933  28.220  0.00  0.00    -0.000 A 
ATOM      6  C   UNL A   1     -23.341   1.503  29.446  0.00  0.00    -0.000 A 
ENDROOT
BRANCH   1   9
ATOM      7  C   UNL A   1     -24.764  -2.950  28.873  0.00  0.00    +0.004 A 
ATOM      8  C   UNL A   1     -25.322  -3.775  29.216  0.00  0.00    +0.071 A 
ATOM      9  C   UNL A   1     -25.303  -1.660  29.071  0.00  0.00    -0.000 A 
ATOM     10  C   UNL A   1     -26.527  -1.466  29.680  0.00  0.00    -0.000 A 
ATOM     11  C   UNL A   1     -27.174  -2.634  30.106  0.00  0.00    -0.000 A 
ATOM     12  C   UNL A   1     -26.577  -3.872  29.955  0.00  0.00    +0.004 A 
BRANCH   8  13
ATOM     13  C   UNL A   1     -24.768  -5.203  29.080  0.00  0.00    +0.419 C 
ATOM     14  F   UNL A   1     -24.573  -5.954  30.034  0.00  0.00    -0.166 F 
ATOM     15  F   UNL A   1     -25.525  -5.986  28.175  0.00  0.00    -0.166 F 
ATOM     16  F   UNL A   1     -23.577  -5.125  28.434  0.00  0.00    -0.166 F 
ENDBRANCH   8  13
ENDBRANCH   1   9
BRANCH   4  17
ATOM     17  C   UNL A   1     -24.008  -0.218  31.104  0.00  0.00    +0.006 A 
ATOM     18  C   UNL A   1     -24.936   0.478  32.038  0.00  0.00    +0.080 A 
ATOM     19  C   UNL A   1     -24.853  -0.145  33.376  0.00  0.00    +0.007 A 
ATOM     20  C   UNL A   1     -23.053  -1.111  31.528  0.00  0.00    +0.000 A 
ATOM     21  C   UNL A   1     -23.086  -1.717  32.796  0.00  0.00    +0.000 A 
ATOM     22  C   UNL A   1     -24.032  -1.170  33.735  0.00  0.00    +0.000 A 
BRANCH  18  23
ATOM     23  C   UNL A   1     -25.670   1.418  31.742  0.00  0.00    +0.388 C 
ATOM     24  O   UNL A   1     -25.317   2.642  31.909  0.00  0.00    -0.241 OA
ATOM     25  O   UNL A   1     -26.909   1.203  31.243  0.00  0.00    -0.241 OA
ENDBRANCH  18  23
ENDBRANCH   4  17
BRANCH   2  26
ATOM     26  C   UNL A   1     -25.214  -0.633  26.314  0.00  0.00    +0.120 C 
BRANCH  26  27
ATOM     27  N   UNL A   1     -25.837   0.083  25.400  0.00  0.00    -0.270 N 
ATOM     28  C   UNL A   1     -27.077   0.583  25.516  0.00  0.00    +0.249 C 
ATOM     29  O   UNL A   1     -27.723   0.335  26.484  0.00  0.00    -0.270 OA
ATOM     30  C   UNL A   1     -25.028   0.424  24.132  0.00  0.00    +0.116 C 
BRANCH  28  31
ATOM     31  C   UNL A   1     -27.585   1.516  24.477  0.00  0.00    +0.058 C 
ATOM     32  C   UNL A   1     -28.383   1.164  23.545  0.00  0.00    +0.004 C 
BRANCH  32  33
ATOM     33  C   UNL A   1     -28.944   0.015  23.413  0.00  0.00    -0.004 C 
ATOM     34  C   UNL A   1     -30.295  -0.208  23.722  0.00  0.00    -0.026 C 
ATOM     35  C   UNL A   1     -30.920  -1.501  23.608  0.00  0.00    +0.031 C 
ENDBRANCH  32  33
ENDBRANCH  28  31
ENDBRANCH  26  27
ENDBRANCH   2  26
TORSDOF 8
ENDMDL
ENDMDL
