REMARK  Name = No_3000-gen_results/8p0m/2024-11-26-14-13-15/
REMARK  8 active torsions:
REMARK  status: ('A' for Active; 'I' for Inactive)
REMARK    1  A    between atoms: C_2  and  C_5
REMARK    2  A    between atoms: C_3  and  C_11
REMARK    3  A    between atoms: C_12  and  C_26
REMARK    4  A    between atoms: C_14  and  C_15
REMARK    5  A    between atoms: C_18  and  C_19
REMARK    6  A    between atoms: C_26  and  N_27
REMARK    7  A    between atoms: C_28  and  C_30
REMARK    8  A    between atoms: C_32  and  C_33
REMARK                            x       y       z     vdW  Elec       q    Type
REMARK                         _______ _______ _______ _____ _____    ______ ____
ROOT
ATOM      1  C   UNL A   1     -26.419   0.291  27.184  0.00  0.00    -0.002 A 
ATOM      2  C   UNL A   1     -26.850   0.794  26.186  0.00  0.00    -0.002 A 
ATOM      3  C   UNL A   1     -26.166   0.635  24.945  0.00  0.00    -0.003 A 
ATOM      4  C   UNL A   1     -25.026  -0.031  27.218  0.00  0.00    -0.000 A 
ATOM      5  C   UNL A   1     -24.790   0.272  24.983  0.00  0.00    -0.000 A 
ATOM      6  C   UNL A   1     -24.265  -0.009  26.148  0.00  0.00    -0.000 A 
ENDROOT
BRANCH   1   9
ATOM      7  C   UNL A   1     -28.016  -0.814  28.878  0.00  0.00    +0.004 A 
ATOM      8  C   UNL A   1     -28.469  -0.785  29.829  0.00  0.00    +0.071 A 
ATOM      9  C   UNL A   1     -27.136   0.236  28.535  0.00  0.00    -0.000 A 
ATOM     10  C   UNL A   1     -26.875   1.282  29.398  0.00  0.00    -0.000 A 
ATOM     11  C   UNL A   1     -27.524   1.209  30.638  0.00  0.00    -0.000 A 
ATOM     12  C   UNL A   1     -28.322   0.127  30.959  0.00  0.00    +0.004 A 
BRANCH   8  13
ATOM     13  C   UNL A   1     -29.395  -1.924  30.286  0.00  0.00    +0.419 C 
ATOM     14  F   UNL A   1     -29.129  -3.117  30.152  0.00  0.00    -0.166 F 
ATOM     15  F   UNL A   1     -29.756  -1.804  31.651  0.00  0.00    -0.166 F 
ATOM     16  F   UNL A   1     -30.595  -1.752  29.677  0.00  0.00    -0.166 F 
ENDBRANCH   8  13
ENDBRANCH   1   9
BRANCH   4  17
ATOM     17  C   UNL A   1     -24.436  -0.540  28.566  0.00  0.00    +0.006 A 
ATOM     18  C   UNL A   1     -23.335   0.304  29.108  0.00  0.00    +0.080 A 
ATOM     19  C   UNL A   1     -22.828  -0.289  30.364  0.00  0.00    +0.007 A 
ATOM     20  C   UNL A   1     -24.718  -1.797  29.044  0.00  0.00    +0.000 A 
ATOM     21  C   UNL A   1     -24.255  -2.261  30.287  0.00  0.00    +0.000 A 
ATOM     22  C   UNL A   1     -23.256  -1.449  30.934  0.00  0.00    +0.000 A 
BRANCH  18  23
ATOM     23  C   UNL A   1     -22.918   1.341  28.599  0.00  0.00    +0.388 C 
ATOM     24  O   UNL A   1     -21.770   1.410  28.025  0.00  0.00    -0.241 OA
ATOM     25  O   UNL A   1     -23.648   2.480  28.643  0.00  0.00    -0.241 OA
ENDBRANCH  18  23
ENDBRANCH   4  17
BRANCH   2  26
ATOM     26  C   UNL A   1     -28.337   1.121  25.998  0.00  0.00    +0.120 C 
BRANCH  26  27
ATOM     27  N   UNL A   1     -28.755   2.296  26.425  0.00  0.00    -0.270 N 
ATOM     28  C   UNL A   1     -29.911   2.524  27.067  0.00  0.00    +0.249 C 
ATOM     29  O   UNL A   1     -30.677   1.629  27.235  0.00  0.00    -0.270 OA
ATOM     30  C   UNL A   1     -27.785   3.479  26.225  0.00  0.00    +0.116 C 
BRANCH  28  31
ATOM     31  C   UNL A   1     -30.170   3.870  27.642  0.00  0.00    +0.058 C 
ATOM     32  C   UNL A   1     -31.058   4.095  28.531  0.00  0.00    +0.004 C 
BRANCH  32  33
ATOM     33  C   UNL A   1     -31.779   3.216  29.131  0.00  0.00    -0.004 C 
ATOM     34  C   UNL A   1     -32.917   3.555  29.881  0.00  0.00    -0.026 C 
ATOM     35  C   UNL A   1     -33.709   2.579  30.583  0.00  0.00    +0.031 C 
ENDBRANCH  32  33
ENDBRANCH  28  31
ENDBRANCH  26  27
ENDBRANCH   2  26
TORSDOF 8
