MODEL 3001
MODEL 1
REMARK VINA RESULT:    -5.640      0.000      0.000
REMARK INTER + INTRA:          -7.946
REMARK INTER:                  -7.289
REMARK INTRA:                  -0.657
REMARK UNBOUND:                -0.657
REMARK  Name = No_3001-gen_results/8p0m/2024-11-26-14-13-15/
REMARK  5 active torsions:
REMARK  status: ('A' for Active; 'I' for Inactive)
REMARK    1  A    between atoms: C_1  and  C_2
REMARK    2  A    between atoms: C_1  and  C_8
REMARK    3  A    between atoms: C_9  and  C_10
REMARK    4  A    between atoms: C_10  and  C_11
REMARK    5  A    between atoms: C_11  and  C_13
REMARK                            x       y       z     vdW  Elec       q    Type
REMARK                         _______ _______ _______ _____ _____    ______ ____
ROOT
ATOM      1  C   UNL A   1     -24.590  -1.218  28.944  0.00  0.00    +0.052 C 
ENDROOT
BRANCH   1   2
ATOM      2  C   UNL A   1     -24.785  -2.410  29.005  0.00  0.00    -0.018 A 
ATOM      3  C   UNL A   1     -23.897  -3.346  28.585  0.00  0.00    -0.004 A 
ATOM      4  C   UNL A   1     -24.121  -4.808  28.654  0.00  0.00    -0.000 A 
ATOM      5  C   UNL A   1     -25.359  -5.248  29.227  0.00  0.00    -0.000 A 
ATOM      6  C   UNL A   1     -26.224  -4.245  29.718  0.00  0.00    -0.000 A 
ATOM      7  C   UNL A   1     -25.950  -2.906  29.619  0.00  0.00    -0.004 A 
ENDBRANCH   1   2
BRANCH   1   8
ATOM      8  C   UNL A   1     -23.131  -0.761  28.885  0.00  0.00    -0.026 C 
ATOM      9  C   UNL A   1     -22.839   0.316  28.270  0.00  0.00    -0.029 C 
BRANCH   9  10
ATOM     10  C   UNL A   1     -23.797   1.151  27.750  0.00  0.00    +0.045 C 
BRANCH  10  11
ATOM     11  C   UNL A   1     -23.611   1.533  26.368  0.00  0.00    +0.117 C 
ATOM     12 CL   UNL A   1     -23.005   2.258  25.590  0.00  0.00    -0.112 Cl
BRANCH  11  13
ATOM     13  C   UNL A   1     -24.783   0.588  25.612  0.00  0.00    +0.199 C 
ATOM     14  O   UNL A   1     -25.389  -0.301  25.543  0.00  0.00    -0.219 OA
ENDBRANCH  11  13
ENDBRANCH  10  11
ENDBRANCH   9  10
ENDBRANCH   1   8
TORSDOF 5
ENDMDL
ENDMDL
