REMARK  Name = No_3002-gen_results/8p0m/2024-11-26-14-13-15/
REMARK  7 active torsions:
REMARK  status: ('A' for Active; 'I' for Inactive)
REMARK    1  A    between atoms: C_1  and  C_16
REMARK    2  A    between atoms: C_3  and  C_20
REMARK    3  A    between atoms: C_5  and  C_7
REMARK    4  A    between atoms: N_8  and  C_10
REMARK    5  A    between atoms: C_20  and  C_21
REMARK    6  A    between atoms: C_21  and  C_22
REMARK    7  A    between atoms: C_21  and  C_28
REMARK                            x       y       z     vdW  Elec       q    Type
REMARK                         _______ _______ _______ _____ _____    ______ ____
ROOT
ATOM      1  C   UNL A   1     -28.016  -0.814  28.878  0.00  0.00    +0.080 A 
ATOM      2  C   UNL A   1     -27.064  -0.119  28.608  0.00  0.00    +0.002 A 
ATOM      3  C   UNL A   1     -26.972   0.714  27.506  0.00  0.00    -0.021 A 
ATOM      4  C   UNL A   1     -28.105   0.774  26.642  0.00  0.00    +0.000 A 
ATOM      5  C   UNL A   1     -29.201   0.104  27.053  0.00  0.00    +0.054 A 
ATOM      6  C   UNL A   1     -29.210  -0.603  28.185  0.00  0.00    +0.011 A 
ENDROOT
BRANCH   5   7
ATOM      7  C   UNL A   1     -30.482   0.144  26.345  0.00  0.00    +0.253 C 
ATOM      8  N   UNL A   1     -31.262   1.148  26.538  0.00  0.00    -0.253 N 
ATOM      9  O   UNL A   1     -30.759  -0.861  25.601  0.00  0.00    -0.270 OA
ATOM     10  C   UNL A   1     -32.567   1.107  25.899  0.00  0.00    +0.120 C 
BRANCH   8  11
ATOM     11  C   UNL A   1     -31.052   2.266  27.426  0.00  0.00    +0.054 A 
ATOM     12  C   UNL A   1     -31.717   2.845  28.009  0.00  0.00    +0.015 A 
ATOM     13  C   UNL A   1     -31.388   4.036  28.861  0.00  0.00    +0.001 A 
ATOM     14  C   UNL A   1     -30.042   4.428  28.883  0.00  0.00    +0.000 A 
ATOM     15  C   UNL A   1     -29.602   2.751  27.482  0.00  0.00    +0.015 A 
ATOM     16  C   UNL A   1     -29.231   3.886  28.107  0.00  0.00    +0.001 A 
ENDBRANCH   8  11
ENDBRANCH   5   7
BRANCH   1  17
ATOM     17  C   UNL A   1     -28.044  -1.709  30.122  0.00  0.00    +0.388 C 
ATOM     18  O   UNL A   1     -27.144  -2.461  30.303  0.00  0.00    -0.241 OA
ATOM     19  O   UNL A   1     -29.090  -1.708  30.862  0.00  0.00    -0.241 OA
ENDBRANCH   1  17
BRANCH   3  20
ATOM     20  C   UNL A   1     -25.695   1.386  27.102  0.00  0.00    +0.030 C 
ATOM     21  C   UNL A   1     -25.267   1.115  25.717  0.00  0.00    +0.005 C 
BRANCH  20  22
ATOM     22  C   UNL A   1     -24.941   1.926  28.217  0.00  0.00    +0.049 C 
BRANCH  22  23
ATOM     23  C   UNL A   1     -25.085   2.577  29.061  0.00  0.00    -0.018 A 
ATOM     24  C   UNL A   1     -26.424   3.251  29.176  0.00  0.00    -0.004 A 
ATOM     25  C   UNL A   1     -26.722   4.126  30.320  0.00  0.00    -0.005 A 
ATOM     26  C   UNL A   1     -25.690   4.316  31.115  0.00  0.00    -0.022 A 
ATOM     27  C   UNL A   1     -24.511   3.591  31.185  0.00  0.00    -0.005 A 
ATOM     28  C   UNL A   1     -24.203   2.795  30.166  0.00  0.00    -0.004 A 
ATOM     29  C   UNL A   1     -26.043   5.213  32.383  0.00  0.00    +0.031 C 
ENDBRANCH  22  23
BRANCH  22  30
ATOM     30  C   UNL A   1     -23.504   1.274  28.020  0.00  0.00    -0.018 A 
ATOM     31  C   UNL A   1     -23.084   0.292  28.838  0.00  0.00    -0.004 A 
ATOM     32  C   UNL A   1     -21.680  -0.046  28.874  0.00  0.00    -0.000 A 
ATOM     33  C   UNL A   1     -20.772   0.567  28.060  0.00  0.00    -0.000 A 
ATOM     34  C   UNL A   1     -21.163   1.685  27.349  0.00  0.00    -0.000 A 
ATOM     35  C   UNL A   1     -22.515   2.079  27.349  0.00  0.00    -0.004 A 
ENDBRANCH  22  30
ENDBRANCH  20  22
ENDBRANCH   3  20
TORSDOF 7
