MODEL 3003
MODEL 1
REMARK VINA RESULT:    -5.461      0.000      0.000
REMARK INTER + INTRA:          -5.461
REMARK INTER:                  -5.461
REMARK INTRA:                   0.000
REMARK UNBOUND:                 0.000
REMARK  Name = No_3003-gen_results/8p0m/2024-11-26-14-13-15/
REMARK  0 active torsions:
REMARK  status: ('A' for Active; 'I' for Inactive)
REMARK                            x       y       z     vdW  Elec       q    Type
REMARK                         _______ _______ _______ _____ _____    ______ ____
ROOT
ATOM      1  O   UNL A   1     -26.540 -12.616  33.726  0.00  0.00    -0.273 OA
ATOM      2  C   UNL A   1     -27.436 -12.003  33.338  0.00  0.00    +0.246 C 
ATOM      3  N   UNL A   1     -28.193 -11.180  33.622  0.00  0.00    -0.200 NA
ATOM      4  C   UNL A   1     -27.731 -12.341  31.717  0.00  0.00    +0.113 C 
ATOM      5  C   UNL A   1     -28.638 -11.559  31.044  0.00  0.00    -0.012 A 
ATOM      6  C   UNL A   1     -29.415 -10.637  31.694  0.00  0.00    -0.004 A 
ATOM      7  C   UNL A   1     -29.112 -10.368  33.021  0.00  0.00    +0.141 C 
ATOM      8  C   UNL A   1     -28.911 -11.860  29.631  0.00  0.00    +0.038 A 
ATOM      9  C   UNL A   1     -29.729 -10.941  28.909  0.00  0.00    +0.195 A 
ATOM     10  C   UNL A   1     -30.378  -9.874  29.628  0.00  0.00    +0.042 A 
ATOM     11  C   UNL A   1     -30.225  -9.748  30.904  0.00  0.00    +0.000 A 
ATOM     12  O   UNL A   1     -30.047 -11.079  27.645  0.00  0.00    -0.287 OA
ENDROOT
TORSDOF 0
ENDMDL
ENDMDL
