REMARK  Name = No_3003-gen_results/8p0m/2024-11-26-14-13-15/
REMARK  0 active torsions:
REMARK  status: ('A' for Active; 'I' for Inactive)
REMARK                            x       y       z     vdW  Elec       q    Type
REMARK                         _______ _______ _______ _____ _____    ______ ____
ROOT
ATOM      1  O   UNL A   1     -28.123  -1.335  28.487  0.00  0.00    -0.273 OA
ATOM      2  C   UNL A   1     -27.481  -0.404  28.709  0.00  0.00    +0.246 C 
ATOM      3  N   UNL A   1     -27.241   0.391  29.510  0.00  0.00    -0.200 NA
ATOM      4  C   UNL A   1     -26.407  -0.107  27.450  0.00  0.00    +0.113 C 
ATOM      5  C   UNL A   1     -25.436   0.847  27.634  0.00  0.00    -0.012 A 
ATOM      6  C   UNL A   1     -25.429   1.663  28.735  0.00  0.00    -0.004 A 
ATOM      7  C   UNL A   1     -26.310   1.358  29.762  0.00  0.00    +0.141 C 
ATOM      8  C   UNL A   1     -24.504   1.122  26.530  0.00  0.00    +0.038 A 
ATOM      9  C   UNL A   1     -23.408   1.995  26.798  0.00  0.00    +0.195 A 
ATOM     10  C   UNL A   1     -23.363   2.690  28.059  0.00  0.00    +0.042 A 
ATOM     11  C   UNL A   1     -24.296   2.527  28.937  0.00  0.00    +0.000 A 
ATOM     12  O   UNL A   1     -22.498   2.321  25.912  0.00  0.00    -0.287 OA
ENDROOT
TORSDOF 0
