REMARK  Name = No_3004-gen_results/8p0m/2024-11-26-14-13-15/
REMARK  2 active torsions:
REMARK  status: ('A' for Active; 'I' for Inactive)
REMARK    1  A    between atoms: C_5  and  C_6
REMARK    2  A    between atoms: C_6  and  C_13
REMARK                            x       y       z     vdW  Elec       q    Type
REMARK                         _______ _______ _______ _____ _____    ______ ____
ROOT
ATOM      1  O   UNL A   1     -28.123  -1.335  28.487  0.00  0.00    -0.275 OA
ATOM      2  C   UNL A   1     -27.481  -0.404  28.709  0.00  0.00    +0.225 C 
ATOM      3  N   UNL A   1     -26.460  -0.110  28.005  0.00  0.00    -0.281 N 
ATOM      4  C   UNL A   1     -26.148  -0.495  26.876  0.00  0.00    +0.093 C 
ATOM      5  C   UNL A   1     -27.346   0.132  30.156  0.00  0.00    +0.083 C 
ATOM      6  C   UNL A   1     -26.076   0.628  25.825  0.00  0.00    +0.022 C 
ATOM      7  C   UNL A   1     -25.926   0.493  30.567  0.00  0.00    +0.013 C 
ATOM      8  C   UNL A   1     -24.864   0.766  29.749  0.00  0.00    +0.041 C 
ATOM      9  C   UNL A   1     -25.014   0.518  28.385  0.00  0.00    +0.086 C 
ATOM     10  C   UNL A   1     -24.121   1.026  27.473  0.00  0.00    +0.096 C 
ATOM     11  C   UNL A   1     -24.636   1.155  26.109  0.00  0.00    +0.013 C 
ATOM     12  C   UNL A   1     -23.024   1.792  27.813  0.00  0.00    +0.242 C 
ATOM     13  O   UNL A   1     -22.331   2.439  27.097  0.00  0.00    -0.273 OA
ATOM     14  N   UNL A   1     -22.586   1.718  29.210  0.00  0.00    -0.205 NA
ATOM     15  C   UNL A   1     -23.645   1.397  30.152  0.00  0.00    +0.117 C 
ENDROOT
BRANCH   5  16
ATOM     16  C   UNL A   1     -28.212   0.224  30.763  0.00  0.00    +0.081 C 
BRANCH  16  17
ATOM     17  C   UNL A   1     -29.505   0.173  30.385  0.00  0.00    +0.319 C 
ATOM     18  F   UNL A   1     -29.702   0.217  29.316  0.00  0.00    -0.198 F 
ATOM     19  F   UNL A   1     -30.553   0.082  31.218  0.00  0.00    -0.198 F 
ENDBRANCH  16  17
ENDBRANCH   5  16
TORSDOF 2
