MODEL 3004
MODEL 1
REMARK VINA RESULT:    -7.386      0.000      0.000
REMARK INTER + INTRA:          -8.567
REMARK INTER:                  -8.249
REMARK INTRA:                  -0.318
REMARK UNBOUND:                -0.318
REMARK  Name = No_3004-gen_results/8p0m/2024-11-26-14-13-15/
REMARK  2 active torsions:
REMARK  status: ('A' for Active; 'I' for Inactive)
REMARK    1  A    between atoms: C_5  and  C_6
REMARK    2  A    between atoms: C_6  and  C_13
REMARK                            x       y       z     vdW  Elec       q    Type
REMARK                         _______ _______ _______ _____ _____    ______ ____
ROOT
ATOM      1  O   UNL A   1     -23.352  -1.828  31.000  0.00  0.00    -0.275 OA
ATOM      2  C   UNL A   1     -23.505  -1.709  29.864  0.00  0.00    +0.225 C 
ATOM      3  N   UNL A   1     -23.130  -0.662  29.242  0.00  0.00    -0.281 N 
ATOM      4  C   UNL A   1     -22.326   0.208  29.584  0.00  0.00    +0.093 C 
ATOM      5  C   UNL A   1     -24.703  -2.391  29.156  0.00  0.00    +0.083 C 
ATOM      6  C   UNL A   1     -21.089   0.315  28.673  0.00  0.00    +0.022 C 
ATOM      7  C   UNL A   1     -25.445  -1.500  28.171  0.00  0.00    +0.013 C 
ATOM      8  C   UNL A   1     -24.987  -0.363  27.563  0.00  0.00    +0.041 C 
ATOM      9  C   UNL A   1     -23.778   0.170  28.010  0.00  0.00    +0.086 C 
ATOM     10  C   UNL A   1     -23.113   1.122  27.277  0.00  0.00    +0.096 C 
ATOM     11  C   UNL A   1     -21.677   1.218  27.545  0.00  0.00    +0.013 C 
ATOM     12  C   UNL A   1     -23.570   1.630  26.078  0.00  0.00    +0.242 C 
ATOM     13  O   UNL A   1     -22.976   2.284  25.284  0.00  0.00    -0.273 OA
ATOM     14  N   UNL A   1     -24.995   1.437  25.790  0.00  0.00    -0.205 NA
ATOM     15  C   UNL A   1     -25.579   0.267  26.424  0.00  0.00    +0.117 C 
ENDROOT
BRANCH   5  16
ATOM     16  C   UNL A   1     -24.935  -3.403  29.377  0.00  0.00    +0.081 C 
BRANCH  16  17
ATOM     17  C   UNL A   1     -24.501  -4.514  28.750  0.00  0.00    +0.319 C 
ATOM     18  F   UNL A   1     -23.585  -4.420  28.170  0.00  0.00    -0.198 F 
ATOM     19  F   UNL A   1     -25.111  -5.709  28.780  0.00  0.00    -0.198 F 
ENDBRANCH  16  17
ENDBRANCH   5  16
TORSDOF 2
ENDMDL
ENDMDL
