REMARK  Name = No_3005-gen_results/8p0m/2024-11-26-14-13-15/
REMARK  4 active torsions:
REMARK  status: ('A' for Active; 'I' for Inactive)
REMARK    1  A    between atoms: C_3  and  C_4
REMARK    2  A    between atoms: C_7  and  C_13
REMARK    3  A    between atoms: C_13  and  O_15
REMARK    4  A    between atoms: O_15  and  C_17
REMARK                            x       y       z     vdW  Elec       q    Type
REMARK                         _______ _______ _______ _____ _____    ______ ____
ROOT
ATOM      1  C   UNL A   1     -28.016  -0.814  28.878  0.00  0.00    +0.006 A 
ATOM      2  C   UNL A   1     -27.064  -0.119  28.608  0.00  0.00    +0.000 A 
ATOM      3  C   UNL A   1     -25.765  -0.390  29.036  0.00  0.00    +0.000 A 
ATOM      4  C   UNL A   1     -28.153  -1.341  30.077  0.00  0.00    +0.076 A 
ATOM      5  C   UNL A   1     -26.913  -1.780  30.756  0.00  0.00    +0.006 A 
ATOM      6  C   UNL A   1     -25.648  -1.214  30.294  0.00  0.00    +0.000 A 
ENDROOT
BRANCH   3   7
ATOM      7  C   UNL A   1     -24.552   0.406  28.765  0.00  0.00    +0.001 A 
ATOM      8  C   UNL A   1     -23.230   0.118  29.258  0.00  0.00    +0.000 A 
ATOM      9  C   UNL A   1     -22.139   0.943  28.922  0.00  0.00    +0.001 A 
ATOM     10  C   UNL A   1     -22.220   1.867  27.839  0.00  0.00    +0.011 A 
ATOM     11  C   UNL A   1     -24.567   1.438  27.734  0.00  0.00    +0.011 A 
ATOM     12  C   UNL A   1     -23.429   2.126  27.341  0.00  0.00    +0.058 A 
ATOM     13 CL   UNL A   1     -23.635   3.279  26.068  0.00  0.00    -0.082 Cl
ENDBRANCH   3   7
BRANCH   4  14
ATOM     14  C   UNL A   1     -29.331  -2.099  30.573  0.00  0.00    +0.346 C 
ATOM     15  O   UNL A   1     -29.512  -3.189  30.801  0.00  0.00    -0.244 OA
BRANCH  14  16
ATOM     16  O   UNL A   1     -30.396  -1.280  30.766  0.00  0.00    -0.421 OA
BRANCH  16  17
ATOM     17  C   UNL A   1     -30.416  -0.133  30.849  0.00  0.00    +0.149 A 
ATOM     18  C   UNL A   1     -31.048   0.503  29.931  0.00  0.00    +0.038 A 
ATOM     19  C   UNL A   1     -30.989   1.987  29.870  0.00  0.00    +0.003 A 
ATOM     20  C   UNL A   1     -30.294   2.656  30.882  0.00  0.00    +0.000 A 
ATOM     21  C   UNL A   1     -29.670   1.916  31.883  0.00  0.00    +0.003 A 
ATOM     22  C   UNL A   1     -29.665   0.597  31.841  0.00  0.00    +0.038 A 
ENDBRANCH  16  17
ENDBRANCH  14  16
ENDBRANCH   4  14
TORSDOF 4
