MODEL 3005
MODEL 1
REMARK VINA RESULT:    -7.014      0.000      0.000
REMARK INTER + INTRA:          -9.560
REMARK INTER:                  -8.654
REMARK INTRA:                  -0.906
REMARK UNBOUND:                -0.906
REMARK  Name = No_3005-gen_results/8p0m/2024-11-26-14-13-15/
REMARK  4 active torsions:
REMARK  status: ('A' for Active; 'I' for Inactive)
REMARK    1  A    between atoms: C_3  and  C_4
REMARK    2  A    between atoms: C_7  and  C_13
REMARK    3  A    between atoms: C_13  and  O_15
REMARK    4  A    between atoms: O_15  and  C_17
REMARK                            x       y       z     vdW  Elec       q    Type
REMARK                         _______ _______ _______ _____ _____    ______ ____
ROOT
ATOM      1  C   UNL A   1     -24.152   0.725  25.712  0.00  0.00    +0.006 A 
ATOM      2  C   UNL A   1     -25.244   0.583  25.211  0.00  0.00    +0.000 A 
ATOM      3  C   UNL A   1     -26.239   1.559  25.240  0.00  0.00    +0.000 A 
ATOM      4  C   UNL A   1     -24.014   1.323  26.877  0.00  0.00    +0.076 A 
ATOM      5  C   UNL A   1     -24.924   2.456  27.156  0.00  0.00    +0.006 A 
ATOM      6  C   UNL A   1     -26.156   2.546  26.377  0.00  0.00    +0.000 A 
ENDROOT
BRANCH   3   7
ATOM      7  C   UNL A   1     -27.596   1.466  24.667  0.00  0.00    +0.001 A 
ATOM      8  C   UNL A   1     -28.338   2.552  24.082  0.00  0.00    +0.000 A 
ATOM      9  C   UNL A   1     -29.626   2.343  23.551  0.00  0.00    +0.001 A 
ATOM     10  C   UNL A   1     -30.101   1.030  23.264  0.00  0.00    +0.011 A 
ATOM     11  C   UNL A   1     -28.201   0.161  24.422  0.00  0.00    +0.011 A 
ATOM     12  C   UNL A   1     -29.413   0.004  23.766  0.00  0.00    +0.058 A 
ATOM     13 CL   UNL A   1     -29.945  -1.624  23.524  0.00  0.00    -0.082 Cl
ENDBRANCH   3   7
BRANCH   4  14
ATOM     14  C   UNL A   1     -22.754   1.444  27.657  0.00  0.00    +0.346 C 
ATOM     15  O   UNL A   1     -22.034   2.294  27.839  0.00  0.00    -0.244 OA
BRANCH  14  16
ATOM     16  O   UNL A   1     -22.425   0.266  28.244  0.00  0.00    -0.421 OA
BRANCH  16  17
ATOM     17  C   UNL A   1     -22.902  -0.239  29.161  0.00  0.00    +0.149 A 
ATOM     18  C   UNL A   1     -23.297  -1.451  29.014  0.00  0.00    +0.038 A 
ATOM     19  C   UNL A   1     -24.067  -2.125  30.092  0.00  0.00    +0.003 A 
ATOM     20  C   UNL A   1     -24.273  -1.424  31.285  0.00  0.00    +0.000 A 
ATOM     21  C   UNL A   1     -23.776  -0.130  31.408  0.00  0.00    +0.003 A 
ATOM     22  C   UNL A   1     -23.185   0.464  30.388  0.00  0.00    +0.038 A 
ENDBRANCH  16  17
ENDBRANCH  14  16
ENDBRANCH   4  14
TORSDOF 4
ENDMDL
ENDMDL
