MODEL 3006
MODEL 1
REMARK VINA RESULT:    -4.539      0.000      0.000
REMARK INTER + INTRA:          -4.824
REMARK INTER:                  -4.805
REMARK INTRA:                  -0.019
REMARK UNBOUND:                -0.019
REMARK  Name = No_3006-gen_results/8p0m/2024-11-26-14-13-15/
REMARK  1 active torsions:
REMARK  status: ('A' for Active; 'I' for Inactive)
REMARK    1  A    between atoms: C_2  and  C_5
REMARK                            x       y       z     vdW  Elec       q    Type
REMARK                         _______ _______ _______ _____ _____    ______ ____
ROOT
ATOM      1  C   UNL A   1     -23.965  -3.753  28.767  0.00  0.00    +0.010 A 
ATOM      2  C   UNL A   1     -24.377  -2.853  29.127  0.00  0.00    +0.068 A 
ATOM      3  C   UNL A   1     -24.750  -4.977  28.999  0.00  0.00    +0.001 A 
ATOM      4  C   UNL A   1     -26.059  -4.903  29.558  0.00  0.00    +0.000 A 
ATOM      5  C   UNL A   1     -26.464  -3.627  29.895  0.00  0.00    +0.001 A 
ATOM      6  C   UNL A   1     -25.691  -2.539  29.676  0.00  0.00    +0.010 A 
ENDROOT
BRANCH   2   7
ATOM      7  C   UNL A   1     -23.597  -1.549  28.879  0.00  0.00    +0.100 C 
ATOM      8  N   UNL A   1     -22.388  -1.502  29.029  0.00  0.00    -0.191 NA
ENDBRANCH   2   7
TORSDOF 1
ENDMDL
ENDMDL
