MODEL 3007
MODEL 1
REMARK VINA RESULT:    -6.216      0.000      0.000
REMARK INTER + INTRA:          -7.040
REMARK INTER:                  -6.942
REMARK INTRA:                  -0.097
REMARK UNBOUND:                -0.097
REMARK  Name = No_3007-gen_results/8p0m/2024-11-26-14-13-15/
REMARK  2 active torsions:
REMARK  status: ('A' for Active; 'I' for Inactive)
REMARK    1  A    between atoms: C_2  and  C_7
REMARK    2  A    between atoms: C_8  and  C_9
REMARK                            x       y       z     vdW  Elec       q    Type
REMARK                         _______ _______ _______ _____ _____    ______ ____
ROOT
ATOM      1  C   UNL A   1     -24.359  -0.867  28.118  0.00  0.00    +0.024 A 
ATOM      2  C   UNL A   1     -23.439  -0.132  28.439  0.00  0.00    +0.060 A 
ATOM      3  C   UNL A   1     -25.315  -0.357  27.110  0.00  0.00    +0.099 A 
ATOM      4  N   UNL A   1     -25.225   0.746  26.610  0.00  0.00    -0.242 NA
ATOM      5  C   UNL A   1     -24.171   1.627  27.004  0.00  0.00    +0.099 A 
ATOM      6  C   UNL A   1     -23.212   1.154  27.903  0.00  0.00    +0.025 A 
ENDROOT
BRANCH   1   8
ATOM      7  C   UNL A   1     -24.029  -3.227  28.392  0.00  0.00    +0.000 A 
ATOM      8  C   UNL A   1     -24.697  -2.238  28.588  0.00  0.00    +0.002 A 
ATOM      9  C   UNL A   1     -25.879  -2.303  29.317  0.00  0.00    +0.000 A 
ATOM     10  C   UNL A   1     -26.369  -3.559  29.823  0.00  0.00    +0.000 A 
ATOM     11  C   UNL A   1     -25.547  -4.655  29.531  0.00  0.00    +0.000 A 
ATOM     12  C   UNL A   1     -24.447  -4.543  28.823  0.00  0.00    +0.000 A 
ENDBRANCH   1   8
BRANCH   2  13
ATOM     13  C   UNL A   1     -22.451  -0.669  29.474  0.00  0.00    +0.284 C 
ATOM     14  N   UNL A   1     -21.215  -1.021  28.975  0.00  0.00    -0.084 NA
ATOM     15  O   UNL A   1     -22.638  -0.676  30.668  0.00  0.00    -0.267 OA
ENDBRANCH   2  13
TORSDOF 2
ENDMDL
ENDMDL
