REMARK  Name = No_3007-gen_results/8p0m/2024-11-26-14-13-15/
REMARK  2 active torsions:
REMARK  status: ('A' for Active; 'I' for Inactive)
REMARK    1  A    between atoms: C_2  and  C_7
REMARK    2  A    between atoms: C_8  and  C_9
REMARK                            x       y       z     vdW  Elec       q    Type
REMARK                         _______ _______ _______ _____ _____    ______ ____
ROOT
ATOM      1  C   UNL A   1     -27.106   1.102  27.759  0.00  0.00    +0.024 A 
ATOM      2  C   UNL A   1     -26.716   2.235  27.994  0.00  0.00    +0.060 A 
ATOM      3  C   UNL A   1     -27.726   0.859  26.438  0.00  0.00    +0.099 A 
ATOM      4  N   UNL A   1     -27.868   1.728  25.602  0.00  0.00    -0.242 NA
ATOM      5  C   UNL A   1     -27.447   3.065  25.880  0.00  0.00    +0.099 A 
ATOM      6  C   UNL A   1     -26.796   3.317  27.090  0.00  0.00    +0.025 A 
ENDROOT
BRANCH   1   8
ATOM      7  C   UNL A   1     -28.016  -0.814  28.878  0.00  0.00    +0.000 A 
ATOM      8  C   UNL A   1     -27.064  -0.119  28.608  0.00  0.00    +0.002 A 
ATOM      9  C   UNL A   1     -25.792  -0.430  29.076  0.00  0.00    +0.000 A 
ATOM     10  C   UNL A   1     -25.576  -1.565  29.936  0.00  0.00    +0.000 A 
ATOM     11  C   UNL A   1     -26.735  -2.300  30.217  0.00  0.00    +0.000 A 
ATOM     12  C   UNL A   1     -27.918  -1.954  29.763  0.00  0.00    +0.000 A 
ENDBRANCH   1   8
BRANCH   2  13
ATOM     13  C   UNL A   1     -26.069   2.477  29.357  0.00  0.00    +0.284 C 
ATOM     14  N   UNL A   1     -25.455   3.703  29.504  0.00  0.00    -0.084 NA
ATOM     15  O   UNL A   1     -26.176   1.744  30.312  0.00  0.00    -0.267 OA
ENDBRANCH   2  13
TORSDOF 2
