REMARK  Name = No_3008-gen_results/8p0m/2024-11-26-14-13-15/
REMARK  8 active torsions:
REMARK  status: ('A' for Active; 'I' for Inactive)
REMARK    1  A    between atoms: C_3  and  C_8
REMARK    2  A    between atoms: C_5  and  O_7
REMARK    3  A    between atoms: O_7  and  C_14
REMARK    4  A    between atoms: C_14  and  C_15
REMARK    5  A    between atoms: C_21  and  C_27
REMARK    6  A    between atoms: N_28  and  C_30
REMARK    7  A    between atoms: C_31  and  C_32
REMARK    8  A    between atoms: C_32  and  C_33
REMARK                            x       y       z     vdW  Elec       q    Type
REMARK                         _______ _______ _______ _____ _____    ______ ____
ROOT
ATOM      1  C   UNL A   1     -28.016  -0.814  28.878  0.00  0.00    +0.038 A 
ATOM      2  C   UNL A   1     -27.064  -0.119  28.608  0.00  0.00    +0.003 A 
ATOM      3  C   UNL A   1     -26.876   1.133  28.913  0.00  0.00    +0.002 A 
ATOM      4  C   UNL A   1     -27.901   1.807  29.644  0.00  0.00    +0.003 A 
ATOM      5  C   UNL A   1     -29.046  -0.232  29.718  0.00  0.00    +0.149 A 
ATOM      6  C   UNL A   1     -28.940   1.052  30.060  0.00  0.00    +0.035 A 
ATOM      7  C   UNL A   1     -30.026   1.692  30.860  0.00  0.00    +0.003 A 
ATOM      8  C   UNL A   1     -30.197   2.889  30.799  0.00  0.00    +0.004 A 
ATOM      9  C   UNL A   1     -31.234   3.569  31.577  0.00  0.00    +0.055 A 
ATOM     10  C   UNL A   1     -31.438   4.951  31.605  0.00  0.00    +0.005 A 
ATOM     11  C   UNL A   1     -30.585   5.728  30.816  0.00  0.00    +0.000 A 
ATOM     12  C   UNL A   1     -29.565   5.170  30.054  0.00  0.00    +0.000 A 
ATOM     13  C   UNL A   1     -29.344   3.792  30.092  0.00  0.00    +0.000 A 
ATOM     14  C   UNL A   1     -28.166   3.162  29.482  0.00  0.00    +0.000 A 
ENDROOT
BRANCH   3  15
ATOM     15  C   UNL A   1     -25.668   1.936  28.448  0.00  0.00    +0.019 A 
ATOM     16  C   UNL A   1     -24.935   1.716  27.680  0.00  0.00    +0.003 A 
ATOM     17  C   UNL A   1     -23.712   2.480  27.323  0.00  0.00    +0.021 A 
ATOM     18  C   UNL A   1     -25.469   3.243  29.204  0.00  0.00    +0.099 A 
ATOM     19  N   UNL A   1     -24.494   4.104  28.731  0.00  0.00    -0.242 NA
ATOM     20  C   UNL A   1     -23.602   3.700  27.848  0.00  0.00    +0.099 A 
ENDBRANCH   3  15
BRANCH   9  21
ATOM     21  C   UNL A   1     -32.163   2.750  32.386  0.00  0.00    +0.269 C 
ATOM     22  N   UNL A   1     -33.105   3.331  32.931  0.00  0.00    -0.174 NA
ATOM     23  O   UNL A   1     -32.139   1.519  32.172  0.00  0.00    -0.268 OA
BRANCH  22  24
ATOM     24  C   UNL A   1     -34.127   2.615  33.703  0.00  0.00    +0.085 C 
ATOM     25  C   UNL A   1     -35.208   3.192  33.944  0.00  0.00    -0.004 C 
BRANCH  25  26
ATOM     26  C   UNL A   1     -35.351   4.520  33.679  0.00  0.00    +0.053 C 
BRANCH  26  27
ATOM     27  C   UNL A   1     -36.586   5.244  33.963  0.00  0.00    -0.026 C 
ATOM     28  C   UNL A   1     -36.657   6.651  33.760  0.00  0.00    -0.030 C 
ATOM     29  C   UNL A   1     -35.544   7.290  33.168  0.00  0.00    +0.030 C 
ENDBRANCH  26  27
ENDBRANCH  25  26
ENDBRANCH  22  24
ENDBRANCH   9  21
BRANCH   5  30
ATOM     30  O   UNL A   1     -30.059  -1.063  30.095  0.00  0.00    -0.416 OA
BRANCH  30  31
ATOM     31  C   UNL A   1     -29.865  -2.135  30.864  0.00  0.00    +0.427 C 
ATOM     32  O   UNL A   1     -29.345  -1.994  32.061  0.00  0.00    -0.237 OA
BRANCH  31  33
ATOM     33  C   UNL A   1     -30.119  -3.363  30.220  0.00  0.00    +0.463 C 
ATOM     34  O   UNL A   1     -30.656  -3.486  29.347  0.00  0.00    -0.233 OA
ATOM     35  O   UNL A   1     -29.485  -4.479  30.793  0.00  0.00    -0.233 OA
ENDBRANCH  31  33
ENDBRANCH  30  31
ENDBRANCH   5  30
TORSDOF 8
