MODEL 3008
MODEL 1
REMARK VINA RESULT:    -7.119      0.000      0.000
REMARK INTER + INTRA:         -12.465
REMARK INTER:                 -10.448
REMARK INTRA:                  -2.018
REMARK UNBOUND:                -2.018
REMARK  Name = No_3008-gen_results/8p0m/2024-11-26-14-13-15/
REMARK  8 active torsions:
REMARK  status: ('A' for Active; 'I' for Inactive)
REMARK    1  A    between atoms: C_3  and  C_8
REMARK    2  A    between atoms: C_5  and  O_7
REMARK    3  A    between atoms: O_7  and  C_14
REMARK    4  A    between atoms: C_14  and  C_15
REMARK    5  A    between atoms: C_21  and  C_27
REMARK    6  A    between atoms: N_28  and  C_30
REMARK    7  A    between atoms: C_31  and  C_32
REMARK    8  A    between atoms: C_32  and  C_33
REMARK                            x       y       z     vdW  Elec       q    Type
REMARK                         _______ _______ _______ _____ _____    ______ ____
ROOT
ATOM      1  C   UNL A   1     -30.617 -15.156   9.980  0.00  0.00    +0.038 A 
ATOM      2  C   UNL A   1     -29.912 -16.064   9.607  0.00  0.00    +0.003 A 
ATOM      3  C   UNL A   1     -28.775 -15.987   8.976  0.00  0.00    +0.002 A 
ATOM      4  C   UNL A   1     -28.272 -14.689   8.656  0.00  0.00    +0.003 A 
ATOM      5  C   UNL A   1     -30.117 -13.807   9.793  0.00  0.00    +0.149 A 
ATOM      6  C   UNL A   1     -28.968 -13.638   9.139  0.00  0.00    +0.035 A 
ATOM      7  C   UNL A   1     -28.472 -12.256   8.868  0.00  0.00    +0.003 A 
ATOM      8  C   UNL A   1     -27.732 -12.051   7.933  0.00  0.00    +0.004 A 
ATOM      9  C   UNL A   1     -27.201 -10.719   7.635  0.00  0.00    +0.055 A 
ATOM     10  C   UNL A   1     -26.290 -10.429   6.616  0.00  0.00    +0.005 A 
ATOM     11  C   UNL A   1     -25.872 -11.501   5.823  0.00  0.00    +0.000 A 
ATOM     12  C   UNL A   1     -26.314 -12.801   6.040  0.00  0.00    +0.000 A 
ATOM     13  C   UNL A   1     -27.176 -13.074   7.103  0.00  0.00    +0.000 A 
ATOM     14  C   UNL A   1     -27.517 -14.441   7.516  0.00  0.00    +0.000 A 
ENDROOT
BRANCH   3  15
ATOM     15  C   UNL A   1     -28.008 -17.206   8.480  0.00  0.00    +0.019 A 
ATOM     16  C   UNL A   1     -28.144 -17.801   7.584  0.00  0.00    +0.003 A 
ATOM     17  C   UNL A   1     -27.437 -19.045   7.184  0.00  0.00    +0.021 A 
ATOM     18  C   UNL A   1     -26.887 -17.649   9.410  0.00  0.00    +0.099 A 
ATOM     19  N   UNL A   1     -26.041 -18.643   8.951  0.00  0.00    -0.242 NA
ATOM     20  C   UNL A   1     -26.350 -19.360   7.888  0.00  0.00    +0.099 A 
ENDBRANCH   3  15
BRANCH   9  21
ATOM     21  C   UNL A   1     -27.667  -9.574   8.448  0.00  0.00    +0.269 C 
ATOM     22  N   UNL A   1     -28.798  -9.138   8.219  0.00  0.00    -0.174 NA
ATOM     23  O   UNL A   1     -27.049  -9.370   9.515  0.00  0.00    -0.268 OA
BRANCH  22  24
ATOM     24  C   UNL A   1     -29.393  -8.050   9.003  0.00  0.00    +0.085 C 
ATOM     25  C   UNL A   1     -30.318  -8.321   9.797  0.00  0.00    -0.004 C 
BRANCH  25  26
ATOM     26  C   UNL A   1     -30.897  -9.554   9.781  0.00  0.00    +0.053 C 
BRANCH  26  27
ATOM     27  C   UNL A   1     -32.327  -9.740   9.557  0.00  0.00    -0.026 C 
ATOM     28  C   UNL A   1     -32.790 -10.414   8.392  0.00  0.00    -0.030 C 
ATOM     29  C   UNL A   1     -31.826 -10.992   7.536  0.00  0.00    +0.030 C 
ENDBRANCH  26  27
ENDBRANCH  25  26
ENDBRANCH  22  24
ENDBRANCH   9  21
BRANCH   5  30
ATOM     30  O   UNL A   1     -30.879 -12.803  10.312  0.00  0.00    -0.416 OA
BRANCH  30  31
ATOM     31  C   UNL A   1     -31.566 -12.931  11.448  0.00  0.00    +0.427 C 
ATOM     32  O   UNL A   1     -32.834 -13.268  11.409  0.00  0.00    -0.237 OA
BRANCH  31  33
ATOM     33  C   UNL A   1     -30.859 -12.533  12.600  0.00  0.00    +0.463 C 
ATOM     34  O   UNL A   1     -30.944 -11.620  13.075  0.00  0.00    -0.233 OA
ATOM     35  O   UNL A   1     -30.053 -13.529  13.179  0.00  0.00    -0.233 OA
ENDBRANCH  31  33
ENDBRANCH  30  31
ENDBRANCH   5  30
TORSDOF 8
ENDMDL
ENDMDL
