REMARK  Name = No_3009-gen_results/8p0m/2024-11-26-14-13-15/
REMARK  9 active torsions:
REMARK  status: ('A' for Active; 'I' for Inactive)
REMARK    1  A    between atoms: C_3  and  C_4
REMARK    2  A    between atoms: C_4  and  C_5
REMARK    3  A    between atoms: C_4  and  C_9
REMARK    4  A    between atoms: C_9  and  C_10
REMARK    5  A    between atoms: C_17  and  C_18
REMARK    6  A    between atoms: C_18  and  C_19
REMARK    7  A    between atoms: C_20  and  C_21
REMARK    8  A    between atoms: C_22  and  C_23
REMARK    9  A    between atoms: C_23  and  N_24
REMARK                            x       y       z     vdW  Elec       q    Type
REMARK                         _______ _______ _______ _____ _____    ______ ____
ROOT
ATOM      1  C   UNL A   1     -27.442   0.510  26.795  0.00  0.00    +0.066 C 
ENDROOT
BRANCH   1   4
ATOM      2  C   UNL A   1     -28.016  -0.814  28.878  0.00  0.00    -0.004 A 
ATOM      3  C   UNL A   1     -28.469  -0.785  29.829  0.00  0.00    -0.000 A 
ATOM      4  C   UNL A   1     -28.196   0.348  28.055  0.00  0.00    -0.017 A 
ATOM      5  C   UNL A   1     -29.496   0.109  30.345  0.00  0.00    -0.000 A 
ATOM      6  C   UNL A   1     -29.728   1.187  29.569  0.00  0.00    -0.000 A 
ATOM      7  C   UNL A   1     -29.042   1.367  28.372  0.00  0.00    -0.004 A 
ENDBRANCH   1   4
BRANCH   1   8
ATOM      8  C   UNL A   1     -27.843   1.333  25.806  0.00  0.00    -0.025 C 
ATOM      9  C   UNL A   1     -28.577   1.030  25.043  0.00  0.00    -0.026 C 
BRANCH   9  10
ATOM     10  C   UNL A   1     -29.268  -0.276  25.011  0.00  0.00    +0.052 C 
BRANCH  10  11
ATOM     11  C   UNL A   1     -30.199  -0.610  23.984  0.00  0.00    -0.013 C 
ATOM     12  C   UNL A   1     -30.920  -1.773  24.238  0.00  0.00    +0.045 C 
BRANCH  12  13
ATOM     13  C   UNL A   1     -32.187  -1.734  24.904  0.00  0.00    -0.062 C 
ATOM     14  C   UNL A   1     -32.740  -2.880  25.510  0.00  0.00    -0.059 C 
BRANCH  14  15
ATOM     15  C   UNL A   1     -32.892  -3.124  26.769  0.00  0.00    +0.201 C 
BRANCH  15  16
ATOM     16  N   UNL A   1     -32.609  -2.048  27.488  0.00  0.00    -0.253 NA
ATOM     17  C   UNL A   1     -32.505  -0.769  27.035  0.00  0.00    +0.115 C 
ENDBRANCH  15  16
ENDBRANCH  14  15
ENDBRANCH  12  13
ENDBRANCH  10  11
ENDBRANCH   9  10
ENDBRANCH   1   8
BRANCH   1  18
ATOM     18  C   UNL A   1     -26.128  -0.067  26.626  0.00  0.00    +0.122 C 
ATOM     19  N   UNL A   1     -25.702  -0.320  25.453  0.00  0.00    -0.127 NA
BRANCH  18  20
ATOM     20  C   UNL A   1     -25.247  -0.246  27.755  0.00  0.00    -0.004 A 
ATOM     21  C   UNL A   1     -24.271   0.435  28.210  0.00  0.00    -0.003 A 
ATOM     22  C   UNL A   1     -23.409   0.074  29.252  0.00  0.00    -0.000 A 
ATOM     23  C   UNL A   1     -23.552  -1.209  29.771  0.00  0.00    -0.000 A 
ATOM     24  C   UNL A   1     -25.034  -1.627  28.372  0.00  0.00    -0.003 A 
ATOM     25  C   UNL A   1     -24.352  -2.059  29.282  0.00  0.00    -0.000 A 
ENDBRANCH  18  20
ENDBRANCH   1  18
TORSDOF 9
