MODEL 3009
MODEL 1
REMARK VINA RESULT:    -7.292      0.000      0.000
REMARK INTER + INTRA:         -13.189
REMARK INTER:                 -11.128
REMARK INTRA:                  -2.061
REMARK UNBOUND:                -2.061
REMARK  Name = No_3009-gen_results/8p0m/2024-11-26-14-13-15/
REMARK  9 active torsions:
REMARK  status: ('A' for Active; 'I' for Inactive)
REMARK    1  A    between atoms: C_3  and  C_4
REMARK    2  A    between atoms: C_4  and  C_5
REMARK    3  A    between atoms: C_4  and  C_9
REMARK    4  A    between atoms: C_9  and  C_10
REMARK    5  A    between atoms: C_17  and  C_18
REMARK    6  A    between atoms: C_18  and  C_19
REMARK    7  A    between atoms: C_20  and  C_21
REMARK    8  A    between atoms: C_22  and  C_23
REMARK    9  A    between atoms: C_23  and  N_24
REMARK                            x       y       z     vdW  Elec       q    Type
REMARK                         _______ _______ _______ _____ _____    ______ ____
ROOT
ATOM      1  C   UNL A   1     -25.259  -1.154  29.126  0.00  0.00    +0.066 C 
ENDROOT
BRANCH   1   4
ATOM      2  C   UNL A   1     -24.112  -3.344  28.569  0.00  0.00    -0.004 A 
ATOM      3  C   UNL A   1     -24.081  -4.381  28.755  0.00  0.00    -0.000 A 
ATOM      4  C   UNL A   1     -25.218  -2.631  29.141  0.00  0.00    -0.017 A 
ATOM      5  C   UNL A   1     -25.124  -5.271  29.244  0.00  0.00    -0.000 A 
ATOM      6  C   UNL A   1     -26.203  -4.634  29.741  0.00  0.00    -0.000 A 
ATOM      7  C   UNL A   1     -26.278  -3.245  29.736  0.00  0.00    -0.004 A 
ENDBRANCH   1   4
BRANCH   1   8
ATOM      8  C   UNL A   1     -26.329  -0.459  28.694  0.00  0.00    -0.025 C 
ATOM      9  C   UNL A   1     -26.437  -0.122  27.651  0.00  0.00    -0.026 C 
BRANCH   9  10
ATOM     10  C   UNL A   1     -25.477  -0.418  26.568  0.00  0.00    +0.052 C 
BRANCH  10  11
ATOM     11  C   UNL A   1     -25.374   0.405  25.408  0.00  0.00    -0.013 C 
ATOM     12  C   UNL A   1     -26.226   0.026  24.375  0.00  0.00    +0.045 C 
BRANCH  12  13
ATOM     13  C   UNL A   1     -27.535   0.591  24.243  0.00  0.00    -0.062 C 
ATOM     14  C   UNL A   1     -28.621  -0.164  23.755  0.00  0.00    -0.059 C 
BRANCH  14  15
ATOM     15  C   UNL A   1     -29.652  -0.593  24.404  0.00  0.00    +0.201 C 
BRANCH  15  16
ATOM     16  N   UNL A   1     -30.226   0.397  25.071  0.00  0.00    -0.253 NA
ATOM     17  C   UNL A   1     -31.202   1.229  24.614  0.00  0.00    +0.115 C 
ENDBRANCH  15  16
ENDBRANCH  14  15
ENDBRANCH  12  13
ENDBRANCH  10  11
ENDBRANCH   9  10
ENDBRANCH   1   8
BRANCH   1  18
ATOM     18  C   UNL A   1     -24.219  -0.368  29.749  0.00  0.00    +0.122 C 
ATOM     19  N   UNL A   1     -24.292  -0.109  30.994  0.00  0.00    -0.127 NA
BRANCH  18  20
ATOM     20  C   UNL A   1     -23.043   0.024  29.010  0.00  0.00    -0.004 A 
ATOM     21  C   UNL A   1     -21.818  -0.319  29.085  0.00  0.00    -0.003 A 
ATOM     22  C   UNL A   1     -20.745   0.243  28.384  0.00  0.00    -0.000 A 
ATOM     23  C   UNL A   1     -21.018   1.368  27.612  0.00  0.00    -0.000 A 
ATOM     24  C   UNL A   1     -22.994   1.354  28.261  0.00  0.00    -0.003 A 
ATOM     25  C   UNL A   1     -22.151   1.930  27.600  0.00  0.00    -0.000 A 
ENDBRANCH  18  20
ENDBRANCH   1  18
TORSDOF 9
ENDMDL
ENDMDL
