MODEL 300
MODEL 1
REMARK VINA RESULT:    -4.759      0.000      0.000
REMARK INTER + INTRA:          -5.055
REMARK INTER:                  -5.037
REMARK INTRA:                  -0.018
REMARK UNBOUND:                -0.018
REMARK  Name = No_300-gen_results/8p0m/2024-11-26-14-13-15/
REMARK  1 active torsions:
REMARK  status: ('A' for Active; 'I' for Inactive)
REMARK    1  A    between atoms: C_4  and  O_7
REMARK                            x       y       z     vdW  Elec       q    Type
REMARK                         _______ _______ _______ _____ _____    ______ ____
ROOT
ATOM      1  C   UNL A   1     -26.400  -3.739  29.843  0.00  0.00    +0.003 A 
ATOM      2  C   UNL A   1     -26.192  -4.744  29.603  0.00  0.00    +0.000 A 
ATOM      3  C   UNL A   1     -25.304  -2.775  29.654  0.00  0.00    +0.037 A 
ATOM      4  C   UNL A   1     -24.081  -3.179  29.043  0.00  0.00    +0.139 A 
ATOM      5  C   UNL A   1     -23.978  -4.511  28.728  0.00  0.00    +0.037 A 
ATOM      6  C   UNL A   1     -25.007  -5.357  28.947  0.00  0.00    +0.003 A 
ENDROOT
BRANCH   4   7
ATOM      7  O   UNL A   1     -23.085  -2.314  28.875  0.00  0.00    -0.471 OA
ATOM      8  C   UNL A   1     -23.127  -1.055  28.940  0.00  0.00    +0.253 C 
ENDBRANCH   4   7
TORSDOF 1
ENDMDL
ENDMDL
