MODEL 3010
MODEL 1
REMARK VINA RESULT:    -6.263      0.000      0.000
REMARK INTER + INTRA:          -8.204
REMARK INTER:                  -7.727
REMARK INTRA:                  -0.477
REMARK UNBOUND:                -0.477
REMARK  Name = No_3010-gen_results/8p0m/2024-11-26-14-13-15/
REMARK  4 active torsions:
REMARK  status: ('A' for Active; 'I' for Inactive)
REMARK    1  A    between atoms: C_1  and  C_7
REMARK    2  A    between atoms: C_3  and  C_12
REMARK    3  A    between atoms: C_12  and  P_13
REMARK    4  A    between atoms: P_13  and  O_15
REMARK                            x       y       z     vdW  Elec       q    Type
REMARK                         _______ _______ _______ _____ _____    ______ ____
ROOT
ATOM      1  C   UNL A   1     -23.900   1.278  26.011  0.00  0.00    +0.073 A 
ATOM      2  C   UNL A   1     -23.861   0.820  27.130  0.00  0.00    +0.000 A 
ATOM      3  C   UNL A   1     -24.741  -0.138  27.595  0.00  0.00    -0.008 A 
ATOM      4  C   UNL A   1     -25.719  -0.639  26.692  0.00  0.00    +0.026 A 
ATOM      5  C   UNL A   1     -25.614  -0.223  25.408  0.00  0.00    +0.140 A 
ATOM      6  C   UNL A   1     -24.712   0.668  25.043  0.00  0.00    +0.034 A 
ATOM      7  F   UNL A   1     -26.501  -0.722  24.551  0.00  0.00    -0.204 F 
ENDROOT
BRANCH   1   8
ATOM      8  C   UNL A   1     -22.891   2.315  25.585  0.00  0.00    +0.419 C 
ATOM      9  F   UNL A   1     -21.869   2.330  26.277  0.00  0.00    -0.166 F 
ATOM     10  F   UNL A   1     -22.435   2.182  24.323  0.00  0.00    -0.166 F 
ATOM     11  F   UNL A   1     -23.461   3.571  25.614  0.00  0.00    -0.166 F 
ENDBRANCH   1   8
BRANCH   3  12
ATOM     12  C   UNL A   1     -24.776  -0.546  29.057  0.00  0.00    +0.145 C 
BRANCH  12  13
ATOM     13  P   UNL A   1     -23.898  -1.837  29.460  0.00  0.00    +0.384 P 
ATOM     14  O   UNL A   1     -23.817  -1.890  30.945  0.00  0.00    -0.254 OA
ATOM     15  O   UNL A   1     -22.534  -1.814  28.880  0.00  0.00    -0.139 OA
BRANCH  13  16
ATOM     16  O   UNL A   1     -24.676  -3.091  29.097  0.00  0.00    -0.226 OA
ATOM     17 BR   UNL A   1     -24.314  -4.148  28.748  0.00  0.00    +0.108 Br
ENDBRANCH  13  16
ENDBRANCH  12  13
ENDBRANCH   3  12
TORSDOF 4
ENDMDL
ENDMDL
