REMARK  Name = No_3010-gen_results/8p0m/2024-11-26-14-13-15/
REMARK  4 active torsions:
REMARK  status: ('A' for Active; 'I' for Inactive)
REMARK    1  A    between atoms: C_1  and  C_7
REMARK    2  A    between atoms: C_3  and  C_12
REMARK    3  A    between atoms: C_12  and  P_13
REMARK    4  A    between atoms: P_13  and  O_15
REMARK                            x       y       z     vdW  Elec       q    Type
REMARK                         _______ _______ _______ _____ _____    ______ ____
ROOT
ATOM      1  C   UNL A   1     -28.016  -0.814  28.878  0.00  0.00    +0.073 A 
ATOM      2  C   UNL A   1     -27.064  -0.119  28.608  0.00  0.00    +0.000 A 
ATOM      3  C   UNL A   1     -27.001   0.691  27.491  0.00  0.00    -0.008 A 
ATOM      4  C   UNL A   1     -28.137   0.736  26.635  0.00  0.00    +0.026 A 
ATOM      5  C   UNL A   1     -29.236   0.076  27.069  0.00  0.00    +0.140 A 
ATOM      6  C   UNL A   1     -29.218  -0.643  28.175  0.00  0.00    +0.034 A 
ATOM      7  F   UNL A   1     -30.314   0.150  26.292  0.00  0.00    -0.204 F 
ENDROOT
BRANCH   1   8
ATOM      8  C   UNL A   1     -28.003  -1.660  30.127  0.00  0.00    +0.419 C 
ATOM      9  F   UNL A   1     -27.089  -2.490  30.157  0.00  0.00    -0.166 F 
ATOM     10  F   UNL A   1     -27.866  -0.974  31.279  0.00  0.00    -0.166 F 
ATOM     11  F   UNL A   1     -29.205  -2.324  30.262  0.00  0.00    -0.166 F 
ENDBRANCH   1   8
BRANCH   3  12
ATOM     12  C   UNL A   1     -25.720   1.400  27.091  0.00  0.00    +0.145 C 
BRANCH  12  13
ATOM     13  P   UNL A   1     -24.415   1.074  27.979  0.00  0.00    +0.384 P 
ATOM     14  O   UNL A   1     -23.250   1.751  27.347  0.00  0.00    -0.254 OA
ATOM     15  O   UNL A   1     -24.148  -0.379  28.105  0.00  0.00    -0.139 OA
BRANCH  13  16
ATOM     16  O   UNL A   1     -24.550   1.771  29.323  0.00  0.00    -0.226 OA
ATOM     17 BR   UNL A   1     -24.011   1.584  30.345  0.00  0.00    +0.108 Br
ENDBRANCH  13  16
ENDBRANCH  12  13
ENDBRANCH   3  12
TORSDOF 4
