REMARK  Name = No_3011-gen_results/8p0m/2024-11-26-14-13-15/
REMARK  1 active torsions:
REMARK  status: ('A' for Active; 'I' for Inactive)
REMARK    1  A    between atoms: C_2  and  C_3
REMARK                            x       y       z     vdW  Elec       q    Type
REMARK                         _______ _______ _______ _____ _____    ______ ____
ROOT
ATOM      1  C   UNL A   1     -26.402  -0.062  28.622  0.00  0.00    +0.068 A 
ATOM      2  C   UNL A   1     -24.907  -0.015  28.688  0.00  0.00    +0.010 A 
ATOM      3  C   UNL A   1     -23.974   0.881  28.075  0.00  0.00    +0.035 A 
ATOM      4  C   UNL A   1     -24.550   1.856  27.207  0.00  0.00    +0.003 A 
ATOM      5  C   UNL A   1     -25.890   1.878  27.027  0.00  0.00    +0.000 A 
ATOM      6  C   UNL A   1     -26.689   1.010  27.563  0.00  0.00    +0.006 A 
ATOM      7  C   UNL A   1     -22.551   0.875  28.367  0.00  0.00    +0.170 A 
ATOM      8  N   UNL A   1     -21.715   1.541  27.577  0.00  0.00    -0.107 NA
ATOM      9  N   UNL A   1     -22.077  -0.011  29.255  0.00  0.00    -0.226 NA
ATOM     10  C   UNL A   1     -22.778  -0.766  30.094  0.00  0.00    +0.100 A 
ATOM     11  C   UNL A   1     -24.220  -0.837  29.767  0.00  0.00    +0.021 A 
ENDROOT
BRANCH   1  13
ATOM     12  O   UNL A   1     -28.123  -1.335  28.487  0.00  0.00    -0.254 OA
ATOM     13  C   UNL A   1     -27.064  -0.824  28.869  0.00  0.00    +0.333 C 
ATOM     14  F   UNL A   1     -26.750  -1.399  30.205  0.00  0.00    -0.159 F 
ENDBRANCH   1  13
TORSDOF 1
