MODEL 3011
MODEL 1
REMARK VINA RESULT:    -6.044      0.000      0.000
REMARK INTER + INTRA:          -6.603
REMARK INTER:                  -6.398
REMARK INTRA:                  -0.205
REMARK UNBOUND:                -0.205
REMARK  Name = No_3011-gen_results/8p0m/2024-11-26-14-13-15/
REMARK  1 active torsions:
REMARK  status: ('A' for Active; 'I' for Inactive)
REMARK    1  A    between atoms: C_2  and  C_3
REMARK                            x       y       z     vdW  Elec       q    Type
REMARK                         _______ _______ _______ _____ _____    ______ ____
ROOT
ATOM      1  C   UNL A   1     -24.001  -2.557  29.284  0.00  0.00    +0.068 A 
ATOM      2  C   UNL A   1     -25.424  -2.586  29.748  0.00  0.00    +0.010 A 
ATOM      3  C   UNL A   1     -26.359  -3.667  29.824  0.00  0.00    +0.035 A 
ATOM      4  C   UNL A   1     -25.885  -4.915  29.320  0.00  0.00    +0.003 A 
ATOM      5  C   UNL A   1     -24.630  -4.999  28.824  0.00  0.00    +0.000 A 
ATOM      6  C   UNL A   1     -23.839  -3.978  28.727  0.00  0.00    +0.006 A 
ATOM      7  C   UNL A   1     -27.667  -3.550  30.445  0.00  0.00    +0.170 A 
ATOM      8  N   UNL A   1     -28.576  -4.499  30.247  0.00  0.00    -0.107 NA
ATOM      9  N   UNL A   1     -28.026  -2.373  30.978  0.00  0.00    -0.226 NA
ATOM     10  C   UNL A   1     -27.247  -1.324  31.217  0.00  0.00    +0.100 A 
ATOM     11  C   UNL A   1     -25.938  -1.386  30.529  0.00  0.00    +0.021 A 
ENDROOT
BRANCH   1  13
ATOM     12  O   UNL A   1     -22.380  -1.156  29.381  0.00  0.00    -0.254 OA
ATOM     13  C   UNL A   1     -23.396  -1.757  29.013  0.00  0.00    +0.333 C 
ATOM     14  F   UNL A   1     -24.020  -0.951  27.929  0.00  0.00    -0.159 F 
ENDBRANCH   1  13
TORSDOF 1
ENDMDL
ENDMDL
