MODEL 3012
MODEL 1
REMARK VINA RESULT:    -5.333      0.000      0.000
REMARK INTER + INTRA:          -6.437
REMARK INTER:                  -6.268
REMARK INTRA:                  -0.169
REMARK UNBOUND:                -0.169
REMARK  Name = No_3012-gen_results/8p0m/2024-11-26-14-13-15/
REMARK  3 active torsions:
REMARK  status: ('A' for Active; 'I' for Inactive)
REMARK    1  A    between atoms: C_2  and  C_7
REMARK    2  A    between atoms: C_7  and  N_8
REMARK    3  A    between atoms: C_7  and  C_9
REMARK                            x       y       z     vdW  Elec       q    Type
REMARK                         _______ _______ _______ _____ _____    ______ ____
ROOT
ATOM      1  C   UNL A   1     -25.563  -2.607  29.665  0.00  0.00    -0.003 A 
ATOM      2  C   UNL A   1     -24.467  -2.722  29.169  0.00  0.00    -0.002 A 
ATOM      3  C   UNL A   1     -24.000  -3.958  28.735  0.00  0.00    -0.003 A 
ATOM      4  C   UNL A   1     -24.792  -5.149  28.905  0.00  0.00    -0.000 A 
ATOM      5  C   UNL A   1     -26.036  -4.929  29.508  0.00  0.00    -0.000 A 
ATOM      6  C   UNL A   1     -26.424  -3.742  29.916  0.00  0.00    -0.000 A 
ENDROOT
BRANCH   2   7
ATOM      7  C   UNL A   1     -23.507  -1.608  28.941  0.00  0.00    +0.117 C 
BRANCH   7   8
ATOM      8  N   UNL A   1     -22.478  -1.579  28.943  0.00  0.00    -0.209 NA
ATOM      9  C   UNL A   1     -21.841  -0.407  29.232  0.00  0.00    +0.108 C 
ENDBRANCH   7   8
BRANCH   7  10
ATOM     10  C   UNL A   1     -24.050  -0.416  28.160  0.00  0.00    -0.005 C 
ATOM     11  C   UNL A   1     -24.949  -0.431  27.171  0.00  0.00    -0.003 C 
ENDBRANCH   7  10
ENDBRANCH   2   7
TORSDOF 3
ENDMDL
ENDMDL
