REMARK  Name = No_3012-gen_results/8p0m/2024-11-26-14-13-15/
REMARK  3 active torsions:
REMARK  status: ('A' for Active; 'I' for Inactive)
REMARK    1  A    between atoms: C_2  and  C_7
REMARK    2  A    between atoms: C_7  and  N_8
REMARK    3  A    between atoms: C_7  and  C_9
REMARK                            x       y       z     vdW  Elec       q    Type
REMARK                         _______ _______ _______ _____ _____    ______ ____
ROOT
ATOM      1  C   UNL A   1     -28.016  -0.814  28.878  0.00  0.00    -0.003 A 
ATOM      2  C   UNL A   1     -27.064  -0.119  28.608  0.00  0.00    -0.002 A 
ATOM      3  C   UNL A   1     -25.792  -0.430  29.076  0.00  0.00    -0.003 A 
ATOM      4  C   UNL A   1     -25.576  -1.565  29.936  0.00  0.00    -0.000 A 
ATOM      5  C   UNL A   1     -26.735  -2.300  30.217  0.00  0.00    -0.000 A 
ATOM      6  C   UNL A   1     -27.918  -1.954  29.763  0.00  0.00    -0.000 A 
ENDROOT
BRANCH   2   7
ATOM      7  C   UNL A   1     -27.106   1.102  27.759  0.00  0.00    +0.117 C 
BRANCH   7   8
ATOM      8  N   UNL A   1     -27.851   1.504  27.173  0.00  0.00    -0.209 NA
ATOM      9  C   UNL A   1     -27.642   2.700  26.551  0.00  0.00    +0.108 C 
ENDBRANCH   7   8
BRANCH   7  10
ATOM     10  C   UNL A   1     -26.089   2.184  28.106  0.00  0.00    -0.005 C 
ATOM     11  C   UNL A   1     -25.012   2.069  28.889  0.00  0.00    -0.003 C 
ENDBRANCH   7  10
ENDBRANCH   2   7
TORSDOF 3
