REMARK  Name = No_3013-gen_results/8p0m/2024-11-26-14-13-15/
REMARK  1 active torsions:
REMARK  status: ('A' for Active; 'I' for Inactive)
REMARK    1  A    between atoms: C_5  and  C_7
REMARK                            x       y       z     vdW  Elec       q    Type
REMARK                         _______ _______ _______ _____ _____    ______ ____
ROOT
ATOM      1  C   UNL A   1     -28.016  -0.814  28.878  0.00  0.00    +0.000 A 
ATOM      2  C   UNL A   1     -27.064  -0.119  28.608  0.00  0.00    +0.000 A 
ATOM      3  C   UNL A   1     -27.001   0.691  27.491  0.00  0.00    +0.000 A 
ATOM      4  C   UNL A   1     -28.137   0.736  26.635  0.00  0.00    +0.000 A 
ATOM      5  C   UNL A   1     -29.236   0.076  27.069  0.00  0.00    +0.000 A 
ATOM      6  C   UNL A   1     -29.218  -0.643  28.175  0.00  0.00    +0.000 A 
ENDROOT
BRANCH   5   7
ATOM      7  C   UNL A   1     -30.523   0.081  26.370  0.00  0.00    +0.000 A 
ATOM      8  C   UNL A   1     -31.367   1.076  26.575  0.00  0.00    +0.000 A 
ATOM      9  C   UNL A   1     -30.754  -0.830  25.336  0.00  0.00    +0.000 A 
ATOM     10  C   UNL A   1     -32.599   1.162  25.928  0.00  0.00    +0.000 A 
ATOM     11  C   UNL A   1     -31.956  -0.826  24.616  0.00  0.00    +0.000 A 
ATOM     12  C   UNL A   1     -32.870   0.197  24.904  0.00  0.00    +0.000 A 
ENDBRANCH   5   7
TORSDOF 1
