MODEL 3013
MODEL 1
REMARK VINA RESULT:    -6.601      0.000      0.000
REMARK INTER + INTRA:          -7.367
REMARK INTER:                  -6.987
REMARK INTRA:                  -0.380
REMARK UNBOUND:                -0.380
REMARK  Name = No_3013-gen_results/8p0m/2024-11-26-14-13-15/
REMARK  1 active torsions:
REMARK  status: ('A' for Active; 'I' for Inactive)
REMARK    1  A    between atoms: C_5  and  C_7
REMARK                            x       y       z     vdW  Elec       q    Type
REMARK                         _______ _______ _______ _____ _____    ______ ____
ROOT
ATOM      1  C   UNL A   1     -24.473  -4.974  28.869  0.00  0.00    +0.000 A 
ATOM      2  C   UNL A   1     -25.588  -5.059  29.327  0.00  0.00    +0.000 A 
ATOM      3  C   UNL A   1     -26.304  -3.978  29.803  0.00  0.00    +0.000 A 
ATOM      4  C   UNL A   1     -25.706  -2.690  29.710  0.00  0.00    +0.000 A 
ATOM      5  C   UNL A   1     -24.534  -2.625  29.037  0.00  0.00    +0.000 A 
ATOM      6  C   UNL A   1     -23.939  -3.710  28.579  0.00  0.00    +0.000 A 
ENDROOT
BRANCH   5   7
ATOM      7  C   UNL A   1     -23.815  -1.378  28.763  0.00  0.00    +0.000 A 
ATOM      8  C   UNL A   1     -22.574  -1.238  29.194  0.00  0.00    +0.000 A 
ATOM      9  C   UNL A   1     -24.354  -0.450  27.869  0.00  0.00    +0.000 A 
ATOM     10  C   UNL A   1     -21.819  -0.092  28.951  0.00  0.00    +0.000 A 
ATOM     11  C   UNL A   1     -23.674   0.733  27.550  0.00  0.00    +0.000 A 
ATOM     12  C   UNL A   1     -22.387   0.894  28.080  0.00  0.00    +0.000 A 
ENDBRANCH   5   7
TORSDOF 1
ENDMDL
ENDMDL
