REMARK  Name = No_3014-gen_results/8p0m/2024-11-26-14-13-15/
REMARK  6 active torsions:
REMARK  status: ('A' for Active; 'I' for Inactive)
REMARK    1  A    between atoms: C_2  and  N_22
REMARK    2  A    between atoms: C_3  and  C_7
REMARK    3  A    between atoms: C_7  and  C_8
REMARK    4  A    between atoms: C_7  and  C_14
REMARK    5  A    between atoms: C_14  and  C_15
REMARK    6  A    between atoms: C_16  and  C_18
REMARK                            x       y       z     vdW  Elec       q    Type
REMARK                         _______ _______ _______ _____ _____    ______ ____
ROOT
ATOM      1  C   UNL A   1     -26.317   0.399  27.365  0.00  0.00    +0.049 C 
ENDROOT
BRANCH   1   4
ATOM      2  C   UNL A   1     -28.016  -0.814  28.878  0.00  0.00    +0.014 A 
ATOM      3  C   UNL A   1     -28.469  -0.785  29.829  0.00  0.00    +0.064 A 
ATOM      4  C   UNL A   1     -27.087   0.290  28.638  0.00  0.00    -0.017 A 
ATOM      5  C   UNL A   1     -26.832   1.249  29.587  0.00  0.00    -0.004 A 
ATOM      6  C   UNL A   1     -28.391   0.080  31.006  0.00  0.00    +0.018 A 
ATOM      7  C   UNL A   1     -27.494   1.152  30.784  0.00  0.00    +0.001 A 
BRANCH   3   8
ATOM      8  N   UNL A   1     -29.414  -1.936  30.199  0.00  0.00    -0.304 N 
ATOM      9  C   UNL A   1     -28.880  -3.185  30.573  0.00  0.00    +0.080 A 
ATOM     10  C   UNL A   1     -29.843  -4.275  30.627  0.00  0.00    +0.021 A 
ATOM     11  C   UNL A   1     -31.196  -3.872  30.568  0.00  0.00    +0.021 A 
ATOM     12  C   UNL A   1     -30.779  -2.050  30.113  0.00  0.00    +0.080 A 
ENDBRANCH   3   8
ENDBRANCH   1   4
BRANCH   1  13
ATOM     13  C   UNL A   1     -26.881   0.971  26.372  0.00  0.00    -0.018 A 
ATOM     14  C   UNL A   1     -28.203   1.464  26.421  0.00  0.00    -0.004 A 
ATOM     15  C   UNL A   1     -28.751   1.953  25.151  0.00  0.00    -0.000 A 
ATOM     16  C   UNL A   1     -27.999   1.766  23.994  0.00  0.00    -0.000 A 
ATOM     17  C   UNL A   1     -26.820   1.131  23.982  0.00  0.00    -0.000 A 
ATOM     18  C   UNL A   1     -26.190   0.712  25.105  0.00  0.00    -0.004 A 
ENDBRANCH   1  13
BRANCH   1  19
ATOM     19  C   UNL A   1     -24.984  -0.169  27.454  0.00  0.00    +0.031 C 
BRANCH  19  20
ATOM     20  C   UNL A   1     -23.963   0.825  27.856  0.00  0.00    -0.039 C 
ATOM     21  C   UNL A   1     -22.938   0.412  28.719  0.00  0.00    +0.067 C 
ATOM     22  C   UNL A   1     -23.856   2.132  27.276  0.00  0.00    +0.026 C 
BRANCH  21  23
ATOM     23  C   UNL A   1     -23.038  -0.634  29.645  0.00  0.00    +0.418 C 
ATOM     24  F   UNL A   1     -22.123  -0.936  30.196  0.00  0.00    -0.166 F 
ATOM     25  F   UNL A   1     -24.092  -0.296  30.501  0.00  0.00    -0.166 F 
ATOM     26  F   UNL A   1     -23.420  -1.826  28.997  0.00  0.00    -0.166 F 
ENDBRANCH  21  23
ENDBRANCH  19  20
ENDBRANCH   1  19
TORSDOF 6
