MODEL 3014
MODEL 1
REMARK VINA RESULT:    -8.034      0.000      0.000
REMARK INTER + INTRA:         -13.207
REMARK INTER:                 -10.853
REMARK INTRA:                  -2.354
REMARK UNBOUND:                -2.354
REMARK  Name = No_3014-gen_results/8p0m/2024-11-26-14-13-15/
REMARK  6 active torsions:
REMARK  status: ('A' for Active; 'I' for Inactive)
REMARK    1  A    between atoms: C_2  and  N_22
REMARK    2  A    between atoms: C_3  and  C_7
REMARK    3  A    between atoms: C_7  and  C_8
REMARK    4  A    between atoms: C_7  and  C_14
REMARK    5  A    between atoms: C_14  and  C_15
REMARK    6  A    between atoms: C_16  and  C_18
REMARK                            x       y       z     vdW  Elec       q    Type
REMARK                         _______ _______ _______ _____ _____    ______ ____
ROOT
ATOM      1  C   UNL A   1     -23.673  -1.057  29.451  0.00  0.00    +0.049 C 
ENDROOT
BRANCH   1   4
ATOM      2  C   UNL A   1     -24.740  -0.037  27.337  0.00  0.00    +0.014 A 
ATOM      3  C   UNL A   1     -24.597   0.689  26.587  0.00  0.00    +0.064 A 
ATOM      4  C   UNL A   1     -23.636  -0.118  28.293  0.00  0.00    -0.017 A 
ATOM      5  C   UNL A   1     -22.536   0.701  28.209  0.00  0.00    -0.004 A 
ATOM      6  C   UNL A   1     -23.566   1.674  26.258  0.00  0.00    +0.018 A 
ATOM      7  C   UNL A   1     -22.492   1.604  27.178  0.00  0.00    +0.001 A 
BRANCH   3   8
ATOM      8  N   UNL A   1     -25.729   0.892  25.572  0.00  0.00    -0.304 N 
ATOM      9  C   UNL A   1     -26.407   2.126  25.520  0.00  0.00    +0.080 A 
ATOM     10  C   UNL A   1     -27.633   2.123  24.735  0.00  0.00    +0.021 A 
ATOM     11  C   UNL A   1     -27.814   0.979  23.926  0.00  0.00    +0.021 A 
ATOM     12  C   UNL A   1     -26.354   0.012  24.723  0.00  0.00    +0.080 A 
ENDBRANCH   3   8
ENDBRANCH   1   4
BRANCH   1  13
ATOM     13  C   UNL A   1     -24.451  -2.067  29.377  0.00  0.00    -0.018 A 
ATOM     14  C   UNL A   1     -25.714  -2.110  30.006  0.00  0.00    -0.004 A 
ATOM     15  C   UNL A   1     -26.413  -3.399  29.950  0.00  0.00    -0.000 A 
ATOM     16  C   UNL A   1     -25.735  -4.494  29.421  0.00  0.00    -0.000 A 
ATOM     17  C   UNL A   1     -24.466  -4.433  28.996  0.00  0.00    -0.000 A 
ATOM     18  C   UNL A   1     -23.758  -3.280  28.931  0.00  0.00    -0.004 A 
ENDBRANCH   1  13
BRANCH   1  19
ATOM     19  C   UNL A   1     -22.773  -0.676  30.524  0.00  0.00    +0.031 C 
BRANCH  19  20
ATOM     20  C   UNL A   1     -23.455  -0.571  31.834  0.00  0.00    -0.039 C 
ATOM     21  C   UNL A   1     -24.341   0.496  32.038  0.00  0.00    +0.067 C 
ATOM     22  C   UNL A   1     -23.402  -1.591  32.840  0.00  0.00    +0.026 C 
BRANCH  21  23
ATOM     23  C   UNL A   1     -24.273   1.734  31.387  0.00  0.00    +0.418 C 
ATOM     24  F   UNL A   1     -23.287   2.076  31.011  0.00  0.00    -0.166 F 
ATOM     25  F   UNL A   1     -25.247   1.699  30.383  0.00  0.00    -0.166 F 
ATOM     26  F   UNL A   1     -24.648   2.770  32.266  0.00  0.00    -0.166 F 
ENDBRANCH  21  23
ENDBRANCH  19  20
ENDBRANCH   1  19
TORSDOF 6
ENDMDL
ENDMDL
