REMARK  Name = No_3015-gen_results/8p0m/2024-11-26-14-13-15/
REMARK  2 active torsions:
REMARK  status: ('A' for Active; 'I' for Inactive)
REMARK    1  A    between atoms: C_2  and  C_13
REMARK    2  A    between atoms: C_4  and  C_7
REMARK                            x       y       z     vdW  Elec       q    Type
REMARK                         _______ _______ _______ _____ _____    ______ ____
ROOT
ATOM      1  C   UNL A   1     -28.016  -0.814  28.878  0.00  0.00    +0.004 A 
ATOM      2  C   UNL A   1     -28.469  -0.785  29.829  0.00  0.00    +0.071 A 
ATOM      3  C   UNL A   1     -26.504  -0.778  28.877  0.00  0.00    -0.000 A 
ATOM      4  C   UNL A   1     -25.810  -0.853  30.103  0.00  0.00    +0.000 A 
ATOM      5  C   UNL A   1     -27.991  -0.892  31.226  0.00  0.00    +0.004 A 
ATOM      6  C   UNL A   1     -26.604  -0.868  31.265  0.00  0.00    -0.000 A 
ENDROOT
BRANCH   4   7
ATOM      7  C   UNL A   1     -24.389  -0.805  30.164  0.00  0.00    +0.001 A 
ATOM      8  C   UNL A   1     -23.766  -0.950  31.068  0.00  0.00    +0.000 A 
ATOM      9  C   UNL A   1     -22.651  -0.646  31.434  0.00  0.00    +0.001 A 
ATOM     10  C   UNL A   1     -21.748  -0.331  30.372  0.00  0.00    +0.011 A 
ATOM     11  C   UNL A   1     -22.314  -0.113  29.111  0.00  0.00    +0.058 A 
ATOM     12  C   UNL A   1     -23.753  -0.371  28.959  0.00  0.00    +0.011 A 
ATOM     13 CL   UNL A   1     -21.410   0.483  27.814  0.00  0.00    -0.082 Cl
ENDBRANCH   4   7
BRANCH   2  14
ATOM     14  C   UNL A   1     -30.094  -0.776  29.842  0.00  0.00    +0.419 C 
ATOM     15  F   UNL A   1     -30.382  -0.512  28.777  0.00  0.00    -0.166 F 
ATOM     16  F   UNL A   1     -30.754  -1.602  30.499  0.00  0.00    -0.166 F 
ATOM     17  F   UNL A   1     -30.373   0.399  30.568  0.00  0.00    -0.166 F 
ENDBRANCH   2  14
TORSDOF 2
