MODEL 3016
MODEL 1
REMARK VINA RESULT:    -4.393      0.000      0.000
REMARK INTER + INTRA:          -4.393
REMARK INTER:                  -4.393
REMARK INTRA:                   0.000
REMARK UNBOUND:                 0.000
REMARK  Name = No_3016-gen_results/8p0m/2024-11-26-14-13-15/
REMARK  0 active torsions:
REMARK  status: ('A' for Active; 'I' for Inactive)
REMARK                            x       y       z     vdW  Elec       q    Type
REMARK                         _______ _______ _______ _____ _____    ______ ____
ROOT
ATOM      1  C   UNL A   1     -25.413  -2.587  29.648  0.00  0.00    +0.011 A 
ATOM      2  C   UNL A   1     -24.333  -2.871  29.184  0.00  0.00    +0.058 A 
ATOM      3  C   UNL A   1     -24.032  -4.176  28.810  0.00  0.00    +0.011 A 
ATOM      4  C   UNL A   1     -24.982  -5.240  29.006  0.00  0.00    +0.001 A 
ATOM      5  C   UNL A   1     -26.196  -4.828  29.570  0.00  0.00    +0.000 A 
ATOM      6  C   UNL A   1     -26.425  -3.583  29.922  0.00  0.00    +0.001 A 
ATOM      7 CL   UNL A   1     -23.069  -1.743  28.927  0.00  0.00    -0.082 Cl
ENDROOT
TORSDOF 0
ENDMDL
ENDMDL
