REMARK  Name = No_3018-gen_results/8p0m/2024-11-26-14-13-15/
REMARK  2 active torsions:
REMARK  status: ('A' for Active; 'I' for Inactive)
REMARK    1  A    between atoms: C_15  and  C_17
REMARK    2  A    between atoms: C_17  and  O_19
REMARK                            x       y       z     vdW  Elec       q    Type
REMARK                         _______ _______ _______ _____ _____    ______ ____
ROOT
ATOM      1  C   UNL A   1     -28.016  -0.814  28.878  0.00  0.00    +0.001 A 
ATOM      2  C   UNL A   1     -27.064  -0.119  28.608  0.00  0.00    -0.000 A 
ATOM      3  C   UNL A   1     -26.876   1.133  28.913  0.00  0.00    -0.003 A 
ATOM      4  C   UNL A   1     -27.901   1.807  29.644  0.00  0.00    +0.011 A 
ATOM      5  C   UNL A   1     -29.046  -0.232  29.718  0.00  0.00    +0.011 A 
ATOM      6  C   UNL A   1     -28.940   1.052  30.060  0.00  0.00    +0.058 A 
ATOM      7  C   UNL A   1     -25.873  -0.713  27.805  0.00  0.00    -0.000 A 
ATOM      8  C   UNL A   1     -25.286   0.051  26.800  0.00  0.00    -0.001 A 
ATOM      9  C   UNL A   1     -25.224   1.463  27.012  0.00  0.00    +0.020 A 
ATOM     10  C   UNL A   1     -26.141   2.049  27.972  0.00  0.00    -0.018 A 
ATOM     11  C   UNL A   1     -24.275   2.217  26.240  0.00  0.00    +0.229 C 
ATOM     12 CL   UNL A   1     -22.850   2.033  26.415  0.00  0.00    -0.074 Cl
ATOM     13  C   UNL A   1     -24.484   3.790  26.627  0.00  0.00    +0.026 C 
ATOM     14  C   UNL A   1     -26.112   3.469  28.114  0.00  0.00    +0.059 C 
ATOM     15  C   UNL A   1     -25.312   4.324  27.438  0.00  0.00    +0.057 C 
ATOM     16  O   UNL A   1     -24.687   2.200  24.876  0.00  0.00    -0.200 OA
ATOM     17 CL   UNL A   1     -30.116   1.727  31.152  0.00  0.00    -0.082 Cl
ENDROOT
BRANCH  15  18
ATOM     18  C   UNL A   1     -25.401   5.746  27.821  0.00  0.00    +0.337 C 
ATOM     19  O   UNL A   1     -25.661   6.195  28.842  0.00  0.00    -0.245 OA
BRANCH  18  20
ATOM     20  O   UNL A   1     -25.099   6.617  26.760  0.00  0.00    -0.442 OA
ATOM     21  C   UNL A   1     -24.683   7.495  26.517  0.00  0.00    +0.256 C 
ENDBRANCH  18  20
ENDBRANCH  15  18
TORSDOF 2
