MODEL 3018
MODEL 1
REMARK VINA RESULT:    -7.469      0.000      0.000
REMARK INTER + INTRA:          -8.553
REMARK INTER:                  -8.343
REMARK INTRA:                  -0.211
REMARK UNBOUND:                -0.211
REMARK  Name = No_3018-gen_results/8p0m/2024-11-26-14-13-15/
REMARK  2 active torsions:
REMARK  status: ('A' for Active; 'I' for Inactive)
REMARK    1  A    between atoms: C_15  and  C_17
REMARK    2  A    between atoms: C_17  and  O_19
REMARK                            x       y       z     vdW  Elec       q    Type
REMARK                         _______ _______ _______ _____ _____    ______ ____
ROOT
ATOM      1  C   UNL A   1     -25.633   2.613  25.638  0.00  0.00    +0.001 A 
ATOM      2  C   UNL A   1     -24.838   1.854  26.141  0.00  0.00    -0.000 A 
ATOM      3  C   UNL A   1     -24.951   0.566  26.296  0.00  0.00    -0.003 A 
ATOM      4  C   UNL A   1     -26.150  -0.063  25.842  0.00  0.00    +0.011 A 
ATOM      5  C   UNL A   1     -26.826   2.033  25.050  0.00  0.00    +0.011 A 
ATOM      6  C   UNL A   1     -27.028   0.722  25.182  0.00  0.00    +0.058 A 
ATOM      7  C   UNL A   1     -23.489   2.395  26.691  0.00  0.00    -0.000 A 
ATOM      8  C   UNL A   1     -23.008   1.909  27.903  0.00  0.00    -0.001 A 
ATOM      9  C   UNL A   1     -23.271   0.537  28.201  0.00  0.00    +0.020 A 
ATOM     10  C   UNL A   1     -24.364  -0.115  27.503  0.00  0.00    -0.018 A 
ATOM     11  C   UNL A   1     -22.454  -0.104  29.195  0.00  0.00    +0.229 C 
ATOM     12 CL   UNL A   1     -21.040  -0.325  28.974  0.00  0.00    -0.074 Cl
ATOM     13  C   UNL A   1     -23.029  -1.621  29.384  0.00  0.00    +0.026 C 
ATOM     14  C   UNL A   1     -24.656  -1.463  27.869  0.00  0.00    +0.059 C 
ATOM     15  C   UNL A   1     -24.012  -2.194  28.807  0.00  0.00    +0.057 C 
ATOM     16  O   UNL A   1     -22.748   0.475  30.463  0.00  0.00    -0.200 OA
ATOM     17 CL   UNL A   1     -28.402   0.004  24.389  0.00  0.00    -0.082 Cl
ENDROOT
BRANCH  15  18
ATOM     18  C   UNL A   1     -24.438  -3.600  28.948  0.00  0.00    +0.337 C 
ATOM     19  O   UNL A   1     -23.813  -4.551  28.818  0.00  0.00    -0.245 OA
BRANCH  18  20
ATOM     20  O   UNL A   1     -25.791  -3.728  29.306  0.00  0.00    -0.442 OA
ATOM     21  C   UNL A   1     -26.473  -4.334  29.719  0.00  0.00    +0.256 C 
ENDBRANCH  18  20
ENDBRANCH  15  18
TORSDOF 2
ENDMDL
ENDMDL
