REMARK  Name = No_3019-gen_results/8p0m/2024-11-26-14-13-15/
REMARK  1 active torsions:
REMARK  status: ('A' for Active; 'I' for Inactive)
REMARK    1  A    between atoms: C_3  and  C_7
REMARK                            x       y       z     vdW  Elec       q    Type
REMARK                         _______ _______ _______ _____ _____    ______ ____
ROOT
ATOM      1  C   UNL A   1     -28.016  -0.814  28.878  0.00  0.00    +0.002 A 
ATOM      2  C   UNL A   1     -28.469  -0.785  29.829  0.00  0.00    +0.000 A 
ATOM      3  C   UNL A   1     -27.087   0.290  28.638  0.00  0.00    +0.018 A 
ATOM      4  C   UNL A   1     -26.832   1.249  29.587  0.00  0.00    +0.002 A 
ATOM      5  C   UNL A   1     -28.391   0.080  31.006  0.00  0.00    +0.000 A 
ATOM      6  C   UNL A   1     -27.494   1.152  30.784  0.00  0.00    +0.000 A 
ENDROOT
BRANCH   3   7
ATOM      7  C   UNL A   1     -26.311   0.392  27.364  0.00  0.00    +0.081 A 
ATOM      8  N   UNL A   1     -25.130   0.073  27.374  0.00  0.00    -0.244 NA
ATOM      9  C   UNL A   1     -26.947   0.791  26.167  0.00  0.00    +0.019 A 
ATOM     10  C   UNL A   1     -26.171   0.562  25.063  0.00  0.00    +0.003 A 
ATOM     11  C   UNL A   1     -24.246   0.076  26.362  0.00  0.00    +0.099 A 
ATOM     12  C   UNL A   1     -24.792   0.337  25.114  0.00  0.00    +0.021 A 
ENDBRANCH   3   7
TORSDOF 1
