MODEL 3019
MODEL 1
REMARK VINA RESULT:    -6.347      0.000      0.000
REMARK INTER + INTRA:          -6.988
REMARK INTER:                  -6.718
REMARK INTRA:                  -0.270
REMARK UNBOUND:                -0.270
REMARK  Name = No_3019-gen_results/8p0m/2024-11-26-14-13-15/
REMARK  1 active torsions:
REMARK  status: ('A' for Active; 'I' for Inactive)
REMARK    1  A    between atoms: C_3  and  C_7
REMARK                            x       y       z     vdW  Elec       q    Type
REMARK                         _______ _______ _______ _____ _____    ______ ____
ROOT
ATOM      1  C   UNL A   1     -25.795  -2.583  29.721  0.00  0.00    +0.002 A 
ATOM      2  C   UNL A   1     -26.268  -3.517  29.836  0.00  0.00    +0.000 A 
ATOM      3  C   UNL A   1     -24.467  -2.670  29.113  0.00  0.00    +0.018 A 
ATOM      4  C   UNL A   1     -23.921  -3.867  28.721  0.00  0.00    +0.002 A 
ATOM      5  C   UNL A   1     -25.943  -4.908  29.519  0.00  0.00    +0.000 A 
ATOM      6  C   UNL A   1     -24.660  -5.003  28.930  0.00  0.00    +0.000 A 
ENDROOT
BRANCH   3   7
ATOM      7  C   UNL A   1     -23.661  -1.444  28.824  0.00  0.00    +0.081 A 
ATOM      8  N   UNL A   1     -22.479  -1.437  29.138  0.00  0.00    -0.244 NA
ATOM      9  C   UNL A   1     -24.242  -0.347  28.150  0.00  0.00    +0.019 A 
ATOM     10  C   UNL A   1     -23.307   0.558  27.724  0.00  0.00    +0.003 A 
ATOM     11  C   UNL A   1     -21.568  -0.463  28.974  0.00  0.00    +0.099 A 
ATOM     12  C   UNL A   1     -21.999   0.615  28.215  0.00  0.00    +0.021 A 
ENDBRANCH   3   7
TORSDOF 1
ENDMDL
ENDMDL
