MODEL 301
MODEL 1
REMARK VINA RESULT:    -6.348      0.000      0.000
REMARK INTER + INTRA:          -6.972
REMARK INTER:                  -6.720
REMARK INTRA:                  -0.253
REMARK UNBOUND:                -0.253
REMARK  Name = No_301-gen_results/8p0m/2024-11-26-14-13-15/
REMARK  1 active torsions:
REMARK  status: ('A' for Active; 'I' for Inactive)
REMARK    1  A    between atoms: C_4  and  C_11
REMARK                            x       y       z     vdW  Elec       q    Type
REMARK                         _______ _______ _______ _____ _____    ______ ____
ROOT
ATOM      1  C   UNL A   1     -25.482   0.384  25.754  0.00  0.00    -0.000 A 
ATOM      2  C   UNL A   1     -25.323  -0.461  26.604  0.00  0.00    -0.000 A 
ATOM      3  C   UNL A   1     -24.334  -0.394  27.584  0.00  0.00    -0.000 A 
ATOM      4  C   UNL A   1     -24.062  -1.381  28.647  0.00  0.00    -0.000 A 
ATOM      5  C   UNL A   1     -23.003  -1.299  29.620  0.00  0.00    -0.000 A 
ATOM      6  C   UNL A   1     -22.327  -0.075  29.647  0.00  0.00    -0.000 A 
ATOM      7  C   UNL A   1     -24.453   1.476  25.666  0.00  0.00    +0.000 A 
ATOM      8  C   UNL A   1     -23.500   1.670  26.639  0.00  0.00    -0.000 A 
ATOM      9  C   UNL A   1     -23.353   0.722  27.635  0.00  0.00    -0.000 A 
ATOM     10  C   UNL A   1     -22.409   0.875  28.651  0.00  0.00    -0.000 A 
ENDROOT
BRANCH   4  11
ATOM     11  C   UNL A   1     -24.900  -2.620  28.751  0.00  0.00    -0.005 C 
ATOM     12  C   UNL A   1     -24.227  -3.827  28.894  0.00  0.00    -0.026 C 
ATOM     13  C   UNL A   1     -25.010  -4.992  29.079  0.00  0.00    +0.031 C 
ENDBRANCH   4  11
TORSDOF 1
ENDMDL
ENDMDL
