REMARK  Name = No_302-gen_results/8p0m/2024-11-26-14-13-15/
REMARK  4 active torsions:
REMARK  status: ('A' for Active; 'I' for Inactive)
REMARK    1  A    between atoms: C_3  and  C_4
REMARK    2  A    between atoms: C_4  and  O_15
REMARK    3  A    between atoms: C_5  and  C_6
REMARK    4  A    between atoms: O_15  and  C_17
REMARK                            x       y       z     vdW  Elec       q    Type
REMARK                         _______ _______ _______ _____ _____    ______ ____
ROOT
ATOM      1  C   UNL A   1     -27.450   0.643  26.850  0.00  0.00    +0.141 C 
ATOM      2  C   UNL A   1     -26.453   0.994  26.668  0.00  0.00    +0.013 C 
ATOM      3  C   UNL A   1     -26.593   2.398  25.804  0.00  0.00    +0.034 C 
ENDROOT
BRANCH   1   6
ATOM      4  C   UNL A   1     -28.016  -0.814  28.878  0.00  0.00    +0.003 A 
ATOM      5  C   UNL A   1     -28.469  -0.785  29.829  0.00  0.00    +0.000 A 
ATOM      6  C   UNL A   1     -28.182   0.428  28.113  0.00  0.00    +0.034 A 
ATOM      7  C   UNL A   1     -29.421   0.090  30.445  0.00  0.00    +0.000 A 
ATOM      8  C   UNL A   1     -29.046   1.371  28.590  0.00  0.00    +0.003 A 
ATOM      9  C   UNL A   1     -29.639   1.197  29.767  0.00  0.00    +0.000 A 
ENDBRANCH   1   6
BRANCH   2  10
ATOM     10  C   UNL A   1     -25.181   0.862  26.816  0.00  0.00    -0.001 A 
ATOM     11  C   UNL A   1     -24.219   1.677  26.240  0.00  0.00    -0.000 A 
ATOM     12  C   UNL A   1     -22.812   1.602  26.418  0.00  0.00    -0.000 A 
ATOM     13  C   UNL A   1     -22.366   0.954  27.569  0.00  0.00    -0.000 A 
ATOM     14  C   UNL A   1     -23.286   0.171  28.328  0.00  0.00    -0.000 A 
ATOM     15  C   UNL A   1     -24.642   0.129  28.013  0.00  0.00    -0.000 A 
ENDBRANCH   2  10
BRANCH   1  16
ATOM     16  O   UNL A   1     -28.191   0.044  25.791  0.00  0.00    -0.454 OA
BRANCH  16  17
ATOM     17  C   UNL A   1     -29.409   0.494  25.459  0.00  0.00    +0.145 A 
ATOM     18  C   UNL A   1     -29.542   0.632  24.131  0.00  0.00    +0.037 A 
ATOM     19  C   UNL A   1     -30.266   1.557  23.790  0.00  0.00    +0.003 A 
ATOM     20  C   UNL A   1     -31.271   2.233  24.461  0.00  0.00    +0.000 A 
ATOM     21  C   UNL A   1     -31.163   1.933  25.876  0.00  0.00    +0.003 A 
ATOM     22  C   UNL A   1     -30.311   1.066  26.362  0.00  0.00    +0.037 A 
ENDBRANCH  16  17
ENDBRANCH   1  16
TORSDOF 4
