MODEL 3020
MODEL 1
REMARK VINA RESULT:    -4.492      0.000      0.000
REMARK INTER + INTRA:          -4.492
REMARK INTER:                  -4.492
REMARK INTRA:                   0.000
REMARK UNBOUND:                 0.000
REMARK  Name = No_3020-gen_results/8p0m/2024-11-26-14-13-15/
REMARK  0 active torsions:
REMARK  status: ('A' for Active; 'I' for Inactive)
REMARK                            x       y       z     vdW  Elec       q    Type
REMARK                         _______ _______ _______ _____ _____    ______ ____
ROOT
ATOM      1  C   UNL A   1      -9.225  -9.210  20.074  0.00  0.00    +0.011 A 
ATOM      2  C   UNL A   1      -8.232  -9.889  19.956  0.00  0.00    +0.058 A 
ATOM      3  C   UNL A   1      -8.042 -10.694  18.838  0.00  0.00    +0.011 A 
ATOM      4  C   UNL A   1      -9.044 -10.780  17.808  0.00  0.00    +0.001 A 
ATOM      5  C   UNL A   1     -10.171  -9.980  18.036  0.00  0.00    +0.000 A 
ATOM      6  C   UNL A   1     -10.310  -9.249  19.118  0.00  0.00    +0.001 A 
ATOM      7 CL   UNL A   1      -6.963  -9.947  21.105  0.00  0.00    -0.082 Cl
ENDROOT
TORSDOF 0
ENDMDL
ENDMDL
