REMARK  Name = No_3021-gen_results/8p0m/2024-11-26-14-13-15/
REMARK  7 active torsions:
REMARK  status: ('A' for Active; 'I' for Inactive)
REMARK    1  A    between atoms: C_3  and  C_7
REMARK    2  A    between atoms: C_6  and  C_18
REMARK    3  A    between atoms: N_8  and  C_11
REMARK    4  A    between atoms: C_20  and  C_24
REMARK    5  A    between atoms: N_25  and  C_27
REMARK    6  A    between atoms: N_25  and  C_28
REMARK    7  A    between atoms: N_30  and  C_31
REMARK                            x       y       z     vdW  Elec       q    Type
REMARK                         _______ _______ _______ _____ _____    ______ ____
ROOT
ATOM      1  C   UNL A   1     -30.570   2.371  30.044  0.00  0.00    +0.000 A 
ATOM      2  C   UNL A   1     -31.501   2.802  29.270  0.00  0.00    +0.004 A 
ATOM      3  C   UNL A   1     -32.380   3.866  29.652  0.00  0.00    +0.054 A 
ATOM      4  C   UNL A   1     -32.245   4.365  30.938  0.00  0.00    +0.004 A 
ATOM      5  C   UNL A   1     -31.308   3.901  31.769  0.00  0.00    +0.000 A 
ATOM      6  C   UNL A   1     -30.444   2.919  31.373  0.00  0.00    +0.000 A 
ENDROOT
BRANCH   1  12
ATOM      7  C   UNL A   1     -28.016  -0.814  28.878  0.00  0.00    +0.004 A 
ATOM      8  C   UNL A   1     -28.469  -0.785  29.829  0.00  0.00    +0.000 A 
ATOM      9  C   UNL A   1     -28.196   0.348  28.055  0.00  0.00    +0.054 A 
ATOM     10  C   UNL A   1     -29.019   1.350  28.378  0.00  0.00    +0.004 A 
ATOM     11  C   UNL A   1     -29.411   0.180  30.378  0.00  0.00    +0.000 A 
ATOM     12  C   UNL A   1     -29.606   1.250  29.619  0.00  0.00    +0.000 A 
BRANCH   9  13
ATOM     13  C   UNL A   1     -27.348   0.233  26.812  0.00  0.00    +0.253 C 
ATOM     14  N   UNL A   1     -27.752   0.541  25.734  0.00  0.00    -0.253 N 
ATOM     15  O   UNL A   1     -26.067  -0.054  26.922  0.00  0.00    -0.270 OA
ATOM     16  C   UNL A   1     -27.003   0.443  24.482  0.00  0.00    +0.120 C 
BRANCH  14  17
ATOM     17  C   UNL A   1     -29.158   0.943  25.445  0.00  0.00    +0.056 A 
ATOM     18  C   UNL A   1     -30.035   0.377  25.552  0.00  0.00    +0.044 A 
ATOM     19  C   UNL A   1     -31.377   0.837  25.214  0.00  0.00    +0.141 A 
ATOM     20  C   UNL A   1     -31.442   2.088  24.653  0.00  0.00    +0.030 A 
ATOM     21  C   UNL A   1     -29.179   2.312  24.807  0.00  0.00    +0.015 A 
ATOM     22  C   UNL A   1     -30.317   2.829  24.354  0.00  0.00    +0.004 A 
ATOM     23  F   UNL A   1     -32.505   0.199  25.483  0.00  0.00    -0.204 F 
ENDBRANCH  14  17
ENDBRANCH   9  13
ENDBRANCH   1  12
BRANCH   3  24
ATOM     24  C   UNL A   1     -33.413   4.312  28.689  0.00  0.00    +0.257 C 
ATOM     25  N   UNL A   1     -33.228   5.309  28.001  0.00  0.00    -0.224 N 
ATOM     26  O   UNL A   1     -34.460   3.615  28.576  0.00  0.00    -0.269 OA
BRANCH  25  27
ATOM     27  C   UNL A   1     -34.151   5.785  26.961  0.00  0.00    +0.068 C 
ATOM     28  C   UNL A   1     -35.020   6.349  27.361  0.00  0.00    -0.009 C 
ATOM     29  C   UNL A   1     -36.044   6.944  26.529  0.00  0.00    +0.032 C 
ENDBRANCH  25  27
BRANCH  25  30
ATOM     30  C   UNL A   1     -31.994   6.184  28.077  0.00  0.00    +0.134 C 
ATOM     31  C   UNL A   1     -31.489   6.734  27.119  0.00  0.00    +0.013 C 
ATOM     32  N   UNL A   1     -30.297   7.330  27.267  0.00  0.00    -0.191 NA
BRANCH  32  33
ATOM     33  C   UNL A   1     -29.644   7.907  26.298  0.00  0.00    +0.295 C 
ATOM     34  N   UNL A   1     -30.025   8.748  25.683  0.00  0.00    -0.085 NA
ATOM     35  N   UNL A   1     -28.302   7.411  26.010  0.00  0.00    -0.085 NA
ENDBRANCH  32  33
ENDBRANCH  25  30
ENDBRANCH   3  24
TORSDOF 7
