MODEL 3021
MODEL 1
REMARK VINA RESULT:    -7.440      0.000      0.000
REMARK INTER + INTRA:         -11.922
REMARK INTER:                 -10.485
REMARK INTRA:                  -1.436
REMARK UNBOUND:                -1.436
REMARK  Name = No_3021-gen_results/8p0m/2024-11-26-14-13-15/
REMARK  7 active torsions:
REMARK  status: ('A' for Active; 'I' for Inactive)
REMARK    1  A    between atoms: C_3  and  C_7
REMARK    2  A    between atoms: C_6  and  C_18
REMARK    3  A    between atoms: N_8  and  C_11
REMARK    4  A    between atoms: C_20  and  C_24
REMARK    5  A    between atoms: N_25  and  C_27
REMARK    6  A    between atoms: N_25  and  C_28
REMARK    7  A    between atoms: N_30  and  C_31
REMARK                            x       y       z     vdW  Elec       q    Type
REMARK                         _______ _______ _______ _____ _____    ______ ____
ROOT
ATOM      1  C   UNL A   1     -28.058   0.571  26.775  0.00  0.00    +0.000 A 
ATOM      2  C   UNL A   1     -28.549   0.762  25.602  0.00  0.00    +0.004 A 
ATOM      3  C   UNL A   1     -29.959   0.860  25.372  0.00  0.00    +0.054 A 
ATOM      4  C   UNL A   1     -30.792   0.652  26.460  0.00  0.00    +0.004 A 
ATOM      5  C   UNL A   1     -30.299   0.413  27.678  0.00  0.00    +0.000 A 
ATOM      6  C   UNL A   1     -28.950   0.372  27.892  0.00  0.00    +0.000 A 
ENDROOT
BRANCH   1  12
ATOM      7  C   UNL A   1     -23.859   0.492  27.394  0.00  0.00    +0.004 A 
ATOM      8  C   UNL A   1     -24.280   0.411  26.432  0.00  0.00    +0.000 A 
ATOM      9  C   UNL A   1     -24.783   0.488  28.492  0.00  0.00    +0.054 A 
ATOM     10  C   UNL A   1     -26.108   0.548  28.330  0.00  0.00    +0.004 A 
ATOM     11  C   UNL A   1     -25.675   0.479  26.022  0.00  0.00    +0.000 A 
ATOM     12  C   UNL A   1     -26.542   0.499  27.025  0.00  0.00    +0.000 A 
BRANCH   9  13
ATOM     13  C   UNL A   1     -24.029   0.429  29.798  0.00  0.00    +0.253 C 
ATOM     14  N   UNL A   1     -23.756  -0.602  30.330  0.00  0.00    -0.253 N 
ATOM     15  O   UNL A   1     -23.500   1.528  30.295  0.00  0.00    -0.270 OA
ATOM     16  C   UNL A   1     -23.047  -0.745  31.601  0.00  0.00    +0.120 C 
BRANCH  14  17
ATOM     17  C   UNL A   1     -24.227  -1.939  29.868  0.00  0.00    +0.056 A 
ATOM     18  C   UNL A   1     -23.755  -2.606  29.209  0.00  0.00    +0.044 A 
ATOM     19  C   UNL A   1     -24.302  -3.888  28.780  0.00  0.00    +0.141 A 
ATOM     20  C   UNL A   1     -25.561  -4.172  29.246  0.00  0.00    +0.030 A 
ATOM     21  C   UNL A   1     -25.623  -2.197  30.382  0.00  0.00    +0.015 A 
ATOM     22  C   UNL A   1     -26.295  -3.279  30.000  0.00  0.00    +0.004 A 
ATOM     23  F   UNL A   1     -23.660  -4.806  28.075  0.00  0.00    -0.204 F 
ENDBRANCH  14  17
ENDBRANCH   9  13
ENDBRANCH   1  12
BRANCH   3  24
ATOM     24  C   UNL A   1     -30.436   1.100  23.991  0.00  0.00    +0.257 C 
ATOM     25  N   UNL A   1     -30.752   2.229  23.633  0.00  0.00    -0.224 N 
ATOM     26  O   UNL A   1     -30.468   0.121  23.194  0.00  0.00    -0.269 OA
BRANCH  25  27
ATOM     27  C   UNL A   1     -31.157   2.586  22.266  0.00  0.00    +0.068 C 
ATOM     28  C   UNL A   1     -32.191   2.986  22.198  0.00  0.00    -0.009 C 
ATOM     29  C   UNL A   1     -32.799   3.436  20.964  0.00  0.00    +0.032 C 
ENDBRANCH  25  27
BRANCH  25  30
ATOM     30  C   UNL A   1     -30.729   3.449  24.531  0.00  0.00    +0.134 C 
ATOM     31  C   UNL A   1     -29.736   4.113  24.751  0.00  0.00    +0.013 C 
ATOM     32  N   UNL A   1     -29.785   5.056  25.703  0.00  0.00    -0.191 NA
BRANCH  32  33
ATOM     33  C   UNL A   1     -28.768   5.793  26.054  0.00  0.00    +0.295 C 
ATOM     34  N   UNL A   1     -27.919   5.452  26.680  0.00  0.00    -0.085 NA
ATOM     35  N   UNL A   1     -28.746   7.171  25.572  0.00  0.00    -0.085 NA
ENDBRANCH  32  33
ENDBRANCH  25  30
ENDBRANCH   3  24
TORSDOF 7
ENDMDL
ENDMDL
