MODEL 3022
MODEL 1
REMARK VINA RESULT:    -6.847      0.000      0.000
REMARK INTER + INTRA:         -11.707
REMARK INTER:                  -9.649
REMARK INTRA:                  -2.058
REMARK UNBOUND:                -2.058
REMARK  Name = No_3022-gen_results/8p0m/2024-11-26-14-13-15/
REMARK  7 active torsions:
REMARK  status: ('A' for Active; 'I' for Inactive)
REMARK    1  A    between atoms: C_4  and  C_8
REMARK    2  A    between atoms: C_9  and  C_15
REMARK    3  A    between atoms: C_12  and  N_13
REMARK    4  A    between atoms: N_13  and  C_18
REMARK    5  A    between atoms: C_15  and  O_17
REMARK    6  A    between atoms: O_17  and  C_20
REMARK    7  A    between atoms: C_21  and  O_26
REMARK                            x       y       z     vdW  Elec       q    Type
REMARK                         _______ _______ _______ _____ _____    ______ ____
ROOT
ATOM      1  C   UNL A   1     -24.105  -0.329  27.421  0.00  0.00    +0.021 A 
ATOM      2  C   UNL A   1     -23.091   0.404  28.144  0.00  0.00    +0.077 A 
ATOM      3  C   UNL A   1     -22.678   1.683  27.662  0.00  0.00    +0.006 A 
ATOM      4  C   UNL A   1     -23.082   1.997  26.315  0.00  0.00    +0.002 A 
ATOM      5  C   UNL A   1     -24.827   0.667  26.508  0.00  0.00    +0.066 A 
ATOM      6  C   UNL A   1     -24.154   1.662  26.004  0.00  0.00    +0.016 A 
ENDROOT
BRANCH   1  10
ATOM      7  C   UNL A   1     -27.034  -1.428  29.661  0.00  0.00    +0.011 A 
ATOM      8  C   UNL A   1     -26.701  -2.410  29.851  0.00  0.00    +0.058 A 
ATOM      9  C   UNL A   1     -26.149  -0.580  28.847  0.00  0.00    +0.001 A 
ATOM     10  C   UNL A   1     -24.979  -1.124  28.241  0.00  0.00    +0.002 A 
ATOM     11  C   UNL A   1     -25.580  -3.223  29.306  0.00  0.00    +0.011 A 
ATOM     12  C   UNL A   1     -24.731  -2.467  28.554  0.00  0.00    +0.001 A 
ATOM     13 CL   UNL A   1     -27.786  -3.475  30.841  0.00  0.00    -0.082 Cl
ENDBRANCH   1  10
BRANCH   2  14
ATOM     14  C   UNL A   1     -22.316  -0.171  29.309  0.00  0.00    +0.346 C 
ATOM     15  O   UNL A   1     -21.584  -1.077  29.262  0.00  0.00    -0.244 OA
BRANCH  14  16
ATOM     16  O   UNL A   1     -22.582   0.477  30.474  0.00  0.00    -0.418 OA
BRANCH  16  17
ATOM     17  C   UNL A   1     -23.787   0.187  31.066  0.00  0.00    +0.182 A 
ATOM     18  C   UNL A   1     -24.530   1.330  31.450  0.00  0.00    +0.173 A 
ATOM     19  C   UNL A   1     -25.007   1.334  32.534  0.00  0.00    +0.040 A 
ATOM     20  C   UNL A   1     -25.227   0.129  33.375  0.00  0.00    +0.003 A 
ATOM     21  C   UNL A   1     -24.491  -0.988  32.924  0.00  0.00    +0.003 A 
ATOM     22  C   UNL A   1     -23.784  -0.940  31.881  0.00  0.00    +0.041 A 
BRANCH  18  23
ATOM     23  O   UNL A   1     -24.411   2.405  30.724  0.00  0.00    -0.468 OA
ATOM     24  C   UNL A   1     -25.432   2.799  29.916  0.00  0.00    +0.253 C 
ENDBRANCH  18  23
ENDBRANCH  16  17
ENDBRANCH  14  16
ENDBRANCH   2  14
BRANCH   5  25
ATOM     25  N   UNL A   1     -25.816   0.023  25.827  0.00  0.00    -0.238 NA
BRANCH  25  26
ATOM     26  C   UNL A   1     -26.536   0.250  24.674  0.00  0.00    +0.112 C 
ATOM     27  C   UNL A   1     -27.612   1.160  24.765  0.00  0.00    +0.025 C 
ENDBRANCH  25  26
ENDBRANCH   5  25
TORSDOF 7
ENDMDL
ENDMDL
