REMARK  Name = No_3022-gen_results/8p0m/2024-11-26-14-13-15/
REMARK  7 active torsions:
REMARK  status: ('A' for Active; 'I' for Inactive)
REMARK    1  A    between atoms: C_4  and  C_8
REMARK    2  A    between atoms: C_9  and  C_15
REMARK    3  A    between atoms: C_12  and  N_13
REMARK    4  A    between atoms: N_13  and  C_18
REMARK    5  A    between atoms: C_15  and  O_17
REMARK    6  A    between atoms: O_17  and  C_20
REMARK    7  A    between atoms: C_21  and  O_26
REMARK                            x       y       z     vdW  Elec       q    Type
REMARK                         _______ _______ _______ _____ _____    ______ ____
ROOT
ATOM      1  C   UNL A   1     -24.369  -1.119  30.064  0.00  0.00    +0.021 A 
ATOM      2  C   UNL A   1     -23.681   0.152  30.084  0.00  0.00    +0.077 A 
ATOM      3  C   UNL A   1     -22.435   0.282  29.399  0.00  0.00    +0.006 A 
ATOM      4  C   UNL A   1     -21.811  -0.957  29.009  0.00  0.00    +0.002 A 
ATOM      5  C   UNL A   1     -23.780  -1.940  28.912  0.00  0.00    +0.066 A 
ATOM      6  C   UNL A   1     -22.521  -1.792  28.613  0.00  0.00    +0.016 A 
ENDROOT
BRANCH   1  10
ATOM      7  C   UNL A   1     -28.016  -0.814  28.878  0.00  0.00    +0.011 A 
ATOM      8  C   UNL A   1     -28.469  -0.785  29.829  0.00  0.00    +0.058 A 
ATOM      9  C   UNL A   1     -26.546  -0.876  28.850  0.00  0.00    +0.001 A 
ATOM     10  C   UNL A   1     -25.804  -1.032  30.057  0.00  0.00    +0.002 A 
ATOM     11  C   UNL A   1     -27.944  -0.987  31.207  0.00  0.00    +0.011 A 
ATOM     12  C   UNL A   1     -26.582  -1.039  31.223  0.00  0.00    +0.001 A 
ATOM     13 CL   UNL A   1     -30.281  -0.723  29.883  0.00  0.00    -0.082 Cl
ENDBRANCH   1  10
BRANCH   2  14
ATOM     14  C   UNL A   1     -24.126   1.329  30.925  0.00  0.00    +0.346 C 
ATOM     15  O   UNL A   1     -24.446   1.286  32.045  0.00  0.00    -0.244 OA
BRANCH  14  16
ATOM     16  O   UNL A   1     -24.146   2.489  30.217  0.00  0.00    -0.418 OA
BRANCH  16  17
ATOM     17  C   UNL A   1     -25.242   3.295  30.407  0.00  0.00    +0.182 A 
ATOM     18  C   UNL A   1     -25.960   3.580  29.220  0.00  0.00    +0.173 A 
ATOM     19  C   UNL A   1     -26.275   4.705  29.027  0.00  0.00    +0.040 A 
ATOM     20  C   UNL A   1     -26.328   5.767  30.065  0.00  0.00    +0.003 A 
ATOM     21  C   UNL A   1     -25.627   5.414  31.238  0.00  0.00    +0.003 A 
ATOM     22  C   UNL A   1     -25.081   4.285  31.371  0.00  0.00    +0.041 A 
BRANCH  18  23
ATOM     23  O   UNL A   1     -25.986   2.668  28.291  0.00  0.00    -0.468 OA
ATOM     24  C   UNL A   1     -26.891   2.749  27.279  0.00  0.00    +0.253 C 
ENDBRANCH  18  23
ENDBRANCH  16  17
ENDBRANCH  14  16
ENDBRANCH   2  14
BRANCH   5  25
ATOM     25  N   UNL A   1     -24.422  -3.139  28.836  0.00  0.00    -0.238 NA
BRANCH  25  26
ATOM     26  C   UNL A   1     -24.449  -4.299  29.581  0.00  0.00    +0.112 C 
ATOM     27  C   UNL A   1     -25.330  -5.313  29.146  0.00  0.00    +0.025 C 
ENDBRANCH  25  26
ENDBRANCH   5  25
TORSDOF 7
