MODEL 3023
MODEL 1
REMARK VINA RESULT:    -8.776      0.000      0.000
REMARK INTER + INTRA:         -14.493
REMARK INTER:                 -12.881
REMARK INTRA:                  -1.612
REMARK UNBOUND:                -1.612
REMARK  Name = No_3023-gen_results/8p0m/2024-11-26-14-13-15/
REMARK  8 active torsions:
REMARK  status: ('A' for Active; 'I' for Inactive)
REMARK    1  A    between atoms: C_3  and  C_4
REMARK    2  A    between atoms: C_6  and  O_13
REMARK    3  A    between atoms: O_13  and  C_14
REMARK    4  A    between atoms: C_14  and  C_15
REMARK    5  A    between atoms: C_15  and  C_16
REMARK    6  A    between atoms: C_21  and  C_22
REMARK    7  A    between atoms: C_22  and  C_23
REMARK    8  A    between atoms: C_22  and  C_24
REMARK                            x       y       z     vdW  Elec       q    Type
REMARK                         _______ _______ _______ _____ _____    ______ ____
ROOT
ATOM      1  C   UNL A   1     -24.098   0.268  27.601  0.00  0.00    -0.022 A 
ATOM      2  C   UNL A   1     -23.406   0.947  27.113  0.00  0.00    -0.004 A 
ATOM      3  C   UNL A   1     -21.982   1.325  27.402  0.00  0.00    -0.000 A 
ATOM      4  C   UNL A   1     -21.483   0.646  28.508  0.00  0.00    -0.000 A 
ATOM      5  C   UNL A   1     -22.231  -0.213  29.234  0.00  0.00    -0.004 A 
ATOM      6  C   UNL A   1     -23.527  -0.453  28.883  0.00  0.00    -0.011 A 
ENDROOT
BRANCH   1   7
ATOM      7  C   UNL A   1     -25.428  -0.054  27.461  0.00  0.00    +0.073 C 
BRANCH   7   8
ATOM      8  C   UNL A   1     -25.875   0.122  26.153  0.00  0.00    +0.210 C 
BRANCH   8   9
ATOM      9  O   UNL A   1     -26.692   1.202  26.057  0.00  0.00    -0.475 OA
BRANCH   9  13
ATOM     10  C   UNL A   1     -28.240   0.025  24.516  0.00  0.00    +0.037 A 
ATOM     11  C   UNL A   1     -29.224   0.071  23.814  0.00  0.00    +0.003 A 
ATOM     12  C   UNL A   1     -29.821   1.285  23.494  0.00  0.00    +0.000 A 
ATOM     13  C   UNL A   1     -27.764   1.238  25.200  0.00  0.00    +0.139 A 
ATOM     14  C   UNL A   1     -28.252   2.482  24.882  0.00  0.00    +0.037 A 
ATOM     15  C   UNL A   1     -29.364   2.580  24.029  0.00  0.00    +0.003 A 
BRANCH  12  16
ATOM     16  C   UNL A   1     -31.038   1.473  22.652  0.00  0.00    +0.000 A 
ATOM     17  C   UNL A   1     -31.234   2.529  21.695  0.00  0.00    +0.000 A 
ATOM     18  C   UNL A   1     -32.381   2.532  20.932  0.00  0.00    +0.000 A 
ATOM     19  C   UNL A   1     -33.309   1.549  20.820  0.00  0.00    +0.000 A 
ATOM     20  C   UNL A   1     -32.029   0.413  22.553  0.00  0.00    +0.000 A 
ATOM     21  C   UNL A   1     -33.120   0.491  21.669  0.00  0.00    +0.000 A 
ENDBRANCH  12  16
ENDBRANCH   9  13
ENDBRANCH   8   9
ENDBRANCH   7   8
ENDBRANCH   1   7
BRANCH   6  22
ATOM     22  C   UNL A   1     -24.326  -1.360  29.692  0.00  0.00    +0.147 C 
BRANCH  22  23
ATOM     23  C   UNL A   1     -24.602  -2.645  29.343  0.00  0.00    -0.008 A 
ATOM     24  C   UNL A   1     -23.837  -3.368  28.621  0.00  0.00    -0.003 A 
ATOM     25  C   UNL A   1     -24.082  -4.719  28.557  0.00  0.00    -0.000 A 
ATOM     26  C   UNL A   1     -25.877  -3.176  29.764  0.00  0.00    -0.003 A 
ATOM     27  C   UNL A   1     -26.184  -4.507  29.672  0.00  0.00    -0.000 A 
ATOM     28  C   UNL A   1     -25.238  -5.286  29.014  0.00  0.00    -0.000 A 
ENDBRANCH  22  23
BRANCH  22  29
ATOM     29  C   UNL A   1     -24.840  -0.812  30.947  0.00  0.00    +0.372 C 
ATOM     30  O   UNL A   1     -24.378  -1.203  32.040  0.00  0.00    -0.245 OA
ATOM     31  O   UNL A   1     -25.719   0.133  30.944  0.00  0.00    -0.245 OA
ENDBRANCH  22  29
ENDBRANCH   6  22
TORSDOF 8
ENDMDL
ENDMDL
