REMARK  Name = No_3023-gen_results/8p0m/2024-11-26-14-13-15/
REMARK  8 active torsions:
REMARK  status: ('A' for Active; 'I' for Inactive)
REMARK    1  A    between atoms: C_3  and  C_4
REMARK    2  A    between atoms: C_6  and  O_13
REMARK    3  A    between atoms: O_13  and  C_14
REMARK    4  A    between atoms: C_14  and  C_15
REMARK    5  A    between atoms: C_15  and  C_16
REMARK    6  A    between atoms: C_21  and  C_22
REMARK    7  A    between atoms: C_22  and  C_23
REMARK    8  A    between atoms: C_22  and  C_24
REMARK                            x       y       z     vdW  Elec       q    Type
REMARK                         _______ _______ _______ _____ _____    ______ ____
ROOT
ATOM      1  C   UNL A   1     -31.088  -4.363  30.612  0.00  0.00    -0.022 A 
ATOM      2  C   UNL A   1     -31.471  -3.609  31.292  0.00  0.00    -0.004 A 
ATOM      3  C   UNL A   1     -32.865  -3.178  31.647  0.00  0.00    -0.000 A 
ATOM      4  C   UNL A   1     -33.823  -3.917  30.962  0.00  0.00    -0.000 A 
ATOM      5  C   UNL A   1     -33.501  -4.873  30.064  0.00  0.00    -0.004 A 
ATOM      6  C   UNL A   1     -32.191  -5.154  29.808  0.00  0.00    -0.011 A 
ENDROOT
BRANCH   1   7
ATOM      7  C   UNL A   1     -29.845  -4.746  30.163  0.00  0.00    +0.073 C 
BRANCH   7   8
ATOM      8  C   UNL A   1     -28.831  -3.939  30.674  0.00  0.00    +0.210 C 
BRANCH   8   9
ATOM      9  O   UNL A   1     -28.961  -2.659  30.242  0.00  0.00    -0.475 OA
BRANCH   9  13
ATOM     10  C   UNL A   1     -28.016  -0.814  28.878  0.00  0.00    +0.037 A 
ATOM     11  C   UNL A   1     -27.064  -0.119  28.608  0.00  0.00    +0.003 A 
ATOM     12  C   UNL A   1     -25.792  -0.430  29.076  0.00  0.00    +0.000 A 
ATOM     13  C   UNL A   1     -27.882  -1.899  29.863  0.00  0.00    +0.139 A 
ATOM     14  C   UNL A   1     -26.653  -2.314  30.314  0.00  0.00    +0.037 A 
ATOM     15  C   UNL A   1     -25.515  -1.561  29.979  0.00  0.00    +0.003 A 
BRANCH  12  16
ATOM     16  C   UNL A   1     -24.546   0.349  28.823  0.00  0.00    +0.000 A 
ATOM     17  C   UNL A   1     -23.241   0.022  29.332  0.00  0.00    +0.000 A 
ATOM     18  C   UNL A   1     -22.165   0.794  28.952  0.00  0.00    +0.000 A 
ATOM     19  C   UNL A   1     -22.124   1.748  27.989  0.00  0.00    +0.000 A 
ATOM     20  C   UNL A   1     -24.523   1.378  27.795  0.00  0.00    +0.000 A 
ATOM     21  C   UNL A   1     -23.339   2.042  27.430  0.00  0.00    +0.000 A 
ENDBRANCH  12  16
ENDBRANCH   9  13
ENDBRANCH   8   9
ENDBRANCH   7   8
ENDBRANCH   1   7
BRANCH   6  22
ATOM     22  C   UNL A   1     -31.862  -6.168  28.818  0.00  0.00    +0.147 C 
BRANCH  22  23
ATOM     23  C   UNL A   1     -32.122  -7.494  28.974  0.00  0.00    -0.008 A 
ATOM     24  C   UNL A   1     -32.593  -8.241  28.053  0.00  0.00    -0.003 A 
ATOM     25  C   UNL A   1     -32.562  -9.603  28.235  0.00  0.00    -0.000 A 
ATOM     26  C   UNL A   1     -31.915  -8.048  30.291  0.00  0.00    -0.003 A 
ATOM     27  C   UNL A   1     -31.926  -9.397  30.529  0.00  0.00    -0.000 A 
ATOM     28  C   UNL A   1     -32.292 -10.184  29.442  0.00  0.00    -0.000 A 
ENDBRANCH  22  23
BRANCH  22  29
ATOM     29  C   UNL A   1     -31.215  -5.684  27.599  0.00  0.00    +0.372 C 
ATOM     30  O   UNL A   1     -30.773  -6.495  26.757  0.00  0.00    -0.245 OA
ATOM     31  O   UNL A   1     -31.160  -4.421  27.337  0.00  0.00    -0.245 OA
ENDBRANCH  22  29
ENDBRANCH   6  22
TORSDOF 8
