REMARK  Name = No_3024-gen_results/8p0m/2024-11-26-14-13-15/
REMARK  8 active torsions:
REMARK  status: ('A' for Active; 'I' for Inactive)
REMARK    1  A    between atoms: C_3  and  C_4
REMARK    2  A    between atoms: C_4  and  C_5
REMARK    3  A    between atoms: C_4  and  C_22
REMARK    4  A    between atoms: C_12  and  C_14
REMARK    5  A    between atoms: C_22  and  N_24
REMARK    6  A    between atoms: N_24  and  C_25
REMARK    7  A    between atoms: C_26  and  C_27
REMARK    8  A    between atoms: C_28  and  C_29
REMARK                            x       y       z     vdW  Elec       q    Type
REMARK                         _______ _______ _______ _____ _____    ______ ____
ROOT
ATOM      1  C   UNL A   1     -26.263   0.636  27.646  0.00  0.00    +0.059 C 
ATOM      2  C   UNL A   1     -25.243  -0.590  27.890  0.00  0.00    +0.011 C 
ENDROOT
BRANCH   1   5
ATOM      3  N   UNL A   1     -28.054  -1.050  28.725  0.00  0.00    -0.253 NA
ATOM      4  C   UNL A   1     -27.746  -0.073  29.010  0.00  0.00    +0.056 C 
ATOM      5  C   UNL A   1     -27.174   0.733  28.825  0.00  0.00    -0.006 C 
ATOM      6  C   UNL A   1     -28.753  -1.931  29.516  0.00  0.00    +0.081 C 
ATOM      7  C   UNL A   1     -29.107  -1.514  30.535  0.00  0.00    +0.124 C 
ATOM      8  C   UNL A   1     -28.448  -0.165  30.506  0.00  0.00    +0.061 C 
BRANCH   7   9
ATOM      9  C   UNL A   1     -29.872  -1.995  31.689  0.00  0.00    +0.231 C 
ATOM     10  O   UNL A   1     -29.826  -1.627  32.762  0.00  0.00    -0.275 OA
ATOM     11  N   UNL A   1     -30.665  -3.091  31.343  0.00  0.00    -0.279 N 
ATOM     12  C   UNL A   1     -30.873  -3.607  30.122  0.00  0.00    +0.093 C 
ATOM     13  C   UNL A   1     -31.962  -4.402  30.110  0.00  0.00    +0.022 C 
ATOM     14  C   UNL A   1     -32.212  -5.193  30.954  0.00  0.00    +0.004 C 
ATOM     15  C   UNL A   1     -31.815  -4.916  32.358  0.00  0.00    +0.022 C 
ATOM     16  C   UNL A   1     -31.085  -3.819  32.537  0.00  0.00    +0.093 C 
ENDBRANCH   7   9
ENDBRANCH   1   5
BRANCH   1  17
ATOM     17  C   UNL A   1     -25.390   1.645  27.183  0.00  0.00    -0.017 A 
ATOM     18  C   UNL A   1     -24.400   1.375  26.252  0.00  0.00    -0.004 A 
ATOM     19  C   UNL A   1     -23.430   2.361  25.949  0.00  0.00    -0.000 A 
ATOM     20  C   UNL A   1     -23.659   3.659  26.489  0.00  0.00    -0.000 A 
ATOM     21  C   UNL A   1     -25.323   3.022  27.653  0.00  0.00    -0.004 A 
ATOM     22  C   UNL A   1     -24.555   3.977  27.273  0.00  0.00    -0.000 A 
ENDBRANCH   1  17
BRANCH   1  23
ATOM     23  C   UNL A   1     -27.066   0.319  26.384  0.00  0.00    +0.120 C 
BRANCH  23  24
ATOM     24  N   UNL A   1     -28.227   0.834  26.304  0.00  0.00    -0.236 NA
BRANCH  24  25
ATOM     25  C   UNL A   1     -28.617   1.652  25.588  0.00  0.00    +0.080 C 
ATOM     26  C   UNL A   1     -29.965   2.131  25.557  0.00  0.00    +0.017 C 
BRANCH  26  27
ATOM     27  C   UNL A   1     -30.359   3.218  25.454  0.00  0.00    +0.001 C 
ATOM     28  C   UNL A   1     -31.733   3.653  25.497  0.00  0.00    +0.000 C 
BRANCH  28  29
ATOM     29  C   UNL A   1     -32.652   2.704  25.582  0.00  0.00    +0.000 C 
ATOM     30  C   UNL A   1     -32.300   1.424  25.672  0.00  0.00    +0.000 C 
ENDBRANCH  28  29
ENDBRANCH  26  27
ENDBRANCH  24  25
ENDBRANCH  23  24
ENDBRANCH   1  23
TORSDOF 8
