MODEL 3025
MODEL 1
REMARK VINA RESULT:    -6.910      0.000      0.000
REMARK INTER + INTRA:          -9.908
REMARK INTER:                  -8.930
REMARK INTRA:                  -0.978
REMARK UNBOUND:                -0.978
REMARK  Name = No_3025-gen_results/8p0m/2024-11-26-14-13-15/
REMARK  5 active torsions:
REMARK  status: ('A' for Active; 'I' for Inactive)
REMARK    1  A    between atoms: C_1  and  C_2
REMARK    2  A    between atoms: C_1  and  C_8
REMARK    3  A    between atoms: C_3  and  C_19
REMARK    4  A    between atoms: C_5  and  C_15
REMARK    5  A    between atoms: C_8  and  C_9
REMARK                            x       y       z     vdW  Elec       q    Type
REMARK                         _______ _______ _______ _____ _____    ______ ____
ROOT
ATOM      1  C   UNL A   1     -11.472   1.495  36.673  0.00  0.00    -0.012 A 
ATOM      2  C   UNL A   1     -12.068   1.812  35.464  0.00  0.00    +0.064 A 
ATOM      3  C   UNL A   1     -13.332   2.486  35.285  0.00  0.00    +0.014 A 
ATOM      4  C   UNL A   1     -14.063   2.867  36.435  0.00  0.00    +0.072 A 
ATOM      5  C   UNL A   1     -13.455   2.580  37.704  0.00  0.00    +0.004 A 
ATOM      6  C   UNL A   1     -12.243   1.964  37.852  0.00  0.00    -0.004 A 
ENDROOT
BRANCH   4   7
ATOM      7  C   UNL A   1     -15.331   3.553  36.391  0.00  0.00    +0.419 C 
ATOM      8  F   UNL A   1     -15.858   3.599  35.315  0.00  0.00    -0.166 F 
ATOM      9  F   UNL A   1     -16.231   2.920  37.306  0.00  0.00    -0.166 F 
ATOM     10  F   UNL A   1     -15.120   4.803  36.927  0.00  0.00    -0.166 F 
ENDBRANCH   4   7
BRANCH   2  11
ATOM     11  C   UNL A   1     -11.403   1.479  34.215  0.00  0.00    +0.100 C 
ATOM     12  N   UNL A   1     -11.510   1.459  33.121  0.00  0.00    -0.191 NA
ENDBRANCH   2  11
BRANCH   1  13
ATOM     13  C   UNL A   1     -10.380   0.991  36.800  0.00  0.00    +0.032 C 
BRANCH  13  14
ATOM     14  C   UNL A   1     -10.352  -0.470  36.805  0.00  0.00    +0.031 C 
BRANCH  14  15
ATOM     15  C   UNL A   1     -10.860  -1.216  37.987  0.00  0.00    -0.022 A 
ATOM     16  C   UNL A   1     -11.745  -2.057  37.733  0.00  0.00    -0.004 A 
ATOM     17  C   UNL A   1     -12.260  -2.688  38.958  0.00  0.00    -0.000 A 
ATOM     18  C   UNL A   1     -11.819  -2.357  40.161  0.00  0.00    -0.000 A 
ATOM     19  C   UNL A   1     -10.849  -1.430  40.339  0.00  0.00    -0.000 A 
ATOM     20  C   UNL A   1     -10.334  -0.772  39.229  0.00  0.00    -0.004 A 
ENDBRANCH  14  15
ENDBRANCH  13  14
ENDBRANCH   1  13
TORSDOF 5
ENDMDL
ENDMDL
