REMARK  Name = No_3025-gen_results/8p0m/2024-11-26-14-13-15/
REMARK  5 active torsions:
REMARK  status: ('A' for Active; 'I' for Inactive)
REMARK    1  A    between atoms: C_1  and  C_2
REMARK    2  A    between atoms: C_1  and  C_8
REMARK    3  A    between atoms: C_3  and  C_19
REMARK    4  A    between atoms: C_5  and  C_15
REMARK    5  A    between atoms: C_8  and  C_9
REMARK                            x       y       z     vdW  Elec       q    Type
REMARK                         _______ _______ _______ _____ _____    ______ ____
ROOT
ATOM      1  C   UNL A   1     -27.064  -0.119  28.608  0.00  0.00    -0.012 A 
ATOM      2  C   UNL A   1     -26.972   0.714  27.506  0.00  0.00    +0.064 A 
ATOM      3  C   UNL A   1     -25.820   1.491  27.116  0.00  0.00    +0.014 A 
ATOM      4  C   UNL A   1     -24.656   1.424  27.918  0.00  0.00    +0.072 A 
ATOM      5  C   UNL A   1     -24.711   0.542  29.051  0.00  0.00    +0.004 A 
ATOM      6  C   UNL A   1     -25.804  -0.206  29.388  0.00  0.00    -0.004 A 
ENDROOT
BRANCH   4   7
ATOM      7  C   UNL A   1     -23.439   2.142  27.632  0.00  0.00    +0.419 C 
ATOM      8  F   UNL A   1     -22.595   2.090  28.483  0.00  0.00    -0.166 F 
ATOM      9  F   UNL A   1     -22.881   1.639  26.414  0.00  0.00    -0.166 F 
ATOM     10  F   UNL A   1     -23.806   3.434  27.334  0.00  0.00    -0.166 F 
ENDBRANCH   4   7
BRANCH   2  11
ATOM     11  C   UNL A   1     -28.103   0.854  26.602  0.00  0.00    +0.100 C 
ATOM     12  N   UNL A   1     -28.476   0.627  25.593  0.00  0.00    -0.191 NA
ENDBRANCH   2  11
BRANCH   1  13
ATOM     13  C   UNL A   1     -28.016  -0.814  28.878  0.00  0.00    +0.032 C 
BRANCH  13  14
ATOM     14  C   UNL A   1     -28.696  -0.499  30.133  0.00  0.00    +0.031 C 
BRANCH  14  15
ATOM     15  C   UNL A   1     -29.850  -1.325  30.577  0.00  0.00    -0.022 A 
ATOM     16  C   UNL A   1     -30.004  -2.390  29.947  0.00  0.00    -0.004 A 
ATOM     17  C   UNL A   1     -31.214  -3.106  30.381  0.00  0.00    -0.000 A 
ATOM     18  C   UNL A   1     -32.018  -2.629  31.317  0.00  0.00    -0.000 A 
ATOM     19  C   UNL A   1     -31.767  -1.459  31.950  0.00  0.00    -0.000 A 
ATOM     20  C   UNL A   1     -30.656  -0.714  31.574  0.00  0.00    -0.004 A 
ENDBRANCH  14  15
ENDBRANCH  13  14
ENDBRANCH   1  13
TORSDOF 5
