MODEL 3026
MODEL 1
REMARK VINA RESULT:    -8.125      0.000      0.000
REMARK INTER + INTRA:         -12.889
REMARK INTER:                 -10.025
REMARK INTRA:                  -2.864
REMARK UNBOUND:                -2.864
REMARK  Name = No_3026-gen_results/8p0m/2024-11-26-14-13-15/
REMARK  4 active torsions:
REMARK  status: ('A' for Active; 'I' for Inactive)
REMARK    1  A    between atoms: C_2  and  C_7
REMARK    2  A    between atoms: C_7  and  C_8
REMARK    3  A    between atoms: C_7  and  C_9
REMARK    4  A    between atoms: C_10  and  C_11
REMARK                            x       y       z     vdW  Elec       q    Type
REMARK                         _______ _______ _______ _____ _____    ______ ____
ROOT
ATOM      1  C   UNL A   1     -25.601  -1.192  29.477  0.00  0.00    +0.062 C 
ENDROOT
BRANCH   1   2
ATOM      2  C   UNL A   1     -26.538  -0.555  28.662  0.00  0.00    -0.036 C 
ATOM      3  C   UNL A   1     -26.350  -0.237  27.350  0.00  0.00    -0.007 C 
ATOM      4  C   UNL A   1     -25.239  -0.443  26.542  0.00  0.00    -0.001 C 
ATOM      5  C   UNL A   1     -25.640  -0.326  25.083  0.00  0.00    -0.000 C 
ATOM      6  C   UNL A   1     -27.347   0.622  26.690  0.00  0.00    -0.001 C 
ATOM      7  C   UNL A   1     -26.828   0.491  25.145  0.00  0.00    -0.000 C 
ATOM      8  C   UNL A   1     -27.765  -0.153  29.328  0.00  0.00    +0.027 C 
ENDBRANCH   1   2
BRANCH   1  10
ATOM      9  C   UNL A   1     -24.311  -3.056  28.699  0.00  0.00    -0.004 A 
ATOM     10  C   UNL A   1     -25.309  -2.667  29.260  0.00  0.00    -0.015 A 
ATOM     11  C   UNL A   1     -26.266  -3.489  29.762  0.00  0.00    -0.004 A 
ATOM     12  C   UNL A   1     -26.092  -4.879  29.624  0.00  0.00    -0.000 A 
ATOM     13  C   UNL A   1     -24.022  -4.464  28.608  0.00  0.00    -0.000 A 
ATOM     14  C   UNL A   1     -24.966  -5.332  29.070  0.00  0.00    -0.000 A 
ENDBRANCH   1  10
BRANCH   1  15
ATOM     15  C   UNL A   1     -25.171  -0.489  30.642  0.00  0.00    -0.018 C 
ATOM     16  C   UNL A   1     -24.138   0.440  30.696  0.00  0.00    -0.004 C 
BRANCH  16  17
ATOM     17  C   UNL A   1     -23.137   0.549  29.638  0.00  0.00    -0.004 A 
ATOM     18  C   UNL A   1     -23.394   1.542  28.637  0.00  0.00    -0.022 A 
ATOM     19  C   UNL A   1     -22.068  -0.373  29.614  0.00  0.00    -0.000 A 
ATOM     20  C   UNL A   1     -21.089  -0.272  28.606  0.00  0.00    -0.000 A 
ATOM     21  C   UNL A   1     -24.427   2.460  28.629  0.00  0.00    +0.031 C 
ATOM     22  C   UNL A   1     -20.980   0.965  27.825  0.00  0.00    -0.000 A 
ATOM     23  C   UNL A   1     -22.147   1.774  27.724  0.00  0.00    -0.004 A 
ENDBRANCH  16  17
ENDBRANCH   1  15
TORSDOF 4
ENDMDL
ENDMDL
