MODEL 3027
MODEL 1
REMARK VINA RESULT:    -5.210      0.000      0.000
REMARK INTER + INTRA:          -5.689
REMARK INTER:                  -5.514
REMARK INTRA:                  -0.174
REMARK UNBOUND:                -0.174
REMARK  Name = No_3027-gen_results/8p0m/2024-11-26-14-13-15/
REMARK  1 active torsions:
REMARK  status: ('A' for Active; 'I' for Inactive)
REMARK    1  A    between atoms: C_2  and  C_4
REMARK                            x       y       z     vdW  Elec       q    Type
REMARK                         _______ _______ _______ _____ _____    ______ ____
ROOT
ATOM      1  C   UNL A   1     -24.366  -2.824  29.159  0.00  0.00    +0.071 A 
ATOM      2  C   UNL A   1     -24.059  -3.809  28.906  0.00  0.00    +0.004 A 
ATOM      3  C   UNL A   1     -24.841  -5.071  29.012  0.00  0.00    -0.000 A 
ATOM      4  C   UNL A   1     -26.146  -4.901  29.577  0.00  0.00    -0.000 A 
ATOM      5  C   UNL A   1     -26.555  -3.617  29.918  0.00  0.00    -0.000 A 
ATOM      6  C   UNL A   1     -25.700  -2.543  29.748  0.00  0.00    +0.004 A 
ENDROOT
BRANCH   1   8
ATOM      7  F   UNL A   1     -22.455  -1.825  28.913  0.00  0.00    -0.166 F 
ATOM      8  C   UNL A   1     -23.504  -1.581  29.014  0.00  0.00    +0.419 C 
ATOM      9  F   UNL A   1     -23.958  -0.889  28.090  0.00  0.00    -0.166 F 
ATOM     10  F   UNL A   1     -23.681  -0.813  30.154  0.00  0.00    -0.166 F 
ENDBRANCH   1   8
TORSDOF 1
ENDMDL
ENDMDL
