REMARK  Name = No_3027-gen_results/8p0m/2024-11-26-14-13-15/
REMARK  1 active torsions:
REMARK  status: ('A' for Active; 'I' for Inactive)
REMARK    1  A    between atoms: C_2  and  C_4
REMARK                            x       y       z     vdW  Elec       q    Type
REMARK                         _______ _______ _______ _____ _____    ______ ____
ROOT
ATOM      1  C   UNL A   1     -28.359   0.895  28.438  0.00  0.00    +0.071 A 
ATOM      2  C   UNL A   1     -27.921   1.809  28.755  0.00  0.00    +0.004 A 
ATOM      3  C   UNL A   1     -27.971   3.135  28.080  0.00  0.00    -0.000 A 
ATOM      4  C   UNL A   1     -28.662   3.124  26.826  0.00  0.00    -0.000 A 
ATOM      5  C   UNL A   1     -29.235   1.931  26.399  0.00  0.00    -0.000 A 
ATOM      6  C   UNL A   1     -29.099   0.781  27.155  0.00  0.00    +0.004 A 
ENDROOT
BRANCH   1   8
ATOM      7  F   UNL A   1     -28.073  -1.254  28.532  0.00  0.00    -0.166 F 
ATOM      8  C   UNL A   1     -28.266  -0.421  29.193  0.00  0.00    +0.419 C 
ATOM      9  F   UNL A   1     -27.441  -0.294  30.110  0.00  0.00    -0.166 F 
ATOM     10  F   UNL A   1     -29.480  -0.623  29.832  0.00  0.00    -0.166 F 
ENDBRANCH   1   8
TORSDOF 1
