MODEL 3028
MODEL 1
REMARK VINA RESULT:    -4.543      0.000      0.000
REMARK INTER + INTRA:          -4.543
REMARK INTER:                  -4.543
REMARK INTRA:                   0.000
REMARK UNBOUND:                 0.000
REMARK  Name = No_3028-gen_results/8p0m/2024-11-26-14-13-15/
REMARK  0 active torsions:
REMARK  status: ('A' for Active; 'I' for Inactive)
REMARK                            x       y       z     vdW  Elec       q    Type
REMARK                         _______ _______ _______ _____ _____    ______ ____
ROOT
ATOM      1  C   UNL A   1     -10.293  -9.136  19.493  0.00  0.00    +0.002 A 
ATOM      2  C   UNL A   1      -9.409  -9.155  20.318  0.00  0.00    +0.030 A 
ATOM      3  C   UNL A   1      -8.186  -9.796  20.124  0.00  0.00    +0.140 A 
ATOM      4  C   UNL A   1      -7.964 -10.537  18.898  0.00  0.00    +0.030 A 
ATOM      5  C   UNL A   1      -9.016 -10.506  17.983  0.00  0.00    +0.002 A 
ATOM      6  C   UNL A   1     -10.146  -9.881  18.253  0.00  0.00    +0.000 A 
ATOM      7  F   UNL A   1      -7.201  -9.856  21.013  0.00  0.00    -0.204 F 
ENDROOT
TORSDOF 0
ENDMDL
ENDMDL
