MODEL 3029
MODEL 1
REMARK VINA RESULT:    -5.861      0.000      0.000
REMARK INTER + INTRA:          -6.278
REMARK INTER:                  -6.204
REMARK INTRA:                  -0.074
REMARK UNBOUND:                -0.074
REMARK  Name = No_3029-gen_results/8p0m/2024-11-26-14-13-15/
REMARK  1 active torsions:
REMARK  status: ('A' for Active; 'I' for Inactive)
REMARK    1  A    between atoms: C_5  and  C_11
REMARK                            x       y       z     vdW  Elec       q    Type
REMARK                         _______ _______ _______ _____ _____    ______ ____
ROOT
ATOM      1  C   UNL A   1     -30.684  -9.739  29.627  0.00  0.00    +0.099 A 
ATOM      2  C   UNL A   1     -30.017 -10.286  30.473  0.00  0.00    +0.019 A 
ATOM      3  C   UNL A   1     -29.103 -11.280  30.137  0.00  0.00    +0.003 A 
ATOM      4  C   UNL A   1     -28.234 -12.034  31.085  0.00  0.00    +0.005 A 
ATOM      5  C   UNL A   1     -28.240 -11.577  32.436  0.00  0.00    +0.057 A 
ATOM      6  C   UNL A   1     -29.130 -10.528  32.744  0.00  0.00    +0.005 A 
ATOM      7  C   UNL A   1     -29.929  -9.922  31.853  0.00  0.00    +0.002 A 
ATOM      8  N   UNL A   1     -30.822 -10.303  28.334  0.00  0.00    -0.242 NA
ATOM      9  C   UNL A   1     -29.876 -11.209  27.888  0.00  0.00    +0.099 A 
ATOM     10  C   UNL A   1     -29.023 -11.822  28.790  0.00  0.00    +0.021 A 
ENDROOT
BRANCH   5  11
ATOM     11  C   UNL A   1     -27.588 -12.237  33.537  0.00  0.00    +0.284 C 
ATOM     12  N   UNL A   1     -28.311 -12.386  34.639  0.00  0.00    -0.084 NA
ATOM     13  O   UNL A   1     -26.495 -12.774  33.421  0.00  0.00    -0.267 OA
ENDBRANCH   5  11
TORSDOF 1
ENDMDL
ENDMDL
