MODEL 302
MODEL 1
REMARK VINA RESULT:    -8.430      0.000      0.000
REMARK INTER + INTRA:         -12.198
REMARK INTER:                 -10.402
REMARK INTRA:                  -1.796
REMARK UNBOUND:                -1.796
REMARK  Name = No_302-gen_results/8p0m/2024-11-26-14-13-15/
REMARK  4 active torsions:
REMARK  status: ('A' for Active; 'I' for Inactive)
REMARK    1  A    between atoms: C_3  and  C_4
REMARK    2  A    between atoms: C_4  and  O_15
REMARK    3  A    between atoms: C_5  and  C_6
REMARK    4  A    between atoms: O_15  and  C_17
REMARK                            x       y       z     vdW  Elec       q    Type
REMARK                         _______ _______ _______ _____ _____    ______ ____
ROOT
ATOM      1  C   UNL A   1     -24.486  -0.312  29.519  0.00  0.00    +0.141 C 
ATOM      2  C   UNL A   1     -25.046  -1.193  29.274  0.00  0.00    +0.013 C 
ATOM      3  C   UNL A   1     -26.604  -0.707  29.004  0.00  0.00    +0.034 C 
ENDROOT
BRANCH   1   6
ATOM      4  C   UNL A   1     -21.966  -0.111  29.111  0.00  0.00    +0.003 A 
ATOM      5  C   UNL A   1     -21.255   0.310  28.457  0.00  0.00    +0.000 A 
ATOM      6  C   UNL A   1     -23.342   0.324  28.838  0.00  0.00    +0.034 A 
ATOM      7  C   UNL A   1     -21.289   1.400  27.528  0.00  0.00    +0.000 A 
ATOM      8  C   UNL A   1     -23.534   1.346  27.953  0.00  0.00    +0.003 A 
ATOM      9  C   UNL A   1     -22.500   1.856  27.290  0.00  0.00    +0.000 A 
ENDBRANCH   1   6
BRANCH   2  10
ATOM     10  C   UNL A   1     -25.090  -2.463  29.065  0.00  0.00    -0.001 A 
ATOM     11  C   UNL A   1     -24.013  -3.251  28.692  0.00  0.00    -0.000 A 
ATOM     12  C   UNL A   1     -24.004  -4.658  28.503  0.00  0.00    -0.000 A 
ATOM     13  C   UNL A   1     -25.016  -5.376  29.139  0.00  0.00    -0.000 A 
ATOM     14  C   UNL A   1     -26.135  -4.674  29.677  0.00  0.00    -0.000 A 
ATOM     15  C   UNL A   1     -26.188  -3.282  29.685  0.00  0.00    -0.000 A 
ENDBRANCH   2  10
BRANCH   1  16
ATOM     16  O   UNL A   1     -24.636   0.286  30.803  0.00  0.00    -0.454 OA
BRANCH  16  17
ATOM     17  C   UNL A   1     -24.626  -0.459  31.917  0.00  0.00    +0.145 A 
ATOM     18  C   UNL A   1     -25.660  -0.166  32.720  0.00  0.00    +0.037 A 
ATOM     19  C   UNL A   1     -25.418  -0.271  33.914  0.00  0.00    +0.003 A 
ATOM     20  C   UNL A   1     -24.451  -0.990  34.596  0.00  0.00    +0.000 A 
ATOM     21  C   UNL A   1     -23.431  -1.402  33.650  0.00  0.00    +0.003 A 
ATOM     22  C   UNL A   1     -23.525  -1.199  32.360  0.00  0.00    +0.037 A 
ENDBRANCH  16  17
ENDBRANCH   1  16
TORSDOF 4
ENDMDL
ENDMDL
