REMARK  Name = No_303-gen_results/8p0m/2024-11-26-14-13-15/
REMARK  8 active torsions:
REMARK  status: ('A' for Active; 'I' for Inactive)
REMARK    1  A    between atoms: C_3  and  C_7
REMARK    2  A    between atoms: C_7  and  C_13
REMARK    3  A    between atoms: C_8  and  C_9
REMARK    4  A    between atoms: C_10  and  C_11
REMARK    5  A    between atoms: N_14  and  C_16
REMARK    6  A    between atoms: C_16  and  C_17
REMARK    7  A    between atoms: C_17  and  C_19
REMARK    8  A    between atoms: C_19  and  C_20
REMARK                            x       y       z     vdW  Elec       q    Type
REMARK                         _______ _______ _______ _____ _____    ______ ____
ROOT
ATOM      1  C   UNL A   1     -26.399   0.295  27.228  0.00  0.00    +0.019 C 
ATOM      2  C   UNL A   1     -25.039   0.236  27.354  0.00  0.00    +0.004 C 
ENDROOT
BRANCH   1   5
ATOM      3  C   UNL A   1     -28.016  -0.814  28.878  0.00  0.00    +0.000 A 
ATOM      4  C   UNL A   1     -28.469  -0.785  29.829  0.00  0.00    +0.000 A 
ATOM      5  C   UNL A   1     -27.136   0.236  28.535  0.00  0.00    +0.002 A 
ATOM      6  C   UNL A   1     -26.875   1.282  29.398  0.00  0.00    +0.000 A 
ATOM      7  C   UNL A   1     -28.361   0.199  30.924  0.00  0.00    +0.000 A 
ATOM      8  C   UNL A   1     -27.528   1.223  30.636  0.00  0.00    +0.000 A 
ENDBRANCH   1   5
BRANCH   2   9
ATOM      9  C   UNL A   1     -24.259   0.827  26.257  0.00  0.00    +0.025 C 
ATOM     10  C   UNL A   1     -24.154   1.865  26.070  0.00  0.00    +0.118 C 
ATOM     11  F   UNL A   1     -24.563   2.040  24.662  0.00  0.00    -0.209 F 
BRANCH  10  12
ATOM     12  C   UNL A   1     -23.573   2.745  26.334  0.00  0.00    +0.057 C 
ATOM     13  C   UNL A   1     -23.767   3.338  27.447  0.00  0.00    +0.007 C 
ENDBRANCH  10  12
ENDBRANCH   2   9
BRANCH   1  14
ATOM     14  C   UNL A   1     -27.118   0.281  26.060  0.00  0.00    +0.093 C 
ATOM     15  N   UNL A   1     -27.215   0.994  25.345  0.00  0.00    -0.268 NA
BRANCH  15  16
ATOM     16  C   UNL A   1     -27.560   2.306  25.642  0.00  0.00    +0.142 C 
BRANCH  16  17
ATOM     17  C   UNL A   1     -28.949   2.609  25.960  0.00  0.00    +0.108 C 
ATOM     18 CL   UNL A   1     -30.065   1.818  25.578  0.00  0.00    -0.113 Cl
BRANCH  17  19
ATOM     19  C   UNL A   1     -29.081   3.848  26.826  0.00  0.00    +0.044 C 
BRANCH  19  20
ATOM     20  C   UNL A   1     -29.873   3.930  27.678  0.00  0.00    -0.029 C 
ATOM     21  C   UNL A   1     -29.979   5.056  28.555  0.00  0.00    -0.030 C 
ATOM     22  C   UNL A   1     -29.242   6.183  28.227  0.00  0.00    +0.030 C 
ENDBRANCH  19  20
ENDBRANCH  17  19
ENDBRANCH  16  17
ENDBRANCH  15  16
ENDBRANCH   1  14
TORSDOF 8
