MODEL 3030
MODEL 1
REMARK VINA RESULT:    -6.646      0.000      0.000
REMARK INTER + INTRA:          -8.094
REMARK INTER:                  -7.812
REMARK INTRA:                  -0.283
REMARK UNBOUND:                -0.283
REMARK  Name = No_3030-gen_results/8p0m/2024-11-26-14-13-15/
REMARK  3 active torsions:
REMARK  status: ('A' for Active; 'I' for Inactive)
REMARK    1  A    between atoms: C_4  and  N_8
REMARK    2  A    between atoms: C_9  and  C_12
REMARK    3  A    between atoms: C_17  and  C_19
REMARK                            x       y       z     vdW  Elec       q    Type
REMARK                         _______ _______ _______ _____ _____    ______ ____
ROOT
ATOM      1  N   UNL A   1     -23.664  -1.201  28.746  0.00  0.00    -0.266 NA
ATOM      2  C   UNL A   1     -24.014  -0.168  27.915  0.00  0.00    +0.136 C 
ATOM      3  C   UNL A   1     -23.011   0.878  27.774  0.00  0.00    +0.113 C 
ATOM      4  C   UNL A   1     -22.366  -1.179  29.161  0.00  0.00    +0.091 C 
ATOM      5  N   UNL A   1     -21.849   0.724  28.344  0.00  0.00    -0.215 NA
ATOM      6  C   UNL A   1     -21.568  -0.277  29.081  0.00  0.00    +0.106 C 
ENDROOT
BRANCH   1  10
ATOM      7  O   UNL A   1     -24.863  -5.821  28.678  0.00  0.00    -0.296 OA
ATOM      8  C   UNL A   1     -24.850  -4.620  28.973  0.00  0.00    +0.152 C 
ATOM      9  C   UNL A   1     -24.225  -3.690  28.772  0.00  0.00    +0.080 C 
ATOM     10  C   UNL A   1     -24.511  -2.228  29.032  0.00  0.00    +0.065 C 
ATOM     11  C   UNL A   1     -25.675  -1.995  29.712  0.00  0.00    +0.017 C 
ATOM     12  C   UNL A   1     -26.500  -3.046  29.996  0.00  0.00    +0.009 C 
ATOM     13  C   UNL A   1     -26.217  -4.258  29.742  0.00  0.00    +0.065 C 
ENDBRANCH   1  10
BRANCH   2  14
ATOM     14  C   UNL A   1     -25.238  -0.029  27.204  0.00  0.00    +0.178 A 
ATOM     15  N   UNL A   1     -26.170   0.820  27.791  0.00  0.00    -0.130 NA
ATOM     16  N   UNL A   1     -25.399  -0.377  25.967  0.00  0.00    -0.207 NA
ATOM     17  C   UNL A   1     -26.712   0.257  25.644  0.00  0.00    +0.185 A 
ATOM     18  N   UNL A   1     -26.956   1.051  26.605  0.00  0.00    -0.127 NA
BRANCH  17  19
ATOM     19  C   UNL A   1     -27.231   0.164  24.314  0.00  0.00    +0.041 C 
ATOM     20  C   UNL A   1     -28.354  -0.017  24.113  0.00  0.00    +0.003 C 
ENDBRANCH  17  19
ENDBRANCH   2  14
TORSDOF 3
ENDMDL
ENDMDL
