REMARK  Name = No_3030-gen_results/8p0m/2024-11-26-14-13-15/
REMARK  3 active torsions:
REMARK  status: ('A' for Active; 'I' for Inactive)
REMARK    1  A    between atoms: C_4  and  N_8
REMARK    2  A    between atoms: C_9  and  C_12
REMARK    3  A    between atoms: C_17  and  C_19
REMARK                            x       y       z     vdW  Elec       q    Type
REMARK                         _______ _______ _______ _____ _____    ______ ____
ROOT
ATOM      1  N   UNL A   1     -23.456  -0.545  29.107  0.00  0.00    -0.266 NA
ATOM      2  C   UNL A   1     -22.465   0.273  28.627  0.00  0.00    +0.136 C 
ATOM      3  C   UNL A   1     -21.120  -0.279  28.701  0.00  0.00    +0.113 C 
ATOM      4  C   UNL A   1     -23.051  -1.812  29.404  0.00  0.00    +0.091 C 
ATOM      5  N   UNL A   1     -20.959  -1.507  29.108  0.00  0.00    -0.215 NA
ATOM      6  C   UNL A   1     -21.925  -2.233  29.512  0.00  0.00    +0.106 C 
ENDROOT
BRANCH   1  10
ATOM      7  O   UNL A   1     -28.123  -1.335  28.487  0.00  0.00    -0.296 OA
ATOM      8  C   UNL A   1     -27.064  -0.824  28.869  0.00  0.00    +0.152 C 
ATOM      9  C   UNL A   1     -25.946  -1.040  28.849  0.00  0.00    +0.080 C 
ATOM     10  C   UNL A   1     -24.760  -0.156  29.164  0.00  0.00    +0.065 C 
ATOM     11  C   UNL A   1     -25.092   1.079  29.649  0.00  0.00    +0.017 C 
ATOM     12  C   UNL A   1     -26.409   1.438  29.707  0.00  0.00    +0.009 C 
ATOM     13  C   UNL A   1     -27.369   0.659  29.415  0.00  0.00    +0.065 C 
ENDBRANCH   1  10
BRANCH   2  14
ATOM     14  C   UNL A   1     -22.630   1.578  28.085  0.00  0.00    +0.178 A 
ATOM     15  N   UNL A   1     -21.499   2.114  27.479  0.00  0.00    -0.130 NA
ATOM     16  N   UNL A   1     -23.781   2.128  27.862  0.00  0.00    -0.207 NA
ATOM     17  C   UNL A   1     -23.395   3.306  27.029  0.00  0.00    +0.185 A 
ATOM     18  N   UNL A   1     -22.185   3.110  26.696  0.00  0.00    -0.127 NA
BRANCH  17  19
ATOM     19  C   UNL A   1     -24.415   4.160  26.502  0.00  0.00    +0.041 C 
ATOM     20  C   UNL A   1     -25.506   4.105  26.879  0.00  0.00    +0.003 C 
ENDBRANCH  17  19
ENDBRANCH   2  14
TORSDOF 3
