MODEL 3031
MODEL 1
REMARK VINA RESULT:    -8.594      0.000      0.000
REMARK INTER + INTRA:         -11.659
REMARK INTER:                 -10.604
REMARK INTRA:                  -1.055
REMARK UNBOUND:                -1.055
REMARK  Name = No_3031-gen_results/8p0m/2024-11-26-14-13-15/
REMARK  4 active torsions:
REMARK  status: ('A' for Active; 'I' for Inactive)
REMARK    1  A    between atoms: C_3  and  C_12
REMARK    2  A    between atoms: C_15  and  C_20
REMARK    3  A    between atoms: C_20  and  C_21
REMARK    4  A    between atoms: C_20  and  C_27
REMARK                            x       y       z     vdW  Elec       q    Type
REMARK                         _______ _______ _______ _____ _____    ______ ____
ROOT
ATOM      1  C   UNL A   1     -25.297  -0.496  33.313  0.00  0.00    -0.014 A 
ATOM      2  C   UNL A   1     -25.832  -0.401  32.464  0.00  0.00    -0.004 A 
ATOM      3  C   UNL A   1     -25.405  -0.686  31.047  0.00  0.00    -0.004 A 
ATOM      4  C   UNL A   1     -24.087  -1.151  30.930  0.00  0.00    -0.014 A 
ATOM      5  C   UNL A   1     -23.301  -1.254  32.037  0.00  0.00    -0.004 A 
ATOM      6  C   UNL A   1     -23.800  -0.995  33.274  0.00  0.00    -0.004 A 
ENDROOT
BRANCH   1   9
ATOM      7  O   UNL A   1     -27.053   1.445  34.315  0.00  0.00    -0.273 OA
ATOM      8  C   UNL A   1     -26.530   0.610  34.914  0.00  0.00    +0.246 C 
ATOM      9  C   UNL A   1     -25.735  -0.121  34.826  0.00  0.00    +0.101 C 
ATOM     10  N   UNL A   1     -26.927   0.735  36.328  0.00  0.00    -0.190 NA
ATOM     11  C   UNL A   1     -26.370  -0.136  37.317  0.00  0.00    +0.156 C 
ATOM     12  C   UNL A   1     -25.400  -1.015  36.933  0.00  0.00    +0.036 C 
ATOM     13  C   UNL A   1     -24.990  -1.053  35.650  0.00  0.00    +0.017 C 
ATOM     14  N   UNL A   1     -26.791  -0.046  38.588  0.00  0.00    -0.242 NA
ATOM     15  C   UNL A   1     -26.236  -0.297  39.531  0.00  0.00    +0.152 C 
ATOM     16  C   UNL A   1     -25.010  -1.199  39.400  0.00  0.00    +0.036 C 
ATOM     17  C   UNL A   1     -24.700  -1.552  38.114  0.00  0.00    +0.006 C 
ATOM     18  N   UNL A   1     -26.575  -0.276  40.828  0.00  0.00    -0.115 NA
ATOM     19  C   UNL A   1     -27.957   0.875  38.779  0.00  0.00    +0.092 C 
ENDBRANCH   1   9
BRANCH   4  20
ATOM     20  C   UNL A   1     -23.572  -1.457  29.562  0.00  0.00    +0.066 C 
BRANCH  20  21
ATOM     21  C   UNL A   1     -22.999  -0.463  28.933  0.00  0.00    -0.014 A 
ATOM     22  C   UNL A   1     -21.540  -0.465  28.990  0.00  0.00    -0.004 A 
ATOM     23  C   UNL A   1     -20.808   0.509  28.200  0.00  0.00    -0.000 A 
ATOM     24  C   UNL A   1     -21.557   1.436  27.430  0.00  0.00    -0.000 A 
ATOM     25  C   UNL A   1     -22.917   1.377  27.358  0.00  0.00    -0.000 A 
ATOM     26  C   UNL A   1     -23.627   0.396  28.046  0.00  0.00    -0.004 A 
ENDBRANCH  20  21
BRANCH  20  27
ATOM     27  C   UNL A   1     -23.643  -2.767  29.118  0.00  0.00    -0.022 C 
ATOM     28  C   UNL A   1     -24.659  -3.563  29.319  0.00  0.00    -0.030 C 
ATOM     29  C   UNL A   1     -24.668  -4.899  28.898  0.00  0.00    +0.030 C 
ENDBRANCH  20  27
ENDBRANCH   4  20
TORSDOF 4
ENDMDL
ENDMDL
