REMARK  Name = No_3031-gen_results/8p0m/2024-11-26-14-13-15/
REMARK  4 active torsions:
REMARK  status: ('A' for Active; 'I' for Inactive)
REMARK    1  A    between atoms: C_3  and  C_12
REMARK    2  A    between atoms: C_15  and  C_20
REMARK    3  A    between atoms: C_20  and  C_21
REMARK    4  A    between atoms: C_20  and  C_27
REMARK                            x       y       z     vdW  Elec       q    Type
REMARK                         _______ _______ _______ _____ _____    ______ ____
ROOT
ATOM      1  C   UNL A   1     -28.163   0.216  30.820  0.00  0.00    -0.014 A 
ATOM      2  C   UNL A   1     -29.116  -0.108  30.881  0.00  0.00    -0.004 A 
ATOM      3  C   UNL A   1     -30.002  -0.199  32.096  0.00  0.00    -0.004 A 
ATOM      4  C   UNL A   1     -29.395   0.240  33.281  0.00  0.00    -0.014 A 
ATOM      5  C   UNL A   1     -28.094   0.644  33.270  0.00  0.00    -0.004 A 
ATOM      6  C   UNL A   1     -27.395   0.712  32.107  0.00  0.00    -0.004 A 
ENDROOT
BRANCH   1   9
ATOM      7  O   UNL A   1     -28.123  -1.335  28.487  0.00  0.00    -0.273 OA
ATOM      8  C   UNL A   1     -27.481  -0.404  28.709  0.00  0.00    +0.246 C 
ATOM      9  C   UNL A   1     -27.190   0.246  29.527  0.00  0.00    +0.101 C 
ATOM     10  N   UNL A   1     -26.602  -0.158  27.552  0.00  0.00    -0.190 NA
ATOM     11  C   UNL A   1     -25.642   0.903  27.582  0.00  0.00    +0.156 C 
ATOM     12  C   UNL A   1     -25.500   1.614  28.737  0.00  0.00    +0.036 C 
ATOM     13  C   UNL A   1     -26.255   1.316  29.813  0.00  0.00    +0.017 C 
ATOM     14  N   UNL A   1     -24.895   1.148  26.495  0.00  0.00    -0.242 NA
ATOM     15  C   UNL A   1     -23.868   1.597  26.435  0.00  0.00    +0.152 C 
ATOM     16  C   UNL A   1     -23.378   2.381  27.651  0.00  0.00    +0.036 C 
ATOM     17  C   UNL A   1     -24.248   2.392  28.708  0.00  0.00    +0.006 C 
ATOM     18  N   UNL A   1     -23.062   1.912  25.411  0.00  0.00    -0.115 NA
ATOM     19  C   UNL A   1     -25.299   0.357  25.288  0.00  0.00    +0.092 C 
ENDBRANCH   1   9
BRANCH   4  20
ATOM     20  C   UNL A   1     -30.195   0.184  34.541  0.00  0.00    +0.066 C 
BRANCH  20  21
ATOM     21  C   UNL A   1     -30.104   1.231  35.321  0.00  0.00    -0.014 A 
ATOM     22  C   UNL A   1     -30.102   0.929  36.749  0.00  0.00    -0.004 A 
ATOM     23  C   UNL A   1     -29.854   2.006  37.691  0.00  0.00    -0.000 A 
ATOM     24  C   UNL A   1     -29.655   3.310  37.170  0.00  0.00    -0.000 A 
ATOM     25  C   UNL A   1     -29.611   3.549  35.828  0.00  0.00    -0.000 A 
ATOM     26  C   UNL A   1     -29.765   2.510  34.912  0.00  0.00    -0.004 A 
ENDBRANCH  20  21
BRANCH  20  27
ATOM     27  C   UNL A   1     -31.035  -0.901  34.731  0.00  0.00    -0.022 C 
ATOM     28  C   UNL A   1     -32.337  -0.854  34.640  0.00  0.00    -0.030 C 
ATOM     29  C   UNL A   1     -33.152  -1.965  34.892  0.00  0.00    +0.030 C 
ENDBRANCH  20  27
ENDBRANCH   4  20
TORSDOF 4
