REMARK  Name = No_3032-gen_results/8p0m/2024-11-26-14-13-15/
REMARK  1 active torsions:
REMARK  status: ('A' for Active; 'I' for Inactive)
REMARK    1  A    between atoms: C_1  and  C_2
REMARK                            x       y       z     vdW  Elec       q    Type
REMARK                         _______ _______ _______ _____ _____    ______ ____
ROOT
ATOM      1  C   UNL A   1     -28.016  -0.814  28.878  0.00  0.00    +0.077 A 
ATOM      2  N   UNL A   1     -28.303   0.247  28.034  0.00  0.00    -0.244 NA
ATOM      3  C   UNL A   1     -27.358   0.761  27.179  0.00  0.00    +0.099 A 
ATOM      4  C   UNL A   1     -26.025   0.386  27.398  0.00  0.00    +0.020 A 
ATOM      5  C   UNL A   1     -25.660  -0.574  28.345  0.00  0.00    -0.001 A 
ATOM      6  C   UNL A   1     -26.586  -0.996  29.156  0.00  0.00    -0.004 A 
ATOM      7  C   UNL A   1     -26.180  -1.886  30.173  0.00  0.00    +0.033 C 
ENDROOT
BRANCH   1   8
ATOM      8  C   UNL A   1     -28.469  -0.785  29.829  0.00  0.00    +0.014 C 
ATOM      9  C   UNL A   1     -28.260  -1.806  30.954  0.00  0.00    -0.024 C 
ATOM     10  C   UNL A   1     -29.282  -2.097  31.941  0.00  0.00    +0.031 C 
ENDBRANCH   1   8
TORSDOF 1
