REMARK  Name = No_3033-gen_results/8p0m/2024-11-26-14-13-15/
REMARK  8 active torsions:
REMARK  status: ('A' for Active; 'I' for Inactive)
REMARK    1  A    between atoms: C_3  and  C_7
REMARK    2  A    between atoms: C_6  and  C_13
REMARK    3  A    between atoms: C_14  and  C_26
REMARK    4  A    between atoms: C_16  and  C_29
REMARK    5  A    between atoms: C_17  and  C_19
REMARK    6  A    between atoms: C_29  and  O_31
REMARK    7  A    between atoms: O_31  and  C_32
REMARK    8  A    between atoms: C_33  and  C_34
REMARK                            x       y       z     vdW  Elec       q    Type
REMARK                         _______ _______ _______ _____ _____    ______ ____
ROOT
ATOM      1  C   UNL A   1     -27.317   2.360  31.618  0.00  0.00    +0.007 A 
ATOM      2  C   UNL A   1     -27.562   3.546  31.466  0.00  0.00    +0.080 A 
ATOM      3  C   UNL A   1     -27.192   4.594  32.411  0.00  0.00    +0.013 A 
ATOM      4  C   UNL A   1     -26.548   4.216  33.575  0.00  0.00    +0.076 A 
ATOM      5  C   UNL A   1     -26.380   2.186  32.829  0.00  0.00    +0.000 A 
ATOM      6  C   UNL A   1     -26.075   3.054  33.746  0.00  0.00    +0.006 A 
ENDROOT
BRANCH   1  12
ATOM      7  C   UNL A   1     -28.016  -0.814  28.878  0.00  0.00    +0.001 A 
ATOM      8  C   UNL A   1     -28.469  -0.785  29.829  0.00  0.00    +0.011 A 
ATOM      9  C   UNL A   1     -27.136   0.236  28.535  0.00  0.00    +0.000 A 
ATOM     10  C   UNL A   1     -26.875   1.282  29.398  0.00  0.00    +0.001 A 
ATOM     11  C   UNL A   1     -28.361   0.199  30.924  0.00  0.00    +0.058 A 
ATOM     12  C   UNL A   1     -27.528   1.223  30.636  0.00  0.00    +0.011 A 
ATOM     13 CL   UNL A   1     -29.143   0.061  32.472  0.00  0.00    -0.082 Cl
BRANCH   9  14
ATOM     14  C   UNL A   1     -26.372   0.510  27.259  0.00  0.00    +0.000 A 
ATOM     15  C   UNL A   1     -26.087   1.454  26.771  0.00  0.00    +0.000 A 
ATOM     16  C   UNL A   1     -25.244   1.578  25.596  0.00  0.00    +0.000 A 
ATOM     17  C   UNL A   1     -25.015   0.366  24.916  0.00  0.00    +0.000 A 
ATOM     18  C   UNL A   1     -25.539  -0.779  25.423  0.00  0.00    +0.000 A 
ATOM     19  C   UNL A   1     -26.127  -0.812  26.580  0.00  0.00    +0.000 A 
ENDBRANCH   9  14
ENDBRANCH   1  12
BRANCH   5  20
ATOM     20  C   UNL A   1     -25.866   0.716  33.013  0.00  0.00    +0.000 A 
ATOM     21  C   UNL A   1     -26.122   0.033  34.005  0.00  0.00    +0.000 A 
ATOM     22  C   UNL A   1     -25.131   0.163  31.884  0.00  0.00    +0.000 A 
ATOM     23  C   UNL A   1     -24.563  -1.115  32.023  0.00  0.00    +0.000 A 
ATOM     24  C   UNL A   1     -25.479  -1.211  34.245  0.00  0.00    +0.000 A 
ATOM     25  C   UNL A   1     -24.759  -1.727  33.222  0.00  0.00    +0.000 A 
ENDBRANCH   5  20
BRANCH   2  26
ATOM     26  C   UNL A   1     -28.399   4.063  30.321  0.00  0.00    +0.388 C 
ATOM     27  O   UNL A   1     -27.813   4.653  29.419  0.00  0.00    -0.241 OA
ATOM     28  O   UNL A   1     -29.631   3.721  30.299  0.00  0.00    -0.241 OA
ENDBRANCH   2  26
BRANCH   4  29
ATOM     29  C   UNL A   1     -26.189   5.368  34.579  0.00  0.00    +0.346 C 
ATOM     30  O   UNL A   1     -26.135   5.569  35.557  0.00  0.00    -0.244 OA
BRANCH  29  31
ATOM     31  O   UNL A   1     -25.969   6.675  33.745  0.00  0.00    -0.418 OA
BRANCH  31  32
ATOM     32  C   UNL A   1     -26.519   7.192  33.064  0.00  0.00    +0.183 C 
ATOM     33  C   UNL A   1     -27.400   8.043  33.408  0.00  0.00    +0.041 C 
BRANCH  33  34
ATOM     34  C   UNL A   1     -27.501   8.443  34.719  0.00  0.00    +0.003 C 
ATOM     35  C   UNL A   1     -28.130   8.941  35.365  0.00  0.00    +0.000 C 
ENDBRANCH  33  34
ENDBRANCH  31  32
ENDBRANCH  29  31
ENDBRANCH   4  29
TORSDOF 8
