MODEL 3034
MODEL 1
REMARK VINA RESULT:    -5.287      0.000      0.000
REMARK INTER + INTRA:          -5.746
REMARK INTER:                  -5.596
REMARK INTRA:                  -0.150
REMARK UNBOUND:                -0.150
REMARK  Name = No_3034-gen_results/8p0m/2024-11-26-14-13-15/
REMARK  1 active torsions:
REMARK  status: ('A' for Active; 'I' for Inactive)
REMARK    1  A    between atoms: C_4  and  C_7
REMARK                            x       y       z     vdW  Elec       q    Type
REMARK                         _______ _______ _______ _____ _____    ______ ____
ROOT
ATOM      1  C   UNL A   1     -26.628  -3.987  29.899  0.00  0.00    -0.000 A 
ATOM      2  C   UNL A   1     -26.120  -4.881  29.665  0.00  0.00    -0.000 A 
ATOM      3  C   UNL A   1     -25.860  -2.713  29.629  0.00  0.00    -0.000 A 
ATOM      4  C   UNL A   1     -24.614  -2.783  28.970  0.00  0.00    -0.000 A 
ATOM      5  C   UNL A   1     -24.867  -5.224  28.957  0.00  0.00    -0.000 A 
ATOM      6  C   UNL A   1     -24.135  -4.076  28.686  0.00  0.00    -0.000 A 
ENDROOT
BRANCH   4   7
ATOM      7  C   UNL A   1     -23.839  -1.620  28.706  0.00  0.00    -0.005 C 
ATOM      8  C   UNL A   1     -22.746  -1.351  29.289  0.00  0.00    -0.026 C 
ATOM      9  C   UNL A   1     -21.887  -0.215  28.909  0.00  0.00    +0.031 C 
ENDBRANCH   4   7
TORSDOF 1
ENDMDL
ENDMDL
