REMARK  Name = No_3035-gen_results/8p0m/2024-11-26-14-13-15/
REMARK  2 active torsions:
REMARK  status: ('A' for Active; 'I' for Inactive)
REMARK    1  A    between atoms: N_1  and  C_2
REMARK    2  A    between atoms: C_2  and  C_3
REMARK                            x       y       z     vdW  Elec       q    Type
REMARK                         _______ _______ _______ _____ _____    ______ ____
ROOT
ATOM      1  C   UNL A   1     -27.174   0.756  28.107  0.00  0.00    +0.003 A 
ATOM      2  C   UNL A   1     -27.370   0.601  26.857  0.00  0.00    -0.002 A 
ATOM      3  C   UNL A   1     -26.262   0.599  25.999  0.00  0.00    -0.000 A 
ATOM      4  C   UNL A   1     -24.989   1.056  26.419  0.00  0.00    -0.000 A 
ATOM      5  C   UNL A   1     -24.805   1.468  27.714  0.00  0.00    -0.000 A 
ATOM      6  C   UNL A   1     -25.857   1.193  28.620  0.00  0.00    -0.002 A 
ENDROOT
BRANCH   1   7
ATOM      7  C   UNL A   1     -27.746  -0.073  29.010  0.00  0.00    +0.165 C 
BRANCH   7   8
ATOM      8  N   UNL A   1     -28.054  -1.050  28.725  0.00  0.00    -0.188 NA
ATOM      9  C   UNL A   1     -28.621  -1.980  29.789  0.00  0.00    +0.236 C 
ATOM     10  O   UNL A   1     -28.787  -3.164  29.620  0.00  0.00    -0.210 OA
ENDBRANCH   7   8
ENDBRANCH   1   7
TORSDOF 2
