MODEL 3035
MODEL 1
REMARK VINA RESULT:    -5.213      0.000      0.000
REMARK INTER + INTRA:          -5.986
REMARK INTER:                  -5.823
REMARK INTRA:                  -0.163
REMARK UNBOUND:                -0.163
REMARK  Name = No_3035-gen_results/8p0m/2024-11-26-14-13-15/
REMARK  2 active torsions:
REMARK  status: ('A' for Active; 'I' for Inactive)
REMARK    1  A    between atoms: N_1  and  C_2
REMARK    2  A    between atoms: C_2  and  C_3
REMARK                            x       y       z     vdW  Elec       q    Type
REMARK                         _______ _______ _______ _____ _____    ______ ____
ROOT
ATOM      1  C   UNL A   1     -25.153  -2.666  29.394  0.00  0.00    +0.003 A 
ATOM      2  C   UNL A   1     -26.190  -3.349  29.682  0.00  0.00    -0.002 A 
ATOM      3  C   UNL A   1     -26.103  -4.747  29.649  0.00  0.00    -0.000 A 
ATOM      4  C   UNL A   1     -25.021  -5.416  29.027  0.00  0.00    -0.000 A 
ATOM      5  C   UNL A   1     -23.993  -4.690  28.482  0.00  0.00    -0.000 A 
ATOM      6  C   UNL A   1     -23.970  -3.306  28.779  0.00  0.00    -0.002 A 
ENDROOT
BRANCH   1   7
ATOM      7  C   UNL A   1     -24.742  -1.654  30.192  0.00  0.00    +0.165 C 
BRANCH   7   8
ATOM      8  N   UNL A   1     -24.211  -1.857  31.091  0.00  0.00    -0.188 NA
ATOM      9  C   UNL A   1     -23.156  -0.865  31.560  0.00  0.00    +0.236 C 
ATOM     10  O   UNL A   1     -22.353  -1.107  32.429  0.00  0.00    -0.210 OA
ENDBRANCH   7   8
ENDBRANCH   1   7
TORSDOF 2
ENDMDL
ENDMDL
