MODEL 3036
MODEL 1
REMARK VINA RESULT:    -8.300      0.000      0.000
REMARK INTER + INTRA:         -14.573
REMARK INTER:                 -12.667
REMARK INTRA:                  -1.906
REMARK UNBOUND:                -1.906
REMARK  Name = No_3036-gen_results/8p0m/2024-11-26-14-13-15/
REMARK  9 active torsions:
REMARK  status: ('A' for Active; 'I' for Inactive)
REMARK    1  A    between atoms: C_2  and  C_14
REMARK    2  A    between atoms: C_3  and  C_4
REMARK    3  A    between atoms: C_4  and  C_8
REMARK    4  A    between atoms: C_14  and  O_16
REMARK    5  A    between atoms: O_16  and  C_18
REMARK    6  A    between atoms: C_20  and  C_28
REMARK    7  A    between atoms: C_23  and  C_24
REMARK    8  A    between atoms: N_30  and  C_31
REMARK    9  A    between atoms: C_32  and  C_33
REMARK                            x       y       z     vdW  Elec       q    Type
REMARK                         _______ _______ _______ _____ _____    ______ ____
ROOT
ATOM      1  C   UNL A   1     -25.414   3.635  26.573  0.00  0.00    +0.154 A 
ATOM      2  C   UNL A   1     -24.929   4.590  27.010  0.00  0.00    +0.049 A 
ATOM      3  C   UNL A   1     -26.982   3.911  26.369  0.00  0.00    +0.090 A 
ATOM      4  C   UNL A   1     -27.620   5.063  26.749  0.00  0.00    +0.015 A 
ATOM      5  C   UNL A   1     -25.402   5.880  27.416  0.00  0.00    +0.067 A 
ATOM      6  C   UNL A   1     -26.776   6.087  27.183  0.00  0.00    +0.091 A 
ATOM      7 CL   UNL A   1     -24.431   7.069  28.007  0.00  0.00    -0.082 Cl
ENDROOT
BRANCH   6   8
ATOM      8  C   UNL A   1     -27.353   7.402  27.536  0.00  0.00    +0.389 C 
ATOM      9  O   UNL A   1     -27.650   8.167  26.687  0.00  0.00    -0.240 OA
ATOM     10  O   UNL A   1     -27.576   7.528  28.813  0.00  0.00    -0.240 OA
ENDBRANCH   6   8
BRANCH   3  11
ATOM     11  C   UNL A   1     -27.812   2.753  25.777  0.00  0.00    +0.272 C 
ATOM     12  O   UNL A   1     -28.212   1.913  26.578  0.00  0.00    -0.268 OA
ATOM     13  N   UNL A   1     -28.005   2.742  24.451  0.00  0.00    -0.180 NA
BRANCH  13  14
ATOM     14  C   UNL A   1     -28.716   1.672  23.775  0.00  0.00    +0.052 C 
ATOM     15  C   UNL A   1     -28.265   0.693  23.449  0.00  0.00    +0.012 C 
ATOM     16  C   UNL A   1     -30.147   2.155  23.485  0.00  0.00    +0.049 C 
BRANCH  15  17
ATOM     17  C   UNL A   1     -28.417  -0.397  24.104  0.00  0.00    +0.001 C 
ATOM     18  C   UNL A   1     -29.179  -1.495  23.552  0.00  0.00    +0.000 C 
ENDBRANCH  15  17
ENDBRANCH  13  14
ENDBRANCH   3  11
BRANCH   1  19
ATOM     19  O   UNL A   1     -25.126   2.571  26.313  0.00  0.00    -0.421 OA
BRANCH  19  20
ATOM     20  C   UNL A   1     -23.924   1.974  26.200  0.00  0.00    +0.346 C 
ATOM     21  O   UNL A   1     -23.324   2.118  25.236  0.00  0.00    -0.244 OA
BRANCH  20  23
ATOM     22  C   UNL A   1     -24.321   0.577  28.017  0.00  0.00    +0.003 A 
ATOM     23  C   UNL A   1     -23.577   1.011  27.410  0.00  0.00    +0.076 A 
ATOM     24  C   UNL A   1     -23.812  -0.287  29.149  0.00  0.00    -0.018 A 
ATOM     25  C   UNL A   1     -22.122   1.124  27.571  0.00  0.00    +0.006 A 
ATOM     26  C   UNL A   1     -21.584   0.383  28.602  0.00  0.00    -0.000 A 
ATOM     27  C   UNL A   1     -22.402  -0.322  29.447  0.00  0.00    -0.004 A 
BRANCH  24  28
ATOM     28  C   UNL A   1     -24.613  -1.104  30.026  0.00  0.00    +0.053 C 
BRANCH  28  29
ATOM     29  C   UNL A   1     -24.881  -2.452  29.556  0.00  0.00    -0.007 A 
ATOM     30  C   UNL A   1     -26.074  -3.032  29.939  0.00  0.00    +0.054 A 
ATOM     31  C   UNL A   1     -26.299  -4.418  29.636  0.00  0.00    +0.011 A 
ATOM     32  C   UNL A   1     -25.263  -5.129  28.957  0.00  0.00    +0.001 A 
ATOM     33  C   UNL A   1     -23.923  -3.300  28.964  0.00  0.00    -0.003 A 
ATOM     34  C   UNL A   1     -24.125  -4.584  28.700  0.00  0.00    -0.000 A 
ATOM     35 CL   UNL A   1     -27.303  -2.290  30.714  0.00  0.00    -0.083 Cl
ENDBRANCH  28  29
ENDBRANCH  24  28
ENDBRANCH  20  23
ENDBRANCH  19  20
ENDBRANCH   1  19
TORSDOF 9
ENDMDL
ENDMDL
