REMARK  Name = No_3036-gen_results/8p0m/2024-11-26-14-13-15/
REMARK  9 active torsions:
REMARK  status: ('A' for Active; 'I' for Inactive)
REMARK    1  A    between atoms: C_2  and  C_14
REMARK    2  A    between atoms: C_3  and  C_4
REMARK    3  A    between atoms: C_4  and  C_8
REMARK    4  A    between atoms: C_14  and  O_16
REMARK    5  A    between atoms: O_16  and  C_18
REMARK    6  A    between atoms: C_20  and  C_28
REMARK    7  A    between atoms: C_23  and  C_24
REMARK    8  A    between atoms: N_30  and  C_31
REMARK    9  A    between atoms: C_32  and  C_33
REMARK                            x       y       z     vdW  Elec       q    Type
REMARK                         _______ _______ _______ _____ _____    ______ ____
ROOT
ATOM      1  C   UNL A   1     -31.453   0.776  29.332  0.00  0.00    +0.154 A 
ATOM      2  C   UNL A   1     -32.548   0.544  29.041  0.00  0.00    +0.049 A 
ATOM      3  C   UNL A   1     -30.944   2.013  28.445  0.00  0.00    +0.090 A 
ATOM      4  C   UNL A   1     -31.679   2.607  27.452  0.00  0.00    +0.015 A 
ATOM      5  C   UNL A   1     -33.484   1.069  28.092  0.00  0.00    +0.067 A 
ATOM      6  C   UNL A   1     -33.004   2.176  27.364  0.00  0.00    +0.091 A 
ATOM      7 CL   UNL A   1     -35.024   0.517  27.919  0.00  0.00    -0.082 Cl
ENDROOT
BRANCH   6   8
ATOM      8  C   UNL A   1     -33.910   2.812  26.383  0.00  0.00    +0.389 C 
ATOM      9  O   UNL A   1     -34.466   3.818  26.655  0.00  0.00    -0.240 OA
ATOM     10  O   UNL A   1     -33.906   2.209  25.229  0.00  0.00    -0.240 OA
ENDBRANCH   6   8
BRANCH   3  11
ATOM     11  C   UNL A   1     -29.498   2.489  28.696  0.00  0.00    +0.272 C 
ATOM     12  O   UNL A   1     -28.685   2.230  27.813  0.00  0.00    -0.268 OA
ATOM     13  N   UNL A   1     -29.242   3.115  29.853  0.00  0.00    -0.180 NA
BRANCH  13  14
ATOM     14  C   UNL A   1     -27.909   3.552  30.226  0.00  0.00    +0.052 C 
ATOM     15  C   UNL A   1     -27.271   4.271  29.641  0.00  0.00    +0.012 C 
ATOM     16  C   UNL A   1     -27.486   2.779  31.487  0.00  0.00    +0.049 C 
BRANCH  15  17
ATOM     17  C   UNL A   1     -27.140   5.505  29.958  0.00  0.00    +0.001 C 
ATOM     18  C   UNL A   1     -26.751   5.891  31.296  0.00  0.00    +0.000 C 
ENDBRANCH  15  17
ENDBRANCH  13  14
ENDBRANCH   3  11
BRANCH   1  19
ATOM     19  O   UNL A   1     -30.637   0.357  29.997  0.00  0.00    -0.421 OA
BRANCH  19  20
ATOM     20  C   UNL A   1     -30.040  -0.850  30.024  0.00  0.00    +0.346 C 
ATOM     21  O   UNL A   1     -30.668  -1.772  30.281  0.00  0.00    -0.244 OA
BRANCH  20  23
ATOM     22  C   UNL A   1     -28.016  -0.814  28.878  0.00  0.00    +0.003 A 
ATOM     23  C   UNL A   1     -28.469  -0.785  29.829  0.00  0.00    +0.076 A 
ATOM     24  C   UNL A   1     -26.504  -0.778  28.877  0.00  0.00    -0.018 A 
ATOM     25  C   UNL A   1     -27.918  -0.937  31.182  0.00  0.00    +0.006 A 
ATOM     26  C   UNL A   1     -26.542  -0.940  31.261  0.00  0.00    -0.000 A 
ATOM     27  C   UNL A   1     -25.783  -0.893  30.120  0.00  0.00    -0.004 A 
BRANCH  24  28
ATOM     28  C   UNL A   1     -25.654  -0.660  27.719  0.00  0.00    +0.053 C 
BRANCH  28  29
ATOM     29  C   UNL A   1     -25.220   0.687  27.394  0.00  0.00    -0.007 A 
ATOM     30  C   UNL A   1     -25.303   1.079  26.073  0.00  0.00    +0.054 A 
ATOM     31  C   UNL A   1     -24.730   2.338  25.687  0.00  0.00    +0.011 A 
ATOM     32  C   UNL A   1     -24.092   3.119  26.698  0.00  0.00    +0.001 A 
ATOM     33  C   UNL A   1     -24.491   1.526  28.261  0.00  0.00    -0.003 A 
ATOM     34  C   UNL A   1     -23.947   2.680  27.900  0.00  0.00    -0.000 A 
ATOM     35 CL   UNL A   1     -26.015   0.248  24.863  0.00  0.00    -0.083 Cl
ENDBRANCH  28  29
ENDBRANCH  24  28
ENDBRANCH  20  23
ENDBRANCH  19  20
ENDBRANCH   1  19
TORSDOF 9
