REMARK  Name = No_3037-gen_results/8p0m/2024-11-26-14-13-15/
REMARK  9 active torsions:
REMARK  status: ('A' for Active; 'I' for Inactive)
REMARK    1  A    between atoms: C_2  and  O_19
REMARK    2  A    between atoms: C_4  and  C_8
REMARK    3  A    between atoms: C_8  and  O_10
REMARK    4  A    between atoms: O_10  and  C_11
REMARK    5  A    between atoms: O_19  and  C_20
REMARK    6  A    between atoms: C_20  and  C_21
REMARK    7  A    between atoms: C_20  and  C_22
REMARK    8  A    between atoms: C_25  and  C_32
REMARK    9  A    between atoms: C_27  and  C_29
REMARK                            x       y       z     vdW  Elec       q    Type
REMARK                         _______ _______ _______ _____ _____    ______ ____
ROOT
ATOM      1  C   UNL A   1     -28.016  -0.814  28.878  0.00  0.00    +0.044 A 
ATOM      2  C   UNL A   1     -28.469  -0.785  29.829  0.00  0.00    +0.140 A 
ATOM      3  C   UNL A   1     -27.087   0.290  28.638  0.00  0.00    +0.044 A 
ATOM      4  C   UNL A   1     -26.832   1.249  29.587  0.00  0.00    +0.082 A 
ATOM      5  C   UNL A   1     -28.391   0.080  31.006  0.00  0.00    +0.037 A 
ATOM      6  C   UNL A   1     -27.494   1.152  30.784  0.00  0.00    +0.010 A 
ATOM      7 BR   UNL A   1     -26.126   0.405  27.017  0.00  0.00    -0.049 Br
ENDROOT
BRANCH   4   8
ATOM      8  C   UNL A   1     -25.902   2.360  29.364  0.00  0.00    +0.346 C 
ATOM      9  O   UNL A   1     -26.249   3.399  29.598  0.00  0.00    -0.244 OA
BRANCH   8  10
ATOM     10  O   UNL A   1     -24.659   2.026  28.975  0.00  0.00    -0.421 OA
BRANCH  10  11
ATOM     11  C   UNL A   1     -23.779   1.442  29.838  0.00  0.00    +0.144 A 
ATOM     12  C   UNL A   1     -22.634   0.761  29.207  0.00  0.00    +0.013 A 
ATOM     13  C   UNL A   1     -22.402  -0.581  29.692  0.00  0.00    -0.002 A 
ATOM     14  C   UNL A   1     -23.375  -1.018  30.492  0.00  0.00    -0.004 A 
ATOM     15  C   UNL A   1     -24.020  -0.211  31.375  0.00  0.00    -0.019 A 
ATOM     16  C   UNL A   1     -23.927   1.288  31.156  0.00  0.00    +0.033 A 
ATOM     17  C   UNL A   1     -22.087   1.256  27.984  0.00  0.00    +0.034 C 
ATOM     18  C   UNL A   1     -24.583  -0.630  32.694  0.00  0.00    +0.031 C 
ENDBRANCH  10  11
ENDBRANCH   8  10
ENDBRANCH   4   8
BRANCH   2  19
ATOM     19  O   UNL A   1     -29.417  -1.882  30.129  0.00  0.00    -0.467 OA
BRANCH  19  20
ATOM     20  C   UNL A   1     -29.026  -3.116  30.587  0.00  0.00    +0.252 C 
BRANCH  20  21
ATOM     21  C   UNL A   1     -30.089  -4.078  30.523  0.00  0.00    +0.025 A 
ATOM     22  C   UNL A   1     -31.079  -3.993  29.626  0.00  0.00    -0.000 A 
ATOM     23  C   UNL A   1     -31.898  -5.166  29.396  0.00  0.00    -0.000 A 
ATOM     24  C   UNL A   1     -31.725  -6.292  30.239  0.00  0.00    +0.006 A 
ATOM     25  C   UNL A   1     -30.719  -6.354  31.167  0.00  0.00    +0.080 A 
ATOM     26  C   UNL A   1     -29.837  -5.276  31.337  0.00  0.00    +0.006 A 
BRANCH  25  27
ATOM     27  C   UNL A   1     -30.553  -7.561  31.997  0.00  0.00    +0.388 C 
ATOM     28  O   UNL A   1     -30.597  -8.712  31.508  0.00  0.00    -0.241 OA
ATOM     29  O   UNL A   1     -30.119  -7.417  33.220  0.00  0.00    -0.241 OA
ENDBRANCH  25  27
BRANCH  23  30
ATOM     30  C   UNL A   1     -32.941  -5.074  28.433  0.00  0.00    -0.005 C 
ATOM     31  C   UNL A   1     -32.923  -5.035  27.424  0.00  0.00    -0.026 C 
ATOM     32  C   UNL A   1     -33.988  -4.907  26.379  0.00  0.00    +0.031 C 
ENDBRANCH  23  30
ENDBRANCH  20  21
BRANCH  20  33
ATOM     33  C   UNL A   1     -27.826  -3.369  30.930  0.00  0.00    +0.255 C 
ATOM     34  O   UNL A   1     -27.461  -4.719  30.985  0.00  0.00    -0.284 OA
ENDBRANCH  20  33
ENDBRANCH  19  20
ENDBRANCH   2  19
TORSDOF 9
