MODEL 3038
MODEL 1
REMARK VINA RESULT:    -6.488      0.000      0.000
REMARK INTER + INTRA:          -7.183
REMARK INTER:                  -6.867
REMARK INTRA:                  -0.316
REMARK UNBOUND:                -0.316
REMARK  Name = No_3038-gen_results/8p0m/2024-11-26-14-13-15/
REMARK  1 active torsions:
REMARK  status: ('A' for Active; 'I' for Inactive)
REMARK    1  A    between atoms: C_3  and  C_7
REMARK                            x       y       z     vdW  Elec       q    Type
REMARK                         _______ _______ _______ _____ _____    ______ ____
ROOT
ATOM      1  C   UNL A   1     -26.458  -3.572  29.934  0.00  0.00    +0.000 A 
ATOM      2  C   UNL A   1     -25.798  -2.589  29.688  0.00  0.00    +0.000 A 
ATOM      3  C   UNL A   1     -24.575  -2.630  29.020  0.00  0.00    +0.000 A 
ATOM      4  C   UNL A   1     -24.019  -3.915  28.643  0.00  0.00    +0.000 A 
ATOM      5  C   UNL A   1     -24.804  -5.022  28.964  0.00  0.00    +0.000 A 
ATOM      6  C   UNL A   1     -25.947  -4.893  29.608  0.00  0.00    +0.000 A 
ENDROOT
BRANCH   3   7
ATOM      7  C   UNL A   1     -23.710  -1.465  28.674  0.00  0.00    +0.000 A 
ATOM      8  C   UNL A   1     -22.524  -1.311  29.183  0.00  0.00    +0.000 A 
ATOM      9  C   UNL A   1     -21.736  -0.143  28.902  0.00  0.00    +0.000 A 
ATOM     10  C   UNL A   1     -22.205   0.918  28.208  0.00  0.00    +0.000 A 
ATOM     11  C   UNL A   1     -24.272  -0.338  27.914  0.00  0.00    +0.000 A 
ATOM     12  C   UNL A   1     -23.485   0.831  27.698  0.00  0.00    +0.000 A 
ENDBRANCH   3   7
TORSDOF 1
ENDMDL
ENDMDL
