MODEL 3039
MODEL 1
REMARK VINA RESULT:    -5.759      0.000      0.000
REMARK INTER + INTRA:          -5.759
REMARK INTER:                  -5.759
REMARK INTRA:                   0.000
REMARK UNBOUND:                 0.000
REMARK  Name = No_3039-gen_results/8p0m/2024-11-26-14-13-15/
REMARK  0 active torsions:
REMARK  status: ('A' for Active; 'I' for Inactive)
REMARK                            x       y       z     vdW  Elec       q    Type
REMARK                         _______ _______ _______ _____ _____    ______ ____
ROOT
ATOM      1  C   UNL A   1     -25.383  -1.313  30.783  0.00  0.00    +0.000 A 
ATOM      2  C   UNL A   1     -25.370  -2.311  30.101  0.00  0.00    +0.000 A 
ATOM      3  C   UNL A   1     -24.265  -2.632  29.320  0.00  0.00    +0.002 A 
ATOM      4  C   UNL A   1     -23.119  -1.762  29.263  0.00  0.00    +0.000 A 
ATOM      5  C   UNL A   1     -23.228  -0.618  30.065  0.00  0.00    +0.000 A 
ATOM      6  C   UNL A   1     -24.302  -0.351  30.772  0.00  0.00    +0.000 A 
ATOM      7  C   UNL A   1     -26.472  -3.306  30.015  0.00  0.00    +0.002 A 
ATOM      8  C   UNL A   1     -26.275  -4.559  29.800  0.00  0.00    +0.030 A 
ATOM      9  C   UNL A   1     -25.055  -4.950  28.974  0.00  0.00    +0.140 A 
ATOM     10  C   UNL A   1     -24.023  -4.026  28.860  0.00  0.00    +0.030 A 
ATOM     11  F   UNL A   1     -24.934  -6.160  28.492  0.00  0.00    -0.204 F 
ENDROOT
TORSDOF 0
ENDMDL
ENDMDL
