MODEL 303
MODEL 1
REMARK VINA RESULT:    -6.633      0.000      0.000
REMARK INTER + INTRA:         -11.906
REMARK INTER:                  -9.735
REMARK INTRA:                  -2.171
REMARK UNBOUND:                -2.171
REMARK  Name = No_303-gen_results/8p0m/2024-11-26-14-13-15/
REMARK  8 active torsions:
REMARK  status: ('A' for Active; 'I' for Inactive)
REMARK    1  A    between atoms: C_3  and  C_7
REMARK    2  A    between atoms: C_7  and  C_13
REMARK    3  A    between atoms: C_8  and  C_9
REMARK    4  A    between atoms: C_10  and  C_11
REMARK    5  A    between atoms: N_14  and  C_16
REMARK    6  A    between atoms: C_16  and  C_17
REMARK    7  A    between atoms: C_17  and  C_19
REMARK    8  A    between atoms: C_19  and  C_20
REMARK                            x       y       z     vdW  Elec       q    Type
REMARK                         _______ _______ _______ _____ _____    ______ ____
ROOT
ATOM      1  C   UNL A   1     -24.052  -1.411  28.516  0.00  0.00    +0.019 C 
ATOM      2  C   UNL A   1     -24.812  -0.500  27.836  0.00  0.00    +0.004 C 
ENDROOT
BRANCH   1   5
ATOM      3  C   UNL A   1     -26.044  -2.531  29.676  0.00  0.00    +0.000 A 
ATOM      4  C   UNL A   1     -26.523  -3.432  29.941  0.00  0.00    +0.000 A 
ATOM      5  C   UNL A   1     -24.817  -2.617  28.982  0.00  0.00    +0.002 A 
ATOM      6  C   UNL A   1     -24.242  -3.831  28.662  0.00  0.00    +0.000 A 
ATOM      7  C   UNL A   1     -26.132  -4.838  29.721  0.00  0.00    +0.000 A 
ATOM      8  C   UNL A   1     -24.961  -4.965  29.059  0.00  0.00    +0.000 A 
ENDBRANCH   1   5
BRANCH   2   9
ATOM      9  C   UNL A   1     -24.092   0.377  26.902  0.00  0.00    +0.025 C 
ATOM     10  C   UNL A   1     -23.885   1.404  27.062  0.00  0.00    +0.118 C 
ATOM     11  F   UNL A   1     -24.422   2.090  25.869  0.00  0.00    -0.209 F 
BRANCH  10  12
ATOM     12  C   UNL A   1     -23.178   2.091  27.520  0.00  0.00    +0.057 C 
ATOM     13  C   UNL A   1     -21.922   1.887  27.422  0.00  0.00    +0.007 C 
ENDBRANCH  10  12
ENDBRANCH   2   9
BRANCH   1  14
ATOM     14  C   UNL A   1     -22.742  -1.269  28.896  0.00  0.00    +0.093 C 
ATOM     15  N   UNL A   1     -22.345  -1.079  29.810  0.00  0.00    -0.268 NA
BRANCH  15  16
ATOM     16  C   UNL A   1     -22.780  -0.028  30.608  0.00  0.00    +0.142 C 
BRANCH  16  17
ATOM     17  C   UNL A   1     -23.607  -0.328  31.769  0.00  0.00    +0.108 C 
ATOM     18 CL   UNL A   1     -23.304  -1.303  32.757  0.00  0.00    -0.113 Cl
BRANCH  17  19
ATOM     19  C   UNL A   1     -24.819   0.580  31.859  0.00  0.00    +0.044 C 
BRANCH  19  20
ATOM     20  C   UNL A   1     -25.158   1.255  30.970  0.00  0.00    -0.029 C 
ATOM     21  C   UNL A   1     -25.278   2.678  31.057  0.00  0.00    -0.030 C 
ATOM     22  C   UNL A   1     -24.758   3.287  32.189  0.00  0.00    +0.030 C 
ENDBRANCH  19  20
ENDBRANCH  17  19
ENDBRANCH  16  17
ENDBRANCH  15  16
ENDBRANCH   1  14
TORSDOF 8
ENDMDL
ENDMDL
