REMARK  Name = No_304-gen_results/8p0m/2024-11-26-14-13-15/
REMARK  2 active torsions:
REMARK  status: ('A' for Active; 'I' for Inactive)
REMARK    1  A    between atoms: C_1  and  C_2
REMARK    2  A    between atoms: C_5  and  C_6
REMARK                            x       y       z     vdW  Elec       q    Type
REMARK                         _______ _______ _______ _____ _____    ______ ____
ROOT
ATOM      1  C   UNL A   1     -27.064  -0.119  28.608  0.00  0.00    +0.002 A 
ATOM      2  C   UNL A   1     -26.876   1.133  28.913  0.00  0.00    +0.000 A 
ATOM      3  C   UNL A   1     -25.688   1.952  28.567  0.00  0.00    +0.005 A 
ATOM      4  C   UNL A   1     -24.639   1.283  27.875  0.00  0.00    +0.057 A 
ATOM      5  C   UNL A   1     -25.843  -0.737  27.921  0.00  0.00    +0.000 A 
ATOM      6  C   UNL A   1     -24.690  -0.052  27.583  0.00  0.00    +0.005 A 
ENDROOT
BRANCH   1   7
ATOM      7  C   UNL A   1     -28.016  -0.814  28.878  0.00  0.00    +0.028 A 
ATOM      8  C   UNL A   1     -27.932  -1.228  30.380  0.00  0.00    +0.002 A 
ATOM      9  C   UNL A   1     -28.813  -1.288  31.165  0.00  0.00    +0.000 A 
ATOM     10  C   UNL A   1     -30.127  -0.910  30.793  0.00  0.00    +0.002 A 
ATOM     11  C   UNL A   1     -30.336  -0.663  29.492  0.00  0.00    +0.030 A 
ATOM     12  C   UNL A   1     -29.289  -0.461  28.640  0.00  0.00    +0.140 A 
ATOM     13  F   UNL A   1     -29.526  -0.041  27.423  0.00  0.00    -0.204 F 
ENDBRANCH   1   7
BRANCH   4  14
ATOM     14  C   UNL A   1     -23.456   2.000  27.565  0.00  0.00    +0.284 C 
ATOM     15  N   UNL A   1     -22.301   1.587  27.368  0.00  0.00    -0.084 NA
ATOM     16  O   UNL A   1     -23.636   3.305  27.277  0.00  0.00    -0.267 OA
ENDBRANCH   4  14
TORSDOF 2
