REMARK  Name = No_3040-gen_results/8p0m/2024-11-26-14-13-15/
REMARK  1 active torsions:
REMARK  status: ('A' for Active; 'I' for Inactive)
REMARK    1  A    between atoms: C_2  and  C_4
REMARK                            x       y       z     vdW  Elec       q    Type
REMARK                         _______ _______ _______ _____ _____    ______ ____
ROOT
ATOM      1 CL   UNL A   1     -28.149  -0.820  28.908  0.00  0.00    -0.071 Cl
ATOM      2  C   UNL A   1     -27.834   0.496  29.060  0.00  0.00    +0.306 C 
ATOM      3  F   UNL A   1     -27.883   1.038  30.194  0.00  0.00    -0.213 F 
ENDROOT
BRANCH   2   4
ATOM      4  C   UNL A   1     -27.448   1.305  27.943  0.00  0.00    +0.366 C 
ATOM      5  F   UNL A   1     -27.481   0.808  26.941  0.00  0.00    -0.194 F 
ATOM      6  F   UNL A   1     -26.171   1.761  28.238  0.00  0.00    -0.194 F 
ENDBRANCH   2   4
TORSDOF 1
