MODEL 3040
MODEL 1
REMARK VINA RESULT:    -3.951      0.000      0.000
REMARK INTER + INTRA:          -4.182
REMARK INTER:                  -4.182
REMARK INTRA:                   0.000
REMARK UNBOUND:                 0.000
REMARK  Name = No_3040-gen_results/8p0m/2024-11-26-14-13-15/
REMARK  1 active torsions:
REMARK  status: ('A' for Active; 'I' for Inactive)
REMARK    1  A    between atoms: C_2  and  C_4
REMARK                            x       y       z     vdW  Elec       q    Type
REMARK                         _______ _______ _______ _____ _____    ______ ____
ROOT
ATOM      1 CL   UNL A   1      -9.884  -9.658  18.595  0.00  0.00    -0.071 Cl
ATOM      2  C   UNL A   1      -9.352  -9.319  19.802  0.00  0.00    +0.306 C 
ATOM      3  F   UNL A   1     -10.099  -9.001  20.762  0.00  0.00    -0.213 F 
ENDROOT
BRANCH   2   4
ATOM      4  C   UNL A   1      -7.936  -9.303  20.016  0.00  0.00    +0.366 C 
ATOM      5  F   UNL A   1      -7.569  -9.851  20.920  0.00  0.00    -0.194 F 
ATOM      6  F   UNL A   1      -7.582  -7.962  20.060  0.00  0.00    -0.194 F 
ENDBRANCH   2   4
TORSDOF 1
ENDMDL
ENDMDL
