MODEL 3041
MODEL 1
REMARK VINA RESULT:    -7.036      0.000      0.000
REMARK INTER + INTRA:         -10.898
REMARK INTER:                  -9.505
REMARK INTRA:                  -1.393
REMARK UNBOUND:                -1.393
REMARK  Name = No_3041-gen_results/8p0m/2024-11-26-14-13-15/
REMARK  6 active torsions:
REMARK  status: ('A' for Active; 'I' for Inactive)
REMARK    1  A    between atoms: C_3  and  C_7
REMARK    2  A    between atoms: C_12  and  O_14
REMARK    3  A    between atoms: P_23  and  O_24
REMARK    4  A    between atoms: O_24  and  C_26
REMARK    5  A    between atoms: C_26  and  C_27
REMARK    6  A    between atoms: C_26  and  N_30
REMARK                            x       y       z     vdW  Elec       q    Type
REMARK                         _______ _______ _______ _____ _____    ______ ____
ROOT
ATOM      1  C   UNL A   1     -25.011   0.267  31.160  0.00  0.00    +0.107 A 
ATOM      2  C   UNL A   1     -25.992  -0.284  31.604  0.00  0.00    +0.151 A 
ATOM      3  C   UNL A   1     -26.798   0.262  32.602  0.00  0.00    +0.035 A 
ATOM      4  C   UNL A   1     -26.424   1.531  33.196  0.00  0.00    +0.005 A 
ATOM      5  C   UNL A   1     -25.276   2.121  32.668  0.00  0.00    +0.030 A 
ATOM      6  C   UNL A   1     -24.565   1.528  31.729  0.00  0.00    +0.147 A 
ATOM      7  F   UNL A   1     -23.460   2.120  31.274  0.00  0.00    -0.204 F 
ATOM      8  O   UNL A   1     -26.471  -1.476  31.068  0.00  0.00    -0.453 OA
ATOM      9  C   UNL A   1     -25.583  -2.214  30.339  0.00  0.00    +0.149 A 
ATOM     10  C   UNL A   1     -26.035  -3.238  29.834  0.00  0.00    +0.038 A 
ATOM     11  C   UNL A   1     -25.215  -4.063  29.035  0.00  0.00    +0.003 A 
ATOM     12  C   UNL A   1     -23.969  -3.755  28.739  0.00  0.00    +0.000 A 
ATOM     13  C   UNL A   1     -23.504  -2.575  29.303  0.00  0.00    +0.007 A 
ATOM     14  C   UNL A   1     -24.256  -1.833  30.115  0.00  0.00    +0.080 A 
ATOM     15  P   UNL A   1     -23.785  -0.206  30.701  0.00  0.00    +0.212 P 
ATOM     16  O   UNL A   1     -22.803  -1.015  31.777  0.00  0.00    -0.177 OA
ENDROOT
BRANCH   3  17
ATOM     17  C   UNL A   1     -28.085  -0.137  33.246  0.00  0.00    +0.006 A 
ATOM     18  C   UNL A   1     -29.298   0.006  32.876  0.00  0.00    +0.000 A 
ATOM     19  C   UNL A   1     -30.429  -0.433  33.628  0.00  0.00    +0.003 A 
ATOM     20  C   UNL A   1     -30.331  -1.236  34.717  0.00  0.00    +0.037 A 
ATOM     21  C   UNL A   1     -28.012  -0.950  34.527  0.00  0.00    +0.037 A 
ATOM     22  C   UNL A   1     -29.086  -1.408  35.204  0.00  0.00    +0.139 A 
BRANCH  22  23
ATOM     23  O   UNL A   1     -28.881  -2.111  36.354  0.00  0.00    -0.471 OA
ATOM     24  C   UNL A   1     -28.018  -2.689  36.680  0.00  0.00    +0.253 C 
ENDBRANCH  22  23
ENDBRANCH   3  17
BRANCH  15  25
ATOM     25  O   UNL A   1     -22.765   0.253  29.697  0.00  0.00    -0.291 OA
BRANCH  25  26
ATOM     26  C   UNL A   1     -22.907   0.222  28.450  0.00  0.00    +0.292 C 
BRANCH  26  27
ATOM     27  N   UNL A   1     -24.068   0.987  27.934  0.00  0.00    -0.247 NA
ATOM     28  C   UNL A   1     -24.809   0.325  27.041  0.00  0.00    +0.035 C 
ATOM     29  C   UNL A   1     -26.150  -0.045  27.429  0.00  0.00    +0.047 C 
ATOM     30  C   UNL A   1     -24.642   0.895  25.672  0.00  0.00    +0.047 C 
ENDBRANCH  26  27
BRANCH  26  31
ATOM     31  C   UNL A   1     -21.715   0.775  27.829  0.00  0.00    +0.369 C 
ATOM     32  F   UNL A   1     -20.674   0.529  28.289  0.00  0.00    -0.193 F 
ATOM     33  F   UNL A   1     -21.874   2.130  27.837  0.00  0.00    -0.193 F 
ENDBRANCH  26  31
ENDBRANCH  25  26
ENDBRANCH  15  25
TORSDOF 6
ENDMDL
ENDMDL
