REMARK  Name = No_3041-gen_results/8p0m/2024-11-26-14-13-15/
REMARK  6 active torsions:
REMARK  status: ('A' for Active; 'I' for Inactive)
REMARK    1  A    between atoms: C_3  and  C_7
REMARK    2  A    between atoms: C_12  and  O_14
REMARK    3  A    between atoms: P_23  and  O_24
REMARK    4  A    between atoms: O_24  and  C_26
REMARK    5  A    between atoms: C_26  and  C_27
REMARK    6  A    between atoms: C_26  and  N_30
REMARK                            x       y       z     vdW  Elec       q    Type
REMARK                         _______ _______ _______ _____ _____    ______ ____
ROOT
ATOM      1  C   UNL A   1     -28.016  -0.814  28.878  0.00  0.00    +0.107 A 
ATOM      2  C   UNL A   1     -27.064  -0.119  28.608  0.00  0.00    +0.151 A 
ATOM      3  C   UNL A   1     -25.765  -0.390  29.036  0.00  0.00    +0.035 A 
ATOM      4  C   UNL A   1     -25.530  -1.530  29.901  0.00  0.00    +0.005 A 
ATOM      5  C   UNL A   1     -26.658  -2.292  30.203  0.00  0.00    +0.030 A 
ATOM      6  C   UNL A   1     -27.855  -1.956  29.763  0.00  0.00    +0.147 A 
ATOM      7  F   UNL A   1     -28.908  -2.702  30.101  0.00  0.00    -0.204 F 
ATOM      8  O   UNL A   1     -27.168   0.964  27.741  0.00  0.00    -0.453 OA
ATOM      9  C   UNL A   1     -28.421   1.474  27.553  0.00  0.00    +0.149 A 
ATOM     10  C   UNL A   1     -28.501   2.398  26.748  0.00  0.00    +0.038 A 
ATOM     11  C   UNL A   1     -29.752   2.982  26.453  0.00  0.00    +0.003 A 
ATOM     12  C   UNL A   1     -30.882   2.537  26.961  0.00  0.00    +0.000 A 
ATOM     13  C   UNL A   1     -30.754   1.472  27.842  0.00  0.00    +0.007 A 
ATOM     14  C   UNL A   1     -29.567   0.967  28.175  0.00  0.00    +0.080 A 
ATOM     15  P   UNL A   1     -29.354  -0.530  29.137  0.00  0.00    +0.212 P 
ATOM     16  O   UNL A   1     -29.713   0.418  30.460  0.00  0.00    -0.177 OA
ENDROOT
BRANCH   3  17
ATOM     17  C   UNL A   1     -24.427   0.219  28.775  0.00  0.00    +0.006 A 
ATOM     18  C   UNL A   1     -23.256  -0.109  29.163  0.00  0.00    +0.000 A 
ATOM     19  C   UNL A   1     -22.064   0.600  28.823  0.00  0.00    +0.003 A 
ATOM     20  C   UNL A   1     -22.023   1.576  27.881  0.00  0.00    +0.037 A 
ATOM     21  C   UNL A   1     -24.358   1.384  27.803  0.00  0.00    +0.037 A 
ATOM     22  C   UNL A   1     -23.220   2.016  27.445  0.00  0.00    +0.139 A 
BRANCH  22  23
ATOM     23  O   UNL A   1     -23.301   3.063  26.575  0.00  0.00    -0.471 OA
ATOM     24  C   UNL A   1     -24.122   3.385  25.938  0.00  0.00    +0.253 C 
ENDBRANCH  22  23
ENDBRANCH   3  17
BRANCH  15  25
ATOM     25  O   UNL A   1     -30.659  -1.255  28.962  0.00  0.00    -0.291 OA
BRANCH  25  26
ATOM     26  C   UNL A   1     -31.390  -1.671  29.894  0.00  0.00    +0.292 C 
BRANCH  26  27
ATOM     27  N   UNL A   1     -32.317  -0.662  30.459  0.00  0.00    -0.247 NA
ATOM     28  C   UNL A   1     -33.584  -1.074  30.558  0.00  0.00    +0.035 C 
ATOM     29  C   UNL A   1     -34.127  -1.252  31.885  0.00  0.00    +0.047 C 
ATOM     30  C   UNL A   1     -34.457  -0.381  29.566  0.00  0.00    +0.047 C 
ENDBRANCH  26  27
BRANCH  26  31
ATOM     31  C   UNL A   1     -32.199  -2.772  29.398  0.00  0.00    +0.369 C 
ATOM     32  F   UNL A   1     -32.270  -2.947  28.250  0.00  0.00    -0.193 F 
ATOM     33  F   UNL A   1     -33.460  -2.564  29.875  0.00  0.00    -0.193 F 
ENDBRANCH  26  31
ENDBRANCH  25  26
ENDBRANCH  15  25
TORSDOF 6
