MODEL 3042
MODEL 1
REMARK VINA RESULT:    -6.315      0.000      0.000
REMARK INTER + INTRA:          -7.090
REMARK INTER:                  -6.684
REMARK INTRA:                  -0.406
REMARK UNBOUND:                -0.406
REMARK  Name = No_3042-gen_results/8p0m/2024-11-26-14-13-15/
REMARK  1 active torsions:
REMARK  status: ('A' for Active; 'I' for Inactive)
REMARK    1  A    between atoms: C_4  and  C_7
REMARK                            x       y       z     vdW  Elec       q    Type
REMARK                         _______ _______ _______ _____ _____    ______ ____
ROOT
ATOM      1  C   UNL A   1     -24.583  -4.860  28.916  0.00  0.00    +0.000 A 
ATOM      2  C   UNL A   1     -25.475  -5.244  29.326  0.00  0.00    +0.000 A 
ATOM      3  C   UNL A   1     -23.828  -3.678  28.714  0.00  0.00    +0.000 A 
ATOM      4  C   UNL A   1     -24.629  -2.538  29.051  0.00  0.00    +0.000 A 
ATOM      5  C   UNL A   1     -25.923  -2.803  29.605  0.00  0.00    +0.000 A 
ATOM      6  C   UNL A   1     -26.377  -4.108  29.777  0.00  0.00    +0.000 A 
ENDROOT
BRANCH   4   7
ATOM      7  C   UNL A   1     -24.160  -1.182  28.931  0.00  0.00    +0.000 A 
ATOM      8  C   UNL A   1     -24.526  -0.366  28.140  0.00  0.00    +0.000 A 
ATOM      9  C   UNL A   1     -23.974   0.417  27.475  0.00  0.00    +0.000 A 
ATOM     10  C   UNL A   1     -22.541   0.781  27.835  0.00  0.00    +0.000 A 
ATOM     11  C   UNL A   1     -22.059   0.044  28.874  0.00  0.00    +0.000 A 
ATOM     12  C   UNL A   1     -22.737  -1.085  29.423  0.00  0.00    +0.000 A 
ENDBRANCH   4   7
TORSDOF 1
ENDMDL
ENDMDL
