MODEL 3043
MODEL 1
REMARK VINA RESULT:    -4.281      0.000      0.000
REMARK INTER + INTRA:          -4.281
REMARK INTER:                  -4.281
REMARK INTRA:                   0.000
REMARK UNBOUND:                 0.000
REMARK  Name = No_3043-gen_results/8p0m/2024-11-26-14-13-15/
REMARK  0 active torsions:
REMARK  status: ('A' for Active; 'I' for Inactive)
REMARK                            x       y       z     vdW  Elec       q    Type
REMARK                         _______ _______ _______ _____ _____    ______ ____
ROOT
ATOM      1  C   UNL A   1     -24.013  -4.010  28.909  0.00  0.00    +0.007 A 
ATOM      2  C   UNL A   1     -24.280  -2.874  29.227  0.00  0.00    +0.035 A 
ATOM      3  C   UNL A   1     -25.512  -2.557  29.789  0.00  0.00    +0.007 A 
ATOM      4  C   UNL A   1     -26.527  -3.563  29.967  0.00  0.00    +0.001 A 
ATOM      5  C   UNL A   1     -26.143  -4.844  29.550  0.00  0.00    +0.000 A 
ATOM      6  C   UNL A   1     -24.971  -5.089  29.009  0.00  0.00    +0.001 A 
ATOM      7 BR   UNL A   1     -23.101  -1.420  29.032  0.00  0.00    -0.049 Br
ENDROOT
TORSDOF 0
ENDMDL
ENDMDL
