MODEL 3044
MODEL 1
REMARK VINA RESULT:    -7.345      0.000      0.000
REMARK INTER + INTRA:          -9.679
REMARK INTER:                  -9.062
REMARK INTRA:                  -0.617
REMARK UNBOUND:                -0.617
REMARK  Name = No_3044-gen_results/8p0m/2024-11-26-14-13-15/
REMARK  4 active torsions:
REMARK  status: ('A' for Active; 'I' for Inactive)
REMARK    1  A    between atoms: C_2  and  C_14
REMARK    2  A    between atoms: C_9  and  C_11
REMARK    3  A    between atoms: N_16  and  C_17
REMARK    4  A    between atoms: C_21  and  C_23
REMARK                            x       y       z     vdW  Elec       q    Type
REMARK                         _______ _______ _______ _____ _____    ______ ____
ROOT
ATOM      1  C   UNL A   1     -23.876   0.735  26.289  0.00  0.00    +0.005 A 
ATOM      2  C   UNL A   1     -23.572   1.525  26.915  0.00  0.00    +0.055 A 
ATOM      3  C   UNL A   1     -25.214   0.923  25.609  0.00  0.00    +0.000 A 
ATOM      4  C   UNL A   1     -25.920  -0.060  24.826  0.00  0.00    +0.000 A 
ATOM      5  C   UNL A   1     -24.089   2.888  27.097  0.00  0.00    +0.005 A 
ATOM      6  C   UNL A   1     -25.296   3.146  26.483  0.00  0.00    +0.000 A 
ATOM      7  C   UNL A   1     -25.889   2.194  25.694  0.00  0.00    +0.000 A 
ATOM      8  C   UNL A   1     -27.277   0.100  24.533  0.00  0.00    +0.005 A 
ATOM      9  C   UNL A   1     -27.863   1.381  24.621  0.00  0.00    +0.057 A 
ATOM     10  C   UNL A   1     -27.240   2.369  25.246  0.00  0.00    +0.005 A 
ENDROOT
BRANCH   9  11
ATOM     11  C   UNL A   1     -29.262   1.516  24.126  0.00  0.00    +0.284 C 
ATOM     12  N   UNL A   1     -30.177   2.350  23.897  0.00  0.00    -0.084 NA
ATOM     13  O   UNL A   1     -29.728   0.211  23.914  0.00  0.00    -0.267 OA
ENDBRANCH   9  11
BRANCH   2  14
ATOM     14  C   UNL A   1     -22.133   1.392  27.606  0.00  0.00    +0.269 C 
ATOM     15  O   UNL A   1     -21.187   1.944  27.353  0.00  0.00    -0.268 OA
ATOM     16  N   UNL A   1     -22.266   0.699  28.817  0.00  0.00    -0.175 NA
BRANCH  16  17
ATOM     17  C   UNL A   1     -23.388   0.070  29.339  0.00  0.00    +0.074 A 
ATOM     18  C   UNL A   1     -24.216   0.925  29.982  0.00  0.00    +0.017 A 
ATOM     19  C   UNL A   1     -25.432   0.420  30.401  0.00  0.00    +0.002 A 
ATOM     20  C   UNL A   1     -25.784  -0.960  30.296  0.00  0.00    +0.005 A 
ATOM     21  C   UNL A   1     -24.838  -1.799  29.646  0.00  0.00    +0.056 A 
ATOM     22  C   UNL A   1     -23.646  -1.252  29.127  0.00  0.00    +0.021 A 
BRANCH  21  23
ATOM     23  C   UNL A   1     -25.253  -3.218  29.462  0.00  0.00    +0.265 C 
ATOM     24  N   UNL A   1     -24.341  -4.063  29.005  0.00  0.00    -0.200 NA
ATOM     25  C   UNL A   1     -24.771  -5.444  28.915  0.00  0.00    +0.139 C 
ATOM     26  O   UNL A   1     -26.396  -3.541  29.772  0.00  0.00    -0.268 OA
ENDBRANCH  21  23
ENDBRANCH  16  17
ENDBRANCH   2  14
TORSDOF 4
ENDMDL
ENDMDL
