REMARK  Name = No_3044-gen_results/8p0m/2024-11-26-14-13-15/
REMARK  4 active torsions:
REMARK  status: ('A' for Active; 'I' for Inactive)
REMARK    1  A    between atoms: C_2  and  C_14
REMARK    2  A    between atoms: C_9  and  C_11
REMARK    3  A    between atoms: N_16  and  C_17
REMARK    4  A    between atoms: C_21  and  C_23
REMARK                            x       y       z     vdW  Elec       q    Type
REMARK                         _______ _______ _______ _____ _____    ______ ____
ROOT
ATOM      1  C   UNL A   1     -28.016  -0.814  28.878  0.00  0.00    +0.005 A 
ATOM      2  C   UNL A   1     -28.469  -0.785  29.829  0.00  0.00    +0.055 A 
ATOM      3  C   UNL A   1     -26.504  -0.778  28.877  0.00  0.00    +0.000 A 
ATOM      4  C   UNL A   1     -25.654  -0.660  27.719  0.00  0.00    +0.000 A 
ATOM      5  C   UNL A   1     -27.918  -0.937  31.182  0.00  0.00    +0.005 A 
ATOM      6  C   UNL A   1     -26.542  -0.940  31.261  0.00  0.00    +0.000 A 
ATOM      7  C   UNL A   1     -25.783  -0.893  30.120  0.00  0.00    +0.000 A 
ATOM      8  C   UNL A   1     -24.310  -0.301  27.853  0.00  0.00    +0.005 A 
ATOM      9  C   UNL A   1     -23.667  -0.460  29.099  0.00  0.00    +0.057 A 
ATOM     10  C   UNL A   1     -24.370  -0.664  30.203  0.00  0.00    +0.005 A 
ENDROOT
BRANCH   9  11
ATOM     11  C   UNL A   1     -22.195  -0.229  29.131  0.00  0.00    +0.284 C 
ATOM     12  N   UNL A   1     -21.288   0.567  28.772  0.00  0.00    -0.084 NA
ATOM     13  O   UNL A   1     -21.635  -1.371  29.721  0.00  0.00    -0.267 OA
ENDBRANCH   9  11
BRANCH   2  14
ATOM     14  C   UNL A   1     -30.067  -0.883  29.877  0.00  0.00    +0.269 C 
ATOM     15  O   UNL A   1     -30.700  -1.728  30.262  0.00  0.00    -0.268 OA
ATOM     16  N   UNL A   1     -30.613   0.388  29.654  0.00  0.00    -0.175 NA
BRANCH  16  17
ATOM     17  C   UNL A   1     -29.963   1.562  29.297  0.00  0.00    +0.074 A 
ATOM     18  C   UNL A   1     -30.809   2.502  28.815  0.00  0.00    +0.017 A 
ATOM     19  C   UNL A   1     -30.278   3.756  28.578  0.00  0.00    +0.002 A 
ATOM     20  C   UNL A   1     -28.886   4.052  28.698  0.00  0.00    +0.005 A 
ATOM     21  C   UNL A   1     -28.060   2.994  29.168  0.00  0.00    +0.056 A 
ATOM     22  C   UNL A   1     -28.630   1.750  29.509  0.00  0.00    +0.021 A 
BRANCH  21  23
ATOM     23  C   UNL A   1     -26.626   3.339  29.374  0.00  0.00    +0.265 C 
ATOM     24  N   UNL A   1     -25.750   2.347  29.327  0.00  0.00    -0.200 NA
ATOM     25  C   UNL A   1     -24.362   2.743  29.458  0.00  0.00    +0.139 C 
ATOM     26  O   UNL A   1     -26.322   4.517  29.542  0.00  0.00    -0.268 OA
ENDBRANCH  21  23
ENDBRANCH  16  17
ENDBRANCH   2  14
TORSDOF 4
