MODEL 3045
MODEL 1
REMARK VINA RESULT:    -4.932      0.000      0.000
REMARK INTER + INTRA:          -5.596
REMARK INTER:                  -5.509
REMARK INTRA:                  -0.087
REMARK UNBOUND:                -0.087
REMARK  Name = No_3045-gen_results/8p0m/2024-11-26-14-13-15/
REMARK  2 active torsions:
REMARK  status: ('A' for Active; 'I' for Inactive)
REMARK    1  A    between atoms: C_1  and  C_2
REMARK    2  A    between atoms: C_1  and  N_8
REMARK                            x       y       z     vdW  Elec       q    Type
REMARK                         _______ _______ _______ _____ _____    ______ ____
ROOT
ATOM      1  C   UNL A   1     -24.640  -2.444  29.155  0.00  0.00    +0.002 A 
ATOM      2  C   UNL A   1     -25.872  -2.898  29.615  0.00  0.00    -0.002 A 
ATOM      3  C   UNL A   1     -26.296  -4.322  29.736  0.00  0.00    -0.000 A 
ATOM      4  C   UNL A   1     -25.406  -5.287  29.180  0.00  0.00    -0.000 A 
ATOM      5  C   UNL A   1     -24.188  -4.801  28.664  0.00  0.00    -0.000 A 
ATOM      6  C   UNL A   1     -23.839  -3.506  28.632  0.00  0.00    -0.002 A 
ENDROOT
BRANCH   1   7
ATOM      7  C   UNL A   1     -24.389  -1.262  29.104  0.00  0.00    +0.153 C 
BRANCH   7   8
ATOM      8  N   UNL A   1     -23.055  -0.915  28.853  0.00  0.00    -0.246 NA
ATOM      9  C   UNL A   1     -22.345  -0.238  29.086  0.00  0.00    +0.200 C 
ATOM     10  N   UNL A   1     -20.975  -0.267  28.651  0.00  0.00    -0.104 NA
ENDBRANCH   7   8
ENDBRANCH   1   7
TORSDOF 2
ENDMDL
ENDMDL
