MODEL 3046
MODEL 1
REMARK VINA RESULT:    -4.353      0.000      0.000
REMARK INTER + INTRA:          -4.353
REMARK INTER:                  -4.353
REMARK INTRA:                   0.000
REMARK UNBOUND:                 0.000
REMARK  Name = No_3046-gen_results/8p0m/2024-11-26-14-13-15/
REMARK  0 active torsions:
REMARK  status: ('A' for Active; 'I' for Inactive)
REMARK                            x       y       z     vdW  Elec       q    Type
REMARK                         _______ _______ _______ _____ _____    ______ ____
ROOT
ATOM      1  C   UNL A   1     -24.932  -5.428  28.991  0.00  0.00    +0.000 A 
ATOM      2  C   UNL A   1     -24.177  -4.786  28.634  0.00  0.00    +0.000 A 
ATOM      3  C   UNL A   1     -26.073  -4.716  29.581  0.00  0.00    +0.000 A 
ATOM      4  C   UNL A   1     -26.059  -3.402  29.807  0.00  0.00    +0.000 A 
ATOM      5  C   UNL A   1     -23.934  -3.371  28.777  0.00  0.00    +0.000 A 
ATOM      6  C   UNL A   1     -24.994  -2.732  29.350  0.00  0.00    +0.000 A 
ENDROOT
TORSDOF 0
ENDMDL
ENDMDL
