MODEL 3047
MODEL 1
REMARK VINA RESULT:    -6.661      0.000      0.000
REMARK INTER + INTRA:          -8.009
REMARK INTER:                  -7.439
REMARK INTRA:                  -0.570
REMARK UNBOUND:                -0.570
REMARK  Name = No_3047-gen_results/8p0m/2024-11-26-14-13-15/
REMARK  2 active torsions:
REMARK  status: ('A' for Active; 'I' for Inactive)
REMARK    1  A    between atoms: C_3  and  C_7
REMARK    2  A    between atoms: N_8  and  C_11
REMARK                            x       y       z     vdW  Elec       q    Type
REMARK                         _______ _______ _______ _____ _____    ______ ____
ROOT
ATOM      1  C   UNL A   1     -24.339  -0.102  29.645  0.00  0.00    +0.323 C 
ATOM      2  N   UNL A   1     -24.690  -1.091  28.929  0.00  0.00    -0.166 N 
ATOM      3  N   UNL A   1     -24.213   1.081  29.204  0.00  0.00    -0.060 NA
ATOM      4  C   UNL A   1     -24.576   0.923  27.840  0.00  0.00    +0.314 C 
ATOM      5  C   UNL A   1     -24.866  -0.388  27.620  0.00  0.00    +0.265 C 
ENDROOT
BRANCH   1   8
ATOM      6  C   UNL A   1     -23.028  -1.094  31.611  0.00  0.00    +0.007 A 
ATOM      7  C   UNL A   1     -23.002  -1.298  32.644  0.00  0.00    +0.000 A 
ATOM      8  C   UNL A   1     -24.188  -0.478  31.091  0.00  0.00    +0.082 A 
ATOM      9  C   UNL A   1     -25.268  -0.159  31.891  0.00  0.00    +0.007 A 
ATOM     10  C   UNL A   1     -24.000  -1.060  33.705  0.00  0.00    +0.000 A 
ATOM     11  C   UNL A   1     -25.128  -0.473  33.249  0.00  0.00    +0.000 A 
ENDBRANCH   1   8
BRANCH   2  12
ATOM     12  C   UNL A   1     -24.930  -2.408  29.132  0.00  0.00    +0.139 A 
ATOM     13  C   UNL A   1     -23.878  -3.333  28.646  0.00  0.00    +0.040 A 
ATOM     14  C   UNL A   1     -26.115  -2.894  29.611  0.00  0.00    +0.040 A 
ATOM     15  C   UNL A   1     -24.209  -4.742  28.726  0.00  0.00    +0.004 A 
ATOM     16  C   UNL A   1     -26.352  -4.268  29.735  0.00  0.00    +0.004 A 
ATOM     17  C   UNL A   1     -25.364  -5.172  29.295  0.00  0.00    +0.000 A 
ENDBRANCH   2  12
TORSDOF 2
ENDMDL
ENDMDL
