REMARK  Name = No_3047-gen_results/8p0m/2024-11-26-14-13-15/
REMARK  2 active torsions:
REMARK  status: ('A' for Active; 'I' for Inactive)
REMARK    1  A    between atoms: C_3  and  C_7
REMARK    2  A    between atoms: N_8  and  C_11
REMARK                            x       y       z     vdW  Elec       q    Type
REMARK                         _______ _______ _______ _____ _____    ______ ____
ROOT
ATOM      1  C   UNL A   1     -26.399   0.295  27.228  0.00  0.00    +0.323 C 
ATOM      2  N   UNL A   1     -25.148   0.129  27.379  0.00  0.00    -0.166 N 
ATOM      3  N   UNL A   1     -26.966   0.412  26.100  0.00  0.00    -0.060 NA
ATOM      4  C   UNL A   1     -25.868   0.284  25.208  0.00  0.00    +0.314 C 
ATOM      5  C   UNL A   1     -24.733   0.120  25.941  0.00  0.00    +0.265 C 
ENDROOT
BRANCH   1   8
ATOM      6  C   UNL A   1     -28.016  -0.814  28.878  0.00  0.00    +0.007 A 
ATOM      7  C   UNL A   1     -28.469  -0.785  29.829  0.00  0.00    +0.000 A 
ATOM      8  C   UNL A   1     -27.136   0.236  28.535  0.00  0.00    +0.082 A 
ATOM      9  C   UNL A   1     -26.875   1.282  29.398  0.00  0.00    +0.007 A 
ATOM     10  C   UNL A   1     -28.361   0.199  30.924  0.00  0.00    +0.000 A 
ATOM     11  C   UNL A   1     -27.528   1.223  30.636  0.00  0.00    +0.000 A 
ENDBRANCH   1   8
BRANCH   2  12
ATOM     12  C   UNL A   1     -24.305  -0.053  28.422  0.00  0.00    +0.139 A 
ATOM     13  C   UNL A   1     -23.293   1.012  28.622  0.00  0.00    +0.040 A 
ATOM     14  C   UNL A   1     -24.264  -1.199  29.168  0.00  0.00    +0.040 A 
ATOM     15  C   UNL A   1     -22.300   0.738  29.641  0.00  0.00    +0.004 A 
ATOM     16  C   UNL A   1     -23.325  -1.379  30.191  0.00  0.00    +0.004 A 
ATOM     17  C   UNL A   1     -22.360  -0.376  30.414  0.00  0.00    +0.000 A 
ENDBRANCH   2  12
TORSDOF 2
