MODEL 3048
MODEL 1
REMARK VINA RESULT:    -5.103      0.000      0.000
REMARK INTER + INTRA:         -10.095
REMARK INTER:                  -8.385
REMARK INTRA:                  -1.710
REMARK UNBOUND:                -1.710
REMARK  Name = No_3048-gen_results/8p0m/2024-11-26-14-13-15/
REMARK  11 active torsions:
REMARK  status: ('A' for Active; 'I' for Inactive)
REMARK    1  A    between atoms: C_2  and  C_7
REMARK    2  A    between atoms: C_4  and  P_11
REMARK    3  A    between atoms: P_11  and  O_12
REMARK    4  A    between atoms: O_12  and  C_15
REMARK    5  A    between atoms: C_15  and  C_16
REMARK    6  A    between atoms: C_16  and  O_17
REMARK    7  A    between atoms: O_17  and  C_18
REMARK    8  A    between atoms: C_18  and  C_19
REMARK    9  A    between atoms: C_19  and  C_20
REMARK   10  A    between atoms: C_21  and  C_22
REMARK   11  A    between atoms: C_23  and  C_24
REMARK                            x       y       z     vdW  Elec       q    Type
REMARK                         _______ _______ _______ _____ _____    ______ ____
ROOT
ATOM      1  P   UNL A   1     -30.244 -15.158  10.661  0.00  0.00    +0.329 P 
ATOM      2  O   UNL A   1     -30.142 -16.080   9.439  0.00  0.00    -0.149 OA
ATOM      3  O   UNL A   1     -29.393 -15.720  11.755  0.00  0.00    -0.149 OA
ENDROOT
BRANCH   1   7
ATOM      4  C   UNL A   1     -28.777 -11.237  10.499  0.00  0.00    +0.018 A 
ATOM      5  C   UNL A   1     -28.473 -11.261   9.490  0.00  0.00    +0.081 A 
ATOM      6  C   UNL A   1     -29.440 -12.497  11.008  0.00  0.00    +0.064 A 
ATOM      7  C   UNL A   1     -29.481 -13.639  10.181  0.00  0.00    +0.080 A 
ATOM      8  C   UNL A   1     -28.371 -12.305   8.446  0.00  0.00    +0.007 A 
ATOM      9  C   UNL A   1     -28.965 -13.482   8.881  0.00  0.00    +0.007 A 
ATOM     10 CL   UNL A   1     -30.101 -12.687  12.560  0.00  0.00    -0.082 Cl
BRANCH   5  11
ATOM     11  C   UNL A   1     -27.753  -9.940   8.926  0.00  0.00    +0.388 C 
ATOM     12  O   UNL A   1     -27.392  -9.045   9.773  0.00  0.00    -0.241 OA
ATOM     13  O   UNL A   1     -27.523  -9.909   7.704  0.00  0.00    -0.241 OA
ENDBRANCH   5  11
ENDBRANCH   1   7
BRANCH   1  14
ATOM     14  O   UNL A   1     -31.584 -15.048  10.919  0.00  0.00    -0.297 OA
BRANCH  14  15
ATOM     15  C   UNL A   1     -32.462 -14.474  10.044  0.00  0.00    +0.183 C 
BRANCH  15  16
ATOM     16  C   UNL A   1     -33.654 -13.712  10.730  0.00  0.00    +0.175 C 
BRANCH  16  17
ATOM     17  O   UNL A   1     -33.834 -12.601  10.265  0.00  0.00    -0.351 OA
BRANCH  17  18
ATOM     18  C   UNL A   1     -32.856 -11.890   9.567  0.00  0.00    +0.147 C 
BRANCH  18  19
ATOM     19  C   UNL A   1     -32.435 -10.776  10.363  0.00  0.00    +0.058 C 
BRANCH  19  20
ATOM     20  C   UNL A   1     -31.846  -9.701   9.800  0.00  0.00    -0.024 C 
ATOM     21  C   UNL A   1     -31.629  -8.483  10.531  0.00  0.00    -0.004 C 
BRANCH  21  22
ATOM     22  C   UNL A   1     -30.671  -7.537  10.131  0.00  0.00    -0.000 C 
ATOM     23  C   UNL A   1     -30.812  -6.191  10.454  0.00  0.00    -0.000 C 
BRANCH  23  24
ATOM     24  C   UNL A   1     -31.955  -5.832  11.197  0.00  0.00    -0.000 C 
ATOM     25  C   UNL A   1     -32.264  -4.560  11.522  0.00  0.00    -0.000 C 
ENDBRANCH  23  24
ENDBRANCH  21  22
ENDBRANCH  19  20
ENDBRANCH  18  19
ENDBRANCH  17  18
ENDBRANCH  16  17
ENDBRANCH  15  16
ENDBRANCH  14  15
ENDBRANCH   1  14
TORSDOF 11
ENDMDL
ENDMDL
