REMARK  Name = No_3048-gen_results/8p0m/2024-11-26-14-13-15/
REMARK  11 active torsions:
REMARK  status: ('A' for Active; 'I' for Inactive)
REMARK    1  A    between atoms: C_2  and  C_7
REMARK    2  A    between atoms: C_4  and  P_11
REMARK    3  A    between atoms: P_11  and  O_12
REMARK    4  A    between atoms: O_12  and  C_15
REMARK    5  A    between atoms: C_15  and  C_16
REMARK    6  A    between atoms: C_16  and  O_17
REMARK    7  A    between atoms: O_17  and  C_18
REMARK    8  A    between atoms: C_18  and  C_19
REMARK    9  A    between atoms: C_19  and  C_20
REMARK   10  A    between atoms: C_21  and  C_22
REMARK   11  A    between atoms: C_23  and  C_24
REMARK                            x       y       z     vdW  Elec       q    Type
REMARK                         _______ _______ _______ _____ _____    ______ ____
ROOT
ATOM      1  P   UNL A   1     -24.049  -0.802  30.225  0.00  0.00    +0.329 P 
ATOM      2  O   UNL A   1     -23.741  -0.567  31.710  0.00  0.00    -0.149 OA
ATOM      3  O   UNL A   1     -23.568  -2.167  29.848  0.00  0.00    -0.149 OA
ENDROOT
BRANCH   1   7
ATOM      4  C   UNL A   1     -28.016  -0.814  28.878  0.00  0.00    +0.018 A 
ATOM      5  C   UNL A   1     -28.469  -0.785  29.829  0.00  0.00    +0.081 A 
ATOM      6  C   UNL A   1     -26.504  -0.778  28.877  0.00  0.00    +0.064 A 
ATOM      7  C   UNL A   1     -25.810  -0.853  30.103  0.00  0.00    +0.080 A 
ATOM      8  C   UNL A   1     -27.991  -0.892  31.226  0.00  0.00    +0.007 A 
ATOM      9  C   UNL A   1     -26.604  -0.868  31.265  0.00  0.00    +0.007 A 
ATOM     10 CL   UNL A   1     -25.536  -0.720  27.484  0.00  0.00    -0.082 Cl
BRANCH   5  11
ATOM     11  C   UNL A   1     -30.074  -0.836  29.861  0.00  0.00    +0.388 C 
ATOM     12  O   UNL A   1     -30.683  -0.070  30.692  0.00  0.00    -0.241 OA
ATOM     13  O   UNL A   1     -30.626  -1.565  29.017  0.00  0.00    -0.241 OA
ENDBRANCH   5  11
ENDBRANCH   1   7
BRANCH   1  14
ATOM     14  O   UNL A   1     -23.478   0.254  29.567  0.00  0.00    -0.297 OA
BRANCH  14  15
ATOM     15  C   UNL A   1     -22.389   0.118  28.754  0.00  0.00    +0.183 C 
BRANCH  15  16
ATOM     16  C   UNL A   1     -22.057   1.395  27.898  0.00  0.00    +0.175 C 
BRANCH  16  17
ATOM     17  O   UNL A   1     -23.051   2.029  27.592  0.00  0.00    -0.351 OA
BRANCH  17  18
ATOM     18  C   UNL A   1     -23.475   2.210  26.274  0.00  0.00    +0.147 C 
BRANCH  18  19
ATOM     19  C   UNL A   1     -24.811   1.712  26.144  0.00  0.00    +0.058 C 
BRANCH  19  20
ATOM     20  C   UNL A   1     -25.869   2.439  26.559  0.00  0.00    -0.024 C 
ATOM     21  C   UNL A   1     -27.212   2.125  26.157  0.00  0.00    -0.004 C 
BRANCH  21  22
ATOM     22  C   UNL A   1     -28.329   2.572  26.883  0.00  0.00    -0.000 C 
ATOM     23  C   UNL A   1     -29.617   2.183  26.532  0.00  0.00    -0.000 C 
BRANCH  23  24
ATOM     24  C   UNL A   1     -29.741   1.324  25.421  0.00  0.00    -0.000 C 
ATOM     25  C   UNL A   1     -28.690   0.863  24.713  0.00  0.00    -0.000 C 
ENDBRANCH  23  24
ENDBRANCH  21  22
ENDBRANCH  19  20
ENDBRANCH  18  19
ENDBRANCH  17  18
ENDBRANCH  16  17
ENDBRANCH  15  16
ENDBRANCH  14  15
ENDBRANCH   1  14
TORSDOF 11
