REMARK  Name = No_3049-gen_results/8p0m/2024-11-26-14-13-15/
REMARK  1 active torsions:
REMARK  status: ('A' for Active; 'I' for Inactive)
REMARK    1  A    between atoms: C_4  and  C_7
REMARK                            x       y       z     vdW  Elec       q    Type
REMARK                         _______ _______ _______ _____ _____    ______ ____
ROOT
ATOM      1  C   UNL A   1     -28.016  -0.814  28.878  0.00  0.00    +0.030 A 
ATOM      2  C   UNL A   1     -28.469  -0.785  29.829  0.00  0.00    +0.140 A 
ATOM      3  C   UNL A   1     -26.504  -0.778  28.877  0.00  0.00    +0.002 A 
ATOM      4  C   UNL A   1     -25.810  -0.853  30.103  0.00  0.00    +0.000 A 
ATOM      5  C   UNL A   1     -27.991  -0.892  31.226  0.00  0.00    +0.030 A 
ATOM      6  C   UNL A   1     -26.604  -0.868  31.265  0.00  0.00    +0.002 A 
ATOM      7  F   UNL A   1     -29.923  -0.877  29.960  0.00  0.00    -0.204 F 
ENDROOT
BRANCH   4   8
ATOM      8  C   UNL A   1     -24.389  -0.805  30.164  0.00  0.00    +0.000 A 
ATOM      9  C   UNL A   1     -23.635  -0.862  29.147  0.00  0.00    +0.000 A 
ATOM     10  C   UNL A   1     -22.175  -0.673  29.213  0.00  0.00    +0.000 A 
ATOM     11  C   UNL A   1     -23.746  -0.771  31.494  0.00  0.00    +0.000 A 
ATOM     12  C   UNL A   1     -22.290  -0.658  31.582  0.00  0.00    +0.000 A 
ATOM     13  C   UNL A   1     -21.575  -0.591  30.377  0.00  0.00    +0.000 A 
ENDBRANCH   4   8
TORSDOF 1
