REMARK  Name = No_305-gen_results/8p0m/2024-11-26-14-13-15/
REMARK  6 active torsions:
REMARK  status: ('A' for Active; 'I' for Inactive)
REMARK    1  A    between atoms: C_2  and  C_14
REMARK    2  A    between atoms: C_4  and  C_5
REMARK    3  A    between atoms: C_5  and  C_8
REMARK    4  A    between atoms: C_9  and  O_17
REMARK    5  A    between atoms: O_17  and  C_18
REMARK    6  A    between atoms: C_18  and  C_19
REMARK                            x       y       z     vdW  Elec       q    Type
REMARK                         _______ _______ _______ _____ _____    ______ ____
ROOT
ATOM      1  C   UNL A   1     -23.727   0.171  30.026  0.00  0.00    -0.002 C 
ATOM      2  C   UNL A   1     -24.050   1.254  30.557  0.00  0.00    +0.131 C 
ATOM      3  C   UNL A   1     -23.433   2.522  30.259  0.00  0.00    +0.032 C 
ATOM      4  C   UNL A   1     -22.607   2.454  29.138  0.00  0.00    -0.019 C 
ATOM      5  C   UNL A   1     -22.712   0.494  28.936  0.00  0.00    +0.051 C 
ENDROOT
BRANCH   1   6
ATOM      6  C   UNL A   1     -24.370  -1.100  30.072  0.00  0.00    +0.054 C 
BRANCH   6  10
ATOM      7  C   UNL A   1     -28.016  -0.814  28.878  0.00  0.00    +0.036 A 
ATOM      8  C   UNL A   1     -28.469  -0.785  29.829  0.00  0.00    +0.082 A 
ATOM      9  C   UNL A   1     -26.546  -0.876  28.850  0.00  0.00    +0.137 A 
ATOM     10  C   UNL A   1     -25.804  -1.032  30.057  0.00  0.00    +0.009 A 
ATOM     11  C   UNL A   1     -27.990  -1.005  31.209  0.00  0.00    +0.006 A 
ATOM     12  C   UNL A   1     -26.562  -1.137  31.260  0.00  0.00    -0.002 A 
ATOM     13  F   UNL A   1     -25.884  -0.662  27.710  0.00  0.00    -0.204 F 
BRANCH   8  14
ATOM     14  C   UNL A   1     -30.092  -0.732  29.878  0.00  0.00    +0.388 C 
ATOM     15  O   UNL A   1     -30.619   0.272  30.444  0.00  0.00    -0.241 OA
ATOM     16  O   UNL A   1     -30.715  -1.614  29.311  0.00  0.00    -0.241 OA
ENDBRANCH   8  14
ENDBRANCH   6  10
ENDBRANCH   1   6
BRANCH   2  17
ATOM     17  O   UNL A   1     -24.904   1.309  31.696  0.00  0.00    -0.471 OA
BRANCH  17  18
ATOM     18  C   UNL A   1     -25.069   2.500  32.404  0.00  0.00    +0.232 C 
BRANCH  18  19
ATOM     19  C   UNL A   1     -26.534   2.867  32.548  0.00  0.00    +0.021 A 
ATOM     20  C   UNL A   1     -27.440   2.010  32.493  0.00  0.00    -0.001 A 
ATOM     21  C   UNL A   1     -28.827   2.424  32.478  0.00  0.00    -0.000 A 
ATOM     22  C   UNL A   1     -29.087   3.732  32.706  0.00  0.00    -0.000 A 
ATOM     23  C   UNL A   1     -26.966   4.289  32.794  0.00  0.00    -0.001 A 
ATOM     24  C   UNL A   1     -28.165   4.671  32.871  0.00  0.00    -0.000 A 
ENDBRANCH  18  19
ENDBRANCH  17  18
ENDBRANCH   2  17
TORSDOF 6
