MODEL 3050
MODEL 1
REMARK VINA RESULT:    -6.176      0.000      0.000
REMARK INTER + INTRA:          -6.598
REMARK INTER:                  -6.537
REMARK INTRA:                  -0.061
REMARK UNBOUND:                -0.061
REMARK  Name = No_3050-gen_results/8p0m/2024-11-26-14-13-15/
REMARK  1 active torsions:
REMARK  status: ('A' for Active; 'I' for Inactive)
REMARK    1  A    between atoms: C_9  and  C_10
REMARK                            x       y       z     vdW  Elec       q    Type
REMARK                         _______ _______ _______ _____ _____    ______ ____
ROOT
ATOM      1  C   UNL A   1     -30.676 -10.106  29.673  0.00  0.00    +0.000 A 
ATOM      2  C   UNL A   1     -30.069 -10.563  30.614  0.00  0.00    +0.000 A 
ATOM      3  C   UNL A   1     -29.106 -11.513  30.505  0.00  0.00    +0.000 A 
ATOM      4  C   UNL A   1     -28.790 -12.001  29.223  0.00  0.00    +0.000 A 
ATOM      5  C   UNL A   1     -30.338 -10.488  28.326  0.00  0.00    +0.000 A 
ATOM      6  C   UNL A   1     -29.398 -11.461  28.164  0.00  0.00    +0.000 A 
ATOM      7  C   UNL A   1     -30.315 -10.108  32.042  0.00  0.00    +0.000 A 
ATOM      8  C   UNL A   1     -29.151  -9.967  32.894  0.00  0.00    +0.007 A 
ATOM      9  C   UNL A   1     -28.304 -11.079  32.973  0.00  0.00    +0.080 A 
ATOM     10  C   UNL A   1     -28.180 -11.914  31.664  0.00  0.00    +0.007 A 
ENDROOT
BRANCH   9  11
ATOM     11  C   UNL A   1     -27.269 -11.221  33.952  0.00  0.00    +0.388 C 
ATOM     12  O   UNL A   1     -26.644 -10.731  34.570  0.00  0.00    -0.241 OA
ATOM     13  O   UNL A   1     -26.794 -12.674  33.807  0.00  0.00    -0.241 OA
ENDBRANCH   9  11
TORSDOF 1
ENDMDL
ENDMDL
