MODEL 3051
MODEL 1
REMARK VINA RESULT:    -6.617      0.000      0.000
REMARK INTER + INTRA:          -7.764
REMARK INTER:                  -7.390
REMARK INTRA:                  -0.374
REMARK UNBOUND:                -0.374
REMARK  Name = No_3051-gen_results/8p0m/2024-11-26-14-13-15/
REMARK  2 active torsions:
REMARK  status: ('A' for Active; 'I' for Inactive)
REMARK    1  A    between atoms: C_4  and  C_7
REMARK    2  A    between atoms: C_7  and  C_8
REMARK                            x       y       z     vdW  Elec       q    Type
REMARK                         _______ _______ _______ _____ _____    ______ ____
ROOT
ATOM      1  C   UNL A   1     -22.034   1.376  27.481  0.00  0.00    +0.029 A 
ATOM      2  C   UNL A   1     -22.893   1.554  26.897  0.00  0.00    +0.002 A 
ATOM      3  C   UNL A   1     -22.168   0.390  28.565  0.00  0.00    +0.137 A 
ATOM      4  C   UNL A   1     -23.363  -0.375  28.706  0.00  0.00    +0.010 A 
ATOM      5  C   UNL A   1     -24.376  -0.074  27.831  0.00  0.00    -0.002 A 
ATOM      6  C   UNL A   1     -24.208   0.860  26.871  0.00  0.00    -0.000 A 
ATOM      7  F   UNL A   1     -21.198   0.092  29.428  0.00  0.00    -0.204 F 
ENDROOT
BRANCH   4   8
ATOM      8  C   UNL A   1     -23.505  -1.358  29.749  0.00  0.00    +0.055 C 
BRANCH   8   9
ATOM      9  C   UNL A   1     -24.381  -2.425  29.459  0.00  0.00    -0.018 A 
ATOM     10  C   UNL A   1     -25.632  -2.574  29.801  0.00  0.00    -0.004 A 
ATOM     11  C   UNL A   1     -23.808  -3.552  28.637  0.00  0.00    -0.004 A 
ATOM     12  C   UNL A   1     -24.325  -4.832  28.657  0.00  0.00    -0.000 A 
ATOM     13  C   UNL A   1     -26.325  -3.832  29.873  0.00  0.00    -0.000 A 
ATOM     14  C   UNL A   1     -25.687  -4.966  29.190  0.00  0.00    -0.000 A 
ENDBRANCH   8   9
ENDBRANCH   4   8
TORSDOF 2
ENDMDL
ENDMDL
