REMARK  Name = No_3051-gen_results/8p0m/2024-11-26-14-13-15/
REMARK  2 active torsions:
REMARK  status: ('A' for Active; 'I' for Inactive)
REMARK    1  A    between atoms: C_4  and  C_7
REMARK    2  A    between atoms: C_7  and  C_8
REMARK                            x       y       z     vdW  Elec       q    Type
REMARK                         _______ _______ _______ _____ _____    ______ ____
ROOT
ATOM      1  C   UNL A   1     -28.016  -0.814  28.878  0.00  0.00    +0.029 A 
ATOM      2  C   UNL A   1     -28.469  -0.785  29.829  0.00  0.00    +0.002 A 
ATOM      3  C   UNL A   1     -26.546  -0.876  28.850  0.00  0.00    +0.137 A 
ATOM      4  C   UNL A   1     -25.804  -1.032  30.057  0.00  0.00    +0.010 A 
ATOM      5  C   UNL A   1     -26.537  -1.039  31.217  0.00  0.00    -0.002 A 
ATOM      6  C   UNL A   1     -27.884  -0.953  31.186  0.00  0.00    -0.000 A 
ATOM      7  F   UNL A   1     -25.819  -0.861  27.734  0.00  0.00    -0.204 F 
ENDROOT
BRANCH   4   8
ATOM      8  C   UNL A   1     -24.366  -1.113  30.048  0.00  0.00    +0.055 C 
BRANCH   8   9
ATOM      9  C   UNL A   1     -23.692   0.119  29.919  0.00  0.00    -0.018 A 
ATOM     10  C   UNL A   1     -23.986   1.274  30.452  0.00  0.00    -0.004 A 
ATOM     11  C   UNL A   1     -22.457   0.116  29.053  0.00  0.00    -0.004 A 
ATOM     12  C   UNL A   1     -21.964   1.253  28.446  0.00  0.00    -0.000 A 
ATOM     13  C   UNL A   1     -23.556   2.551  29.949  0.00  0.00    -0.000 A 
ATOM     14  C   UNL A   1     -22.442   2.530  28.991  0.00  0.00    -0.000 A 
ENDBRANCH   8   9
ENDBRANCH   4   8
TORSDOF 2
