MODEL 3052
MODEL 1
REMARK VINA RESULT:    -6.694      0.000      0.000
REMARK INTER + INTRA:          -7.693
REMARK INTER:                  -7.476
REMARK INTRA:                  -0.217
REMARK UNBOUND:                -0.217
REMARK  Name = No_3052-gen_results/8p0m/2024-11-26-14-13-15/
REMARK  2 active torsions:
REMARK  status: ('A' for Active; 'I' for Inactive)
REMARK    1  A    between atoms: C_3  and  C_15
REMARK    2  A    between atoms: C_5  and  C_11
REMARK                            x       y       z     vdW  Elec       q    Type
REMARK                         _______ _______ _______ _____ _____    ______ ____
ROOT
ATOM      1  C   UNL A   1     -26.495  -3.423  29.728  0.00  0.00    +0.000 A 
ATOM      2  C   UNL A   1     -25.628  -2.599  29.554  0.00  0.00    +0.004 A 
ATOM      3  C   UNL A   1     -25.819  -1.241  29.716  0.00  0.00    +0.053 A 
ATOM      4  C   UNL A   1     -24.835  -0.209  29.445  0.00  0.00    +0.008 A 
ATOM      5  C   UNL A   1     -23.556  -0.594  28.985  0.00  0.00    +0.072 A 
ATOM      6  C   UNL A   1     -23.348  -2.007  28.799  0.00  0.00    +0.004 A 
ATOM      7  C   UNL A   1     -24.308  -2.965  29.027  0.00  0.00    +0.000 A 
ATOM      8  C   UNL A   1     -26.130  -4.887  29.677  0.00  0.00    +0.000 A 
ATOM      9  C   UNL A   1     -24.955  -5.277  29.038  0.00  0.00    -0.000 A 
ATOM     10  C   UNL A   1     -23.981  -4.315  28.755  0.00  0.00    -0.000 A 
ENDROOT
BRANCH   3  11
ATOM     11  C   UNL A   1     -27.125  -0.706  30.138  0.00  0.00    +0.249 C 
ATOM     12  O   UNL A   1     -27.882  -0.341  29.503  0.00  0.00    -0.270 OA
ATOM     13  N   UNL A   1     -27.118  -0.261  31.520  0.00  0.00    -0.273 N 
ATOM     14  C   UNL A   1     -26.180  -0.617  32.426  0.00  0.00    +0.115 C 
ATOM     15  C   UNL A   1     -28.260   0.362  32.009  0.00  0.00    +0.115 C 
ENDBRANCH   3  11
BRANCH   5  16
ATOM     16  C   UNL A   1     -22.501   0.381  28.724  0.00  0.00    +0.419 C 
ATOM     17  F   UNL A   1     -22.673   1.422  29.365  0.00  0.00    -0.166 F 
ATOM     18  F   UNL A   1     -21.229  -0.129  29.057  0.00  0.00    -0.166 F 
ATOM     19  F   UNL A   1     -22.485   0.742  27.439  0.00  0.00    -0.166 F 
ENDBRANCH   5  16
TORSDOF 2
ENDMDL
ENDMDL
