REMARK  Name = No_3052-gen_results/8p0m/2024-11-26-14-13-15/
REMARK  2 active torsions:
REMARK  status: ('A' for Active; 'I' for Inactive)
REMARK    1  A    between atoms: C_3  and  C_15
REMARK    2  A    between atoms: C_5  and  C_11
REMARK                            x       y       z     vdW  Elec       q    Type
REMARK                         _______ _______ _______ _____ _____    ______ ____
ROOT
ATOM      1  C   UNL A   1     -28.016  -0.814  28.878  0.00  0.00    +0.000 A 
ATOM      2  C   UNL A   1     -27.064  -0.119  28.608  0.00  0.00    +0.004 A 
ATOM      3  C   UNL A   1     -27.001   0.691  27.491  0.00  0.00    +0.053 A 
ATOM      4  C   UNL A   1     -25.855   1.482  27.083  0.00  0.00    +0.008 A 
ATOM      5  C   UNL A   1     -24.690   1.453  27.881  0.00  0.00    +0.072 A 
ATOM      6  C   UNL A   1     -24.738   0.601  29.042  0.00  0.00    +0.004 A 
ATOM      7  C   UNL A   1     -25.823  -0.169  29.389  0.00  0.00    +0.000 A 
ATOM      8  C   UNL A   1     -28.038  -1.535  30.205  0.00  0.00    +0.000 A 
ATOM      9  C   UNL A   1     -26.844  -1.737  30.893  0.00  0.00    -0.000 A 
ATOM     10  C   UNL A   1     -25.714  -0.999  30.531  0.00  0.00    -0.000 A 
ENDROOT
BRANCH   3  11
ATOM     11  C   UNL A   1     -28.130   0.768  26.548  0.00  0.00    +0.249 C 
ATOM     12  O   UNL A   1     -29.153   0.774  26.802  0.00  0.00    -0.270 OA
ATOM     13  N   UNL A   1     -27.761   0.345  25.209  0.00  0.00    -0.273 N 
ATOM     14  C   UNL A   1     -26.486   0.249  24.770  0.00  0.00    +0.115 C 
ATOM     15  C   UNL A   1     -28.763   0.271  24.250  0.00  0.00    +0.115 C 
ENDBRANCH   3  11
BRANCH   5  16
ATOM     16  C   UNL A   1     -23.509   2.248  27.558  0.00  0.00    +0.419 C 
ATOM     17  F   UNL A   1     -23.131   2.917  28.524  0.00  0.00    -0.166 F 
ATOM     18  F   UNL A   1     -22.433   1.436  27.145  0.00  0.00    -0.166 F 
ATOM     19  F   UNL A   1     -23.770   3.126  26.586  0.00  0.00    -0.166 F 
ENDBRANCH   5  16
TORSDOF 2
