MODEL 3053
MODEL 1
REMARK VINA RESULT:    -7.403      0.000      0.000
REMARK INTER + INTRA:          -7.403
REMARK INTER:                  -7.403
REMARK INTRA:                   0.000
REMARK UNBOUND:                 0.000
REMARK  Name = No_3053-gen_results/8p0m/2024-11-26-14-13-15/
REMARK  0 active torsions:
REMARK  status: ('A' for Active; 'I' for Inactive)
REMARK                            x       y       z     vdW  Elec       q    Type
REMARK                         _______ _______ _______ _____ _____    ______ ____
ROOT
ATOM      1  C   UNL A   1     -24.324   1.791  26.274  0.00  0.00    +0.000 A 
ATOM      2  C   UNL A   1     -25.358   1.385  25.794  0.00  0.00    +0.000 A 
ATOM      3  C   UNL A   1     -26.372   2.263  25.427  0.00  0.00    +0.000 A 
ATOM      4  C   UNL A   1     -27.690   1.888  24.839  0.00  0.00    +0.001 A 
ATOM      5  C   UNL A   1     -27.848   0.516  24.484  0.00  0.00    +0.013 A 
ATOM      6  C   UNL A   1     -26.782  -0.347  24.811  0.00  0.00    +0.001 A 
ATOM      7  C   UNL A   1     -25.638   0.043  25.390  0.00  0.00    +0.000 A 
ATOM      8  C   UNL A   1     -23.841   1.010  27.441  0.00  0.00    +0.000 A 
ATOM      9  C   UNL A   1     -22.798   1.515  28.198  0.00  0.00    +0.000 A 
ATOM     10  C   UNL A   1     -22.148   0.708  29.097  0.00  0.00    +0.000 A 
ATOM     11  C   UNL A   1     -22.686  -0.585  29.325  0.00  0.00    +0.000 A 
ATOM     12  C   UNL A   1     -23.702  -1.062  28.584  0.00  0.00    +0.000 A 
ATOM     13  C   UNL A   1     -24.282  -0.305  27.578  0.00  0.00    +0.000 A 
ATOM     14  C   UNL A   1     -25.309  -0.782  26.610  0.00  0.00    +0.000 A 
ATOM     15  C   UNL A   1     -29.072   0.139  23.766  0.00  0.00    +0.085 A 
ATOM     16 CL   UNL A   1     -29.444  -1.389  23.741  0.00  0.00    -0.080 Cl
ATOM     17  C   UNL A   1     -29.984   1.063  23.198  0.00  0.00    +0.151 A 
ATOM     18  F   UNL A   1     -31.080   0.642  22.744  0.00  0.00    -0.203 F 
ATOM     19  C   UNL A   1     -29.719   2.461  23.301  0.00  0.00    +0.030 A 
ATOM     20  C   UNL A   1     -28.557   2.894  24.223  0.00  0.00    +0.002 A 
ENDROOT
TORSDOF 0
ENDMDL
ENDMDL
