REMARK  Name = No_3053-gen_results/8p0m/2024-11-26-14-13-15/
REMARK  0 active torsions:
REMARK  status: ('A' for Active; 'I' for Inactive)
REMARK                            x       y       z     vdW  Elec       q    Type
REMARK                         _______ _______ _______ _____ _____    ______ ____
ROOT
ATOM      1  C   UNL A   1     -28.016  -0.814  28.878  0.00  0.00    +0.000 A 
ATOM      2  C   UNL A   1     -27.064  -0.119  28.608  0.00  0.00    +0.000 A 
ATOM      3  C   UNL A   1     -25.792  -0.430  29.076  0.00  0.00    +0.000 A 
ATOM      4  C   UNL A   1     -24.546   0.349  28.823  0.00  0.00    +0.001 A 
ATOM      5  C   UNL A   1     -24.659   1.420  27.888  0.00  0.00    +0.013 A 
ATOM      6  C   UNL A   1     -25.947   1.681  27.379  0.00  0.00    +0.001 A 
ATOM      7  C   UNL A   1     -27.044   0.974  27.687  0.00  0.00    +0.000 A 
ATOM      8  C   UNL A   1     -29.236  -0.061  29.267  0.00  0.00    +0.000 A 
ATOM      9  C   UNL A   1     -30.306  -0.753  29.807  0.00  0.00    +0.000 A 
ATOM     10  C   UNL A   1     -31.532  -0.147  29.915  0.00  0.00    +0.000 A 
ATOM     11  C   UNL A   1     -31.609   1.236  29.607  0.00  0.00    +0.000 A 
ATOM     12  C   UNL A   1     -30.560   1.897  29.085  0.00  0.00    +0.000 A 
ATOM     13  C   UNL A   1     -29.352   1.262  28.844  0.00  0.00    +0.000 A 
ATOM     14  C   UNL A   1     -28.179   1.857  28.143  0.00  0.00    +0.000 A 
ATOM     15  C   UNL A   1     -23.423   2.113  27.500  0.00  0.00    +0.085 A 
ATOM     16 CL   UNL A   1     -23.578   3.521  26.817  0.00  0.00    -0.080 Cl
ATOM     17  C   UNL A   1     -22.118   1.649  27.799  0.00  0.00    +0.151 A 
ATOM     18  F   UNL A   1     -21.133   2.396  27.561  0.00  0.00    -0.203 F 
ATOM     19  C   UNL A   1     -21.957   0.424  28.511  0.00  0.00    +0.030 A 
ATOM     20  C   UNL A   1     -23.228  -0.218  29.110  0.00  0.00    +0.002 A 
ENDROOT
TORSDOF 0
