MODEL 3054
MODEL 1
REMARK VINA RESULT:    -4.344      0.000      0.000
REMARK INTER + INTRA:          -4.344
REMARK INTER:                  -4.344
REMARK INTRA:                   0.000
REMARK UNBOUND:                 0.000
REMARK  Name = No_3054-gen_results/8p0m/2024-11-26-14-13-15/
REMARK  0 active torsions:
REMARK  status: ('A' for Active; 'I' for Inactive)
REMARK                            x       y       z     vdW  Elec       q    Type
REMARK                         _______ _______ _______ _____ _____    ______ ____
ROOT
ATOM      1  C   UNL A   1     -25.006  -5.399  29.097  0.00  0.00    +0.000 A 
ATOM      2  C   UNL A   1     -24.236  -4.790  28.713  0.00  0.00    +0.000 A 
ATOM      3  C   UNL A   1     -26.147  -4.639  29.621  0.00  0.00    +0.000 A 
ATOM      4  C   UNL A   1     -26.120  -3.312  29.762  0.00  0.00    +0.000 A 
ATOM      5  C   UNL A   1     -23.979  -3.371  28.769  0.00  0.00    +0.000 A 
ATOM      6  C   UNL A   1     -25.040  -2.685  29.282  0.00  0.00    +0.000 A 
ENDROOT
TORSDOF 0
ENDMDL
ENDMDL
