REMARK  Name = No_3055-gen_results/8p0m/2024-11-26-14-13-15/
REMARK  4 active torsions:
REMARK  status: ('A' for Active; 'I' for Inactive)
REMARK    1  A    between atoms: C_3  and  C_7
REMARK    2  A    between atoms: C_7  and  P_8
REMARK    3  A    between atoms: P_8  and  O_10
REMARK    4  A    between atoms: P_8  and  O_11
REMARK                            x       y       z     vdW  Elec       q    Type
REMARK                         _______ _______ _______ _____ _____    ______ ____
ROOT
ATOM      1  C   UNL A   1     -26.408   0.307  27.226  0.00  0.00    +0.143 C 
ENDROOT
BRANCH   1   4
ATOM      2  C   UNL A   1     -28.016  -0.814  28.878  0.00  0.00    -0.004 A 
ATOM      3  C   UNL A   1     -28.469  -0.785  29.829  0.00  0.00    -0.000 A 
ATOM      4  C   UNL A   1     -27.136   0.236  28.535  0.00  0.00    -0.010 A 
ATOM      5  C   UNL A   1     -26.875   1.282  29.398  0.00  0.00    -0.004 A 
ATOM      6  C   UNL A   1     -27.507   1.238  30.630  0.00  0.00    -0.000 A 
ATOM      7  C   UNL A   1     -28.329   0.174  30.935  0.00  0.00    -0.000 A 
ENDBRANCH   1   4
BRANCH   1   8
ATOM      8  P   UNL A   1     -25.469   1.582  26.787  0.00  0.00    +0.358 P 
ATOM      9  O   UNL A   1     -26.065   2.480  26.041  0.00  0.00    -0.257 OA
BRANCH   8  10
ATOM     10  O   UNL A   1     -24.037   1.328  26.746  0.00  0.00    -0.291 OA
ATOM     11  C   UNL A   1     -23.253   0.942  27.864  0.00  0.00    +0.184 C 
ENDBRANCH   8  10
BRANCH   8  12
ATOM     12  O   UNL A   1     -25.400   2.425  28.337  0.00  0.00    -0.228 OA
ATOM     13 BR   UNL A   1     -25.824   2.686  29.038  0.00  0.00    +0.108 Br
ENDBRANCH   8  12
ENDBRANCH   1   8
TORSDOF 4
