MODEL 3055
MODEL 1
REMARK VINA RESULT:    -5.692      0.000      0.000
REMARK INTER + INTRA:          -7.302
REMARK INTER:                  -7.023
REMARK INTRA:                  -0.279
REMARK UNBOUND:                -0.279
REMARK  Name = No_3055-gen_results/8p0m/2024-11-26-14-13-15/
REMARK  4 active torsions:
REMARK  status: ('A' for Active; 'I' for Inactive)
REMARK    1  A    between atoms: C_3  and  C_7
REMARK    2  A    between atoms: C_7  and  P_8
REMARK    3  A    between atoms: P_8  and  O_10
REMARK    4  A    between atoms: P_8  and  O_11
REMARK                            x       y       z     vdW  Elec       q    Type
REMARK                         _______ _______ _______ _____ _____    ______ ____
ROOT
ATOM      1  C   UNL A   1     -23.903  -1.333  28.544  0.00  0.00    +0.143 C 
ENDROOT
BRANCH   1   4
ATOM      2  C   UNL A   1     -25.870  -2.603  29.589  0.00  0.00    -0.004 A 
ATOM      3  C   UNL A   1     -26.297  -3.539  29.817  0.00  0.00    -0.000 A 
ATOM      4  C   UNL A   1     -24.613  -2.592  28.945  0.00  0.00    -0.010 A 
ATOM      5  C   UNL A   1     -23.944  -3.758  28.628  0.00  0.00    -0.004 A 
ATOM      6  C   UNL A   1     -24.580  -4.943  28.957  0.00  0.00    -0.000 A 
ATOM      7  C   UNL A   1     -25.824  -4.906  29.552  0.00  0.00    -0.000 A 
ENDBRANCH   1   4
BRANCH   1   8
ATOM      8  P   UNL A   1     -22.634  -0.711  29.381  0.00  0.00    +0.358 P 
ATOM      9  O   UNL A   1     -21.469  -1.244  29.102  0.00  0.00    -0.257 OA
BRANCH   8  10
ATOM     10  O   UNL A   1     -22.956  -0.119  30.671  0.00  0.00    -0.291 OA
ATOM     11  C   UNL A   1     -23.070  -0.843  31.886  0.00  0.00    +0.184 C 
ENDBRANCH   8  10
BRANCH   8  12
ATOM     12  O   UNL A   1     -22.495   0.847  28.562  0.00  0.00    -0.228 OA
ATOM     13 BR   UNL A   1     -22.697   1.324  27.876  0.00  0.00    +0.108 Br
ENDBRANCH   8  12
ENDBRANCH   1   8
TORSDOF 4
ENDMDL
ENDMDL
