REMARK  Name = No_3056-gen_results/8p0m/2024-11-26-14-13-15/
REMARK  1 active torsions:
REMARK  status: ('A' for Active; 'I' for Inactive)
REMARK    1  A    between atoms: C_2  and  C_7
REMARK                            x       y       z     vdW  Elec       q    Type
REMARK                         _______ _______ _______ _____ _____    ______ ____
ROOT
ATOM      1  C   UNL A   1     -27.324   1.085  27.819  0.00  0.00    +0.249 C 
ATOM      2  N   UNL A   1     -27.641   1.112  26.708  0.00  0.00    -0.276 N 
ATOM      3  C   UNL A   1     -27.992  -0.006  26.087  0.00  0.00    +0.094 C 
ATOM      4  C   UNL A   1     -28.377   0.168  24.643  0.00  0.00    +0.022 C 
ATOM      5  C   UNL A   1     -27.774   2.332  25.888  0.00  0.00    +0.094 C 
ATOM      6  C   UNL A   1     -28.262   2.446  24.661  0.00  0.00    +0.022 C 
ATOM      7  C   UNL A   1     -28.467   1.278  23.965  0.00  0.00    +0.004 C 
ATOM      8  O   UNL A   1     -26.883   2.195  28.438  0.00  0.00    -0.270 OA
ENDROOT
BRANCH   1  10
ATOM      9  C   UNL A   1     -28.016  -0.814  28.878  0.00  0.00    +0.016 A 
ATOM     10  C   UNL A   1     -27.064  -0.119  28.608  0.00  0.00    +0.054 A 
ATOM     11  C   UNL A   1     -25.792  -0.430  29.076  0.00  0.00    +0.005 A 
ATOM     12  C   UNL A   1     -25.576  -1.565  29.936  0.00  0.00    +0.001 A 
ATOM     13  C   UNL A   1     -26.735  -2.300  30.217  0.00  0.00    +0.011 A 
ATOM     14  C   UNL A   1     -27.918  -1.954  29.763  0.00  0.00    +0.058 A 
ATOM     15 CL   UNL A   1     -29.296  -2.845  30.199  0.00  0.00    -0.082 Cl
ENDBRANCH   1  10
TORSDOF 1
