MODEL 3057
MODEL 1
REMARK VINA RESULT:    -5.731      0.000      0.000
REMARK INTER + INTRA:          -6.665
REMARK INTER:                  -6.401
REMARK INTRA:                  -0.264
REMARK UNBOUND:                -0.264
REMARK  Name = No_3057-gen_results/8p0m/2024-11-26-14-13-15/
REMARK  2 active torsions:
REMARK  status: ('A' for Active; 'I' for Inactive)
REMARK    1  A    between atoms: C_1  and  C_2
REMARK    2  A    between atoms: C_5  and  C_6
REMARK                            x       y       z     vdW  Elec       q    Type
REMARK                         _______ _______ _______ _____ _____    ______ ____
ROOT
ATOM      1  C   UNL A   1     -29.692 -10.836  30.186  0.00  0.00    +0.071 A 
ATOM      2  C   UNL A   1     -29.833 -10.060  31.319  0.00  0.00    +0.004 A 
ATOM      3  C   UNL A   1     -29.084 -10.218  32.552  0.00  0.00    +0.005 A 
ATOM      4  C   UNL A   1     -28.127 -11.254  32.637  0.00  0.00    +0.057 A 
ATOM      5  C   UNL A   1     -28.653 -11.912  30.277  0.00  0.00    +0.004 A 
ATOM      6  C   UNL A   1     -27.878 -12.120  31.464  0.00  0.00    +0.005 A 
ENDROOT
BRANCH   1   7
ATOM      7  C   UNL A   1     -30.290 -10.630  29.155  0.00  0.00    +0.419 C 
ATOM      8  F   UNL A   1     -30.618  -9.418  28.984  0.00  0.00    -0.166 F 
ATOM      9  F   UNL A   1     -31.380 -11.335  29.003  0.00  0.00    -0.166 F 
ATOM     10  F   UNL A   1     -29.470 -10.952  28.084  0.00  0.00    -0.166 F 
ENDBRANCH   1   7
BRANCH   4  11
ATOM     11  C   UNL A   1     -27.302 -11.516  33.757  0.00  0.00    +0.284 C 
ATOM     12  N   UNL A   1     -27.184 -10.702  34.799  0.00  0.00    -0.084 NA
ATOM     13  O   UNL A   1     -26.804 -12.715  33.876  0.00  0.00    -0.267 OA
ENDBRANCH   4  11
TORSDOF 2
ENDMDL
ENDMDL
