MODEL 3058
MODEL 1
REMARK VINA RESULT:    -6.311      0.000      0.000
REMARK INTER + INTRA:          -7.532
REMARK INTER:                  -7.049
REMARK INTRA:                  -0.483
REMARK UNBOUND:                -0.483
REMARK  Name = No_3058-gen_results/8p0m/2024-11-26-14-13-15/
REMARK  2 active torsions:
REMARK  status: ('A' for Active; 'I' for Inactive)
REMARK    1  A    between atoms: C_4  and  C_9
REMARK    2  A    between atoms: C_9  and  C_10
REMARK                            x       y       z     vdW  Elec       q    Type
REMARK                         _______ _______ _______ _____ _____    ______ ____
ROOT
ATOM      1  C   UNL A   1     -24.892   1.673  28.633  0.00  0.00    +0.036 C 
ATOM      2  C   UNL A   1     -24.122   1.829  27.931  0.00  0.00    +0.182 C 
ATOM      3  C   UNL A   1     -25.009   0.262  29.165  0.00  0.00    +0.003 C 
ATOM      4  C   UNL A   1     -23.865  -0.343  29.662  0.00  0.00    +0.007 C 
ATOM      5  C   UNL A   1     -22.626   1.531  28.302  0.00  0.00    +0.182 C 
ATOM      6  C   UNL A   1     -22.574   0.122  28.842  0.00  0.00    +0.036 C 
ATOM      7  O   UNL A   1     -21.664   1.589  27.317  0.00  0.00    -0.220 OA
ATOM      8  O   UNL A   1     -24.140   1.206  26.621  0.00  0.00    -0.220 OA
ENDROOT
BRANCH   4   9
ATOM      9  C   UNL A   1     -23.936  -1.823  29.831  0.00  0.00    +0.026 C 
BRANCH   9  10
ATOM     10  C   UNL A   1     -24.925  -2.543  29.194  0.00  0.00    -0.022 A 
ATOM     11  C   UNL A   1     -25.942  -3.230  29.754  0.00  0.00    -0.004 A 
ATOM     12  C   UNL A   1     -26.110  -4.730  29.650  0.00  0.00    -0.000 A 
ATOM     13  C   UNL A   1     -25.007  -5.447  29.069  0.00  0.00    -0.000 A 
ATOM     14  C   UNL A   1     -23.974  -4.672  28.534  0.00  0.00    -0.000 A 
ATOM     15  C   UNL A   1     -23.906  -3.319  28.569  0.00  0.00    -0.004 A 
ENDBRANCH   9  10
ENDBRANCH   4   9
TORSDOF 2
ENDMDL
ENDMDL
