REMARK  Name = No_3058-gen_results/8p0m/2024-11-26-14-13-15/
REMARK  2 active torsions:
REMARK  status: ('A' for Active; 'I' for Inactive)
REMARK    1  A    between atoms: C_4  and  C_9
REMARK    2  A    between atoms: C_9  and  C_10
REMARK                            x       y       z     vdW  Elec       q    Type
REMARK                         _______ _______ _______ _____ _____    ______ ____
ROOT
ATOM      1  C   UNL A   1     -28.016  -0.814  28.878  0.00  0.00    +0.036 C 
ATOM      2  C   UNL A   1     -28.469  -0.785  29.829  0.00  0.00    +0.182 C 
ATOM      3  C   UNL A   1     -26.504  -0.778  28.877  0.00  0.00    +0.003 C 
ATOM      4  C   UNL A   1     -25.831  -1.681  29.685  0.00  0.00    +0.007 C 
ATOM      5  C   UNL A   1     -28.149  -1.885  30.903  0.00  0.00    +0.182 C 
ATOM      6  C   UNL A   1     -26.646  -1.956  31.033  0.00  0.00    +0.036 C 
ATOM      7  O   UNL A   1     -28.627  -1.731  32.186  0.00  0.00    -0.220 OA
ATOM      8  O   UNL A   1     -28.374   0.379  30.689  0.00  0.00    -0.220 OA
ENDROOT
BRANCH   4   9
ATOM      9  C   UNL A   1     -24.392  -1.380  29.935  0.00  0.00    +0.026 C 
BRANCH   9  10
ATOM     10  C   UNL A   1     -24.030  -0.585  31.002  0.00  0.00    -0.022 A 
ATOM     11  C   UNL A   1     -24.835   0.139  31.807  0.00  0.00    -0.004 A 
ATOM     12  C   UNL A   1     -24.804   1.649  31.901  0.00  0.00    -0.000 A 
ATOM     13  C   UNL A   1     -23.984   2.322  30.930  0.00  0.00    -0.000 A 
ATOM     14  C   UNL A   1     -23.197   1.509  30.109  0.00  0.00    -0.000 A 
ATOM     15  C   UNL A   1     -23.189   0.153  30.119  0.00  0.00    -0.004 A 
ENDBRANCH   9  10
ENDBRANCH   4   9
TORSDOF 2
