MODEL 3059
MODEL 1
REMARK VINA RESULT:    -5.305      0.000      0.000
REMARK INTER + INTRA:          -6.239
REMARK INTER:                  -5.925
REMARK INTRA:                  -0.314
REMARK UNBOUND:                -0.314
REMARK  Name = No_3059-gen_results/8p0m/2024-11-26-14-13-15/
REMARK  2 active torsions:
REMARK  status: ('A' for Active; 'I' for Inactive)
REMARK    1  A    between atoms: C_2  and  O_12
REMARK    2  A    between atoms: C_4  and  C_7
REMARK                            x       y       z     vdW  Elec       q    Type
REMARK                         _______ _______ _______ _____ _____    ______ ____
ROOT
ATOM      1  C   UNL A   1     -26.860  -2.857  30.024  0.00  0.00    +0.037 A 
ATOM      2  C   UNL A   1     -26.566  -3.864  29.920  0.00  0.00    +0.139 A 
ATOM      3  C   UNL A   1     -25.829  -1.833  29.606  0.00  0.00    +0.003 A 
ATOM      4  C   UNL A   1     -24.636  -2.264  28.988  0.00  0.00    -0.004 A 
ATOM      5  C   UNL A   1     -25.426  -4.568  29.289  0.00  0.00    +0.037 A 
ATOM      6  C   UNL A   1     -24.459  -3.657  28.887  0.00  0.00    +0.003 A 
ENDROOT
BRANCH   4   7
ATOM      7  C   UNL A   1     -23.623  -1.347  28.591  0.00  0.00    -0.026 C 
ATOM      8  C   UNL A   1     -23.852  -0.157  28.222  0.00  0.00    -0.030 C 
ATOM      9  C   UNL A   1     -22.786   0.822  27.946  0.00  0.00    +0.026 C 
ATOM     10  C   UNL A   1     -22.389  -1.151  29.376  0.00  0.00    +0.026 C 
ATOM     11  C   UNL A   1     -21.832   0.229  28.767  0.00  0.00    +0.009 C 
ENDBRANCH   4   7
BRANCH   2  12
ATOM     12  O   UNL A   1     -27.550  -4.852  30.380  0.00  0.00    -0.471 OA
ATOM     13  C   UNL A   1     -28.651  -4.690  30.837  0.00  0.00    +0.253 C 
ENDBRANCH   2  12
TORSDOF 2
ENDMDL
ENDMDL
