REMARK  Name = No_3059-gen_results/8p0m/2024-11-26-14-13-15/
REMARK  2 active torsions:
REMARK  status: ('A' for Active; 'I' for Inactive)
REMARK    1  A    between atoms: C_2  and  O_12
REMARK    2  A    between atoms: C_4  and  C_7
REMARK                            x       y       z     vdW  Elec       q    Type
REMARK                         _______ _______ _______ _____ _____    ______ ____
ROOT
ATOM      1  C   UNL A   1     -28.016  -0.814  28.878  0.00  0.00    +0.037 A 
ATOM      2  C   UNL A   1     -28.469  -0.785  29.829  0.00  0.00    +0.139 A 
ATOM      3  C   UNL A   1     -26.504  -0.778  28.877  0.00  0.00    +0.003 A 
ATOM      4  C   UNL A   1     -25.810  -0.853  30.103  0.00  0.00    -0.004 A 
ATOM      5  C   UNL A   1     -27.991  -0.892  31.226  0.00  0.00    +0.037 A 
ATOM      6  C   UNL A   1     -26.604  -0.868  31.265  0.00  0.00    +0.003 A 
ENDROOT
BRANCH   4   7
ATOM      7  C   UNL A   1     -24.389  -0.805  30.164  0.00  0.00    -0.026 C 
ATOM      8  C   UNL A   1     -23.635  -0.862  29.147  0.00  0.00    -0.030 C 
ATOM      9  C   UNL A   1     -22.175  -0.673  29.213  0.00  0.00    +0.026 C 
ATOM     10  C   UNL A   1     -23.671   0.198  30.974  0.00  0.00    +0.026 C 
ATOM     11  C   UNL A   1     -22.183   0.098  30.371  0.00  0.00    +0.009 C 
ENDBRANCH   4   7
BRANCH   2  12
ATOM     12  O   UNL A   1     -29.938  -0.763  29.820  0.00  0.00    -0.471 OA
ATOM     13  C   UNL A   1     -30.724  -1.474  30.388  0.00  0.00    +0.253 C 
ENDBRANCH   2  12
TORSDOF 2
