MODEL 305
MODEL 1
REMARK VINA RESULT:    -6.003      0.000      0.000
REMARK INTER + INTRA:         -11.004
REMARK INTER:                  -8.109
REMARK INTRA:                  -2.895
REMARK UNBOUND:                -2.895
REMARK  Name = No_305-gen_results/8p0m/2024-11-26-14-13-15/
REMARK  6 active torsions:
REMARK  status: ('A' for Active; 'I' for Inactive)
REMARK    1  A    between atoms: C_2  and  C_14
REMARK    2  A    between atoms: C_4  and  C_5
REMARK    3  A    between atoms: C_5  and  C_8
REMARK    4  A    between atoms: C_9  and  O_17
REMARK    5  A    between atoms: O_17  and  C_18
REMARK    6  A    between atoms: C_18  and  C_19
REMARK                            x       y       z     vdW  Elec       q    Type
REMARK                         _______ _______ _______ _____ _____    ______ ____
ROOT
ATOM      1  C   UNL A   1     -24.370  -2.900  29.219  0.00  0.00    -0.002 C 
ATOM      2  C   UNL A   1     -25.399  -3.216  29.853  0.00  0.00    +0.131 C 
ATOM      3  C   UNL A   1     -26.079  -4.480  29.723  0.00  0.00    +0.032 C 
ATOM      4  C   UNL A   1     -25.329  -5.408  29.001  0.00  0.00    -0.019 C 
ATOM      5  C   UNL A   1     -23.923  -4.138  28.450  0.00  0.00    +0.051 C 
ENDROOT
BRANCH   1   6
ATOM      6  C   UNL A   1     -23.494  -1.790  29.390  0.00  0.00    +0.054 C 
BRANCH   6  10
ATOM      7  C   UNL A   1     -23.428   1.674  27.716  0.00  0.00    +0.036 A 
ATOM      8  C   UNL A   1     -24.180   1.494  27.001  0.00  0.00    +0.082 A 
ATOM      9  C   UNL A   1     -23.137   0.579  28.656  0.00  0.00    +0.137 A 
ATOM     10  C   UNL A   1     -23.753  -0.696  28.497  0.00  0.00    +0.009 A 
ATOM     11  C   UNL A   1     -24.912   0.292  26.551  0.00  0.00    +0.006 A 
ATOM     12  C   UNL A   1     -24.634  -0.842  27.385  0.00  0.00    -0.002 A 
ATOM     13  F   UNL A   1     -22.391   0.803  29.741  0.00  0.00    -0.204 F 
BRANCH   8  14
ATOM     14  C   UNL A   1     -24.502   2.686  25.945  0.00  0.00    +0.388 C 
ATOM     15  O   UNL A   1     -25.718   3.013  25.799  0.00  0.00    -0.241 OA
ATOM     16  O   UNL A   1     -23.564   3.248  25.407  0.00  0.00    -0.241 OA
ENDBRANCH   8  14
ENDBRANCH   6  10
ENDBRANCH   1   6
BRANCH   2  17
ATOM     17  O   UNL A   1     -26.150  -2.259  30.595  0.00  0.00    -0.471 OA
BRANCH  17  18
ATOM     18  C   UNL A   1     -27.329  -1.723  30.077  0.00  0.00    +0.232 C 
BRANCH  18  19
ATOM     19  C   UNL A   1     -27.180  -0.246  29.760  0.00  0.00    +0.021 A 
ATOM     20  C   UNL A   1     -26.418   0.497  30.412  0.00  0.00    -0.001 A 
ATOM     21  C   UNL A   1     -26.427   1.926  30.177  0.00  0.00    -0.000 A 
ATOM     22  C   UNL A   1     -27.143   2.377  29.121  0.00  0.00    -0.000 A 
ATOM     23  C   UNL A   1     -27.929   0.390  28.618  0.00  0.00    -0.001 A 
ATOM     24  C   UNL A   1     -27.892   1.618  28.333  0.00  0.00    -0.000 A 
ENDBRANCH  18  19
ENDBRANCH  17  18
ENDBRANCH   2  17
TORSDOF 6
ENDMDL
ENDMDL
