MODEL 3060
MODEL 1
REMARK VINA RESULT:    -7.165      0.000      0.000
REMARK INTER + INTRA:          -7.165
REMARK INTER:                  -7.165
REMARK INTRA:                   0.000
REMARK UNBOUND:                 0.000
REMARK  Name = No_3060-gen_results/8p0m/2024-11-26-14-13-15/
REMARK  0 active torsions:
REMARK  status: ('A' for Active; 'I' for Inactive)
REMARK                            x       y       z     vdW  Elec       q    Type
REMARK                         _______ _______ _______ _____ _____    ______ ____
ROOT
ATOM      1  C   UNL A   1     -22.429  -0.471  30.668  0.00  0.00    +0.000 A 
ATOM      2  C   UNL A   1     -22.864   0.443  30.006  0.00  0.00    +0.029 A 
ATOM      3  C   UNL A   1     -24.057   1.104  30.246  0.00  0.00    +0.066 A 
ATOM      4  C   UNL A   1     -24.812   0.686  31.381  0.00  0.00    +0.085 A 
ATOM      5  C   UNL A   1     -24.234  -0.219  32.187  0.00  0.00    +0.070 A 
ATOM      6  C   UNL A   1     -23.082  -0.757  31.904  0.00  0.00    +0.006 A 
ATOM      7  N   UNL A   1     -24.592   2.077  29.380  0.00  0.00    -0.284 N 
ATOM      8  C   UNL A   1     -24.085   2.261  28.174  0.00  0.00    +0.051 A 
ATOM      9  C   UNL A   1     -23.294   1.563  27.457  0.00  0.00    +0.028 A 
ATOM     10  C   UNL A   1     -22.771   1.810  26.155  0.00  0.00    -0.000 A 
ATOM     11  C   UNL A   1     -23.271   2.645  25.513  0.00  0.00    -0.000 A 
ATOM     12  C   UNL A   1     -24.741   3.298  27.268  0.00  0.00    +0.015 A 
ATOM     13  C   UNL A   1     -24.295   3.487  25.941  0.00  0.00    +0.001 A 
ATOM     14  C   UNL A   1     -22.314   0.702  28.516  0.00  0.00    +0.208 C 
ATOM     15  F   UNL A   1     -21.390   0.075  28.020  0.00  0.00    -0.227 F 
ATOM     16  C   UNL A   1     -24.942  -0.546  33.449  0.00  0.00    +0.252 C 
ATOM     17  O   UNL A   1     -24.477  -1.069  34.314  0.00  0.00    -0.270 OA
ATOM     18  N   UNL A   1     -26.321  -0.285  33.486  0.00  0.00    -0.256 N 
ATOM     19  C   UNL A   1     -25.954   2.539  29.701  0.00  0.00    +0.117 C 
ATOM     20  C   UNL A   1     -27.167  -0.659  34.597  0.00  0.00    +0.117 C 
ATOM     21  C   UNL A   1     -27.134   0.395  32.462  0.00  0.00    +0.209 C 
ATOM     22  N   UNL A   1     -26.151   1.068  31.512  0.00  0.00    -0.214 NA
ENDROOT
TORSDOF 0
ENDMDL
ENDMDL
