REMARK  Name = No_3060-gen_results/8p0m/2024-11-26-14-13-15/
REMARK  0 active torsions:
REMARK  status: ('A' for Active; 'I' for Inactive)
REMARK                            x       y       z     vdW  Elec       q    Type
REMARK                         _______ _______ _______ _____ _____    ______ ____
ROOT
ATOM      1  C   UNL A   1     -28.016  -0.814  28.878  0.00  0.00    +0.000 A 
ATOM      2  C   UNL A   1     -27.064  -0.119  28.608  0.00  0.00    +0.029 A 
ATOM      3  C   UNL A   1     -26.972   0.714  27.506  0.00  0.00    +0.066 A 
ATOM      4  C   UNL A   1     -28.105   0.774  26.642  0.00  0.00    +0.085 A 
ATOM      5  C   UNL A   1     -29.204   0.118  27.048  0.00  0.00    +0.070 A 
ATOM      6  C   UNL A   1     -29.213  -0.609  28.128  0.00  0.00    +0.006 A 
ATOM      7  N   UNL A   1     -25.799   1.410  27.155  0.00  0.00    -0.284 N 
ATOM      8  C   UNL A   1     -24.649   1.136  27.745  0.00  0.00    +0.051 A 
ATOM      9  C   UNL A   1     -24.264   0.159  28.469  0.00  0.00    +0.028 A 
ATOM     10  C   UNL A   1     -23.005  -0.089  29.088  0.00  0.00    -0.000 A 
ATOM     11  C   UNL A   1     -22.090   0.545  28.742  0.00  0.00    -0.000 A 
ATOM     12  C   UNL A   1     -23.406   1.892  27.286  0.00  0.00    +0.015 A 
ATOM     13  C   UNL A   1     -22.134   1.591  27.822  0.00  0.00    +0.001 A 
ATOM     14  C   UNL A   1     -25.626  -0.419  29.265  0.00  0.00    +0.208 C 
ATOM     15  F   UNL A   1     -25.440  -1.273  30.119  0.00  0.00    -0.227 F 
ATOM     16  C   UNL A   1     -30.433   0.298  26.237  0.00  0.00    +0.252 C 
ATOM     17  O   UNL A   1     -31.458   0.034  26.580  0.00  0.00    -0.270 OA
ATOM     18  N   UNL A   1     -30.258   0.712  24.906  0.00  0.00    -0.256 N 
ATOM     19  C   UNL A   1     -25.830   2.102  25.855  0.00  0.00    +0.117 C 
ATOM     20  C   UNL A   1     -31.346   0.815  23.960  0.00  0.00    +0.117 C 
ATOM     21  C   UNL A   1     -29.001   1.113  24.249  0.00  0.00    +0.209 C 
ATOM     22  N   UNL A   1     -27.984   1.327  25.363  0.00  0.00    -0.214 NA
ENDROOT
TORSDOF 0
