REMARK  Name = No_3061-gen_results/8p0m/2024-11-26-14-13-15/
REMARK  1 active torsions:
REMARK  status: ('A' for Active; 'I' for Inactive)
REMARK    1  A    between atoms: C_3  and  C_4
REMARK                            x       y       z     vdW  Elec       q    Type
REMARK                         _______ _______ _______ _____ _____    ______ ____
ROOT
ATOM      1  C   UNL A   1     -25.770   2.034  28.688  0.00  0.00    -0.026 C 
ATOM      2  C   UNL A   1     -24.714   1.443  27.919  0.00  0.00    -0.026 C 
ATOM      3  C   UNL A   1     -23.557   2.167  27.593  0.00  0.00    -0.005 C 
ATOM      4  C   UNL A   1     -24.959   2.614  29.797  0.00  0.00    +0.031 C 
ATOM      5  C   UNL A   1     -22.429   1.819  27.684  0.00  0.00    -0.001 C 
ATOM      6  C   UNL A   1     -22.066   0.598  28.328  0.00  0.00    -0.005 C 
ATOM      7  C   UNL A   1     -23.122  -0.368  28.521  0.00  0.00    -0.026 C 
ATOM      8  C   UNL A   1     -24.790   0.274  26.950  0.00  0.00    +0.031 C 
ATOM      9  C   UNL A   1     -24.256  -0.342  28.248  0.00  0.00    +0.031 C 
ENDROOT
BRANCH   1  12
ATOM     10  C   UNL A   1     -28.016  -0.814  28.878  0.00  0.00    -0.000 A 
ATOM     11  C   UNL A   1     -27.064  -0.119  28.608  0.00  0.00    -0.000 A 
ATOM     12  C   UNL A   1     -26.929   1.171  29.008  0.00  0.00    -0.004 A 
ATOM     13  C   UNL A   1     -29.091  -0.275  29.732  0.00  0.00    -0.000 A 
ATOM     14  C   UNL A   1     -29.050   0.987  30.143  0.00  0.00    -0.000 A 
ATOM     15  C   UNL A   1     -27.950   1.766  29.812  0.00  0.00    -0.000 A 
ENDBRANCH   1  12
TORSDOF 1
