MODEL 3061
MODEL 1
REMARK VINA RESULT:    -6.738      0.000      0.000
REMARK INTER + INTRA:          -7.592
REMARK INTER:                  -7.132
REMARK INTRA:                  -0.460
REMARK UNBOUND:                -0.460
REMARK  Name = No_3061-gen_results/8p0m/2024-11-26-14-13-15/
REMARK  1 active torsions:
REMARK  status: ('A' for Active; 'I' for Inactive)
REMARK    1  A    between atoms: C_3  and  C_4
REMARK                            x       y       z     vdW  Elec       q    Type
REMARK                         _______ _______ _______ _____ _____    ______ ____
ROOT
ATOM      1  C   UNL A   1     -23.765  -1.107  29.516  0.00  0.00    -0.026 C 
ATOM      2  C   UNL A   1     -24.332  -0.023  28.768  0.00  0.00    -0.026 C 
ATOM      3  C   UNL A   1     -23.695   1.226  28.700  0.00  0.00    -0.005 C 
ATOM      4  C   UNL A   1     -22.369  -1.049  28.996  0.00  0.00    +0.031 C 
ATOM      5  C   UNL A   1     -23.497   1.892  27.741  0.00  0.00    -0.001 C 
ATOM      6  C   UNL A   1     -23.753   1.411  26.422  0.00  0.00    -0.005 C 
ATOM      7  C   UNL A   1     -24.607   0.251  26.313  0.00  0.00    -0.026 C 
ATOM      8  C   UNL A   1     -25.785   0.201  28.381  0.00  0.00    +0.031 C 
ATOM      9  C   UNL A   1     -25.143  -0.396  27.123  0.00  0.00    +0.031 C 
ENDROOT
BRANCH   1  12
ATOM     10  C   UNL A   1     -26.320  -3.644  29.996  0.00  0.00    -0.000 A 
ATOM     11  C   UNL A   1     -25.731  -2.588  30.025  0.00  0.00    -0.000 A 
ATOM     12  C   UNL A   1     -24.498  -2.393  29.491  0.00  0.00    -0.004 A 
ATOM     13  C   UNL A   1     -25.713  -4.797  29.306  0.00  0.00    -0.000 A 
ATOM     14  C   UNL A   1     -24.497  -4.698  28.782  0.00  0.00    -0.000 A 
ATOM     15  C   UNL A   1     -23.839  -3.478  28.835  0.00  0.00    -0.000 A 
ENDBRANCH   1  12
TORSDOF 1
ENDMDL
ENDMDL
