REMARK  Name = No_3062-gen_results/8p0m/2024-11-26-14-13-15/
REMARK  8 active torsions:
REMARK  status: ('A' for Active; 'I' for Inactive)
REMARK    1  A    between atoms: C_4  and  C_14
REMARK    2  A    between atoms: C_5  and  C_6
REMARK    3  A    between atoms: C_12  and  C_17
REMARK    4  A    between atoms: C_14  and  O_16
REMARK    5  A    between atoms: O_16  and  C_20
REMARK    6  A    between atoms: C_21  and  O_22
REMARK    7  A    between atoms: O_22  and  C_23
REMARK    8  A    between atoms: C_30  and  C_33
REMARK                            x       y       z     vdW  Elec       q    Type
REMARK                         _______ _______ _______ _____ _____    ______ ____
ROOT
ATOM      1  C   UNL A   1     -25.557   3.380  28.883  0.00  0.00    +0.326 C 
ATOM      2  O   UNL A   1     -24.756   4.110  28.524  0.00  0.00    -0.249 OA
ENDROOT
BRANCH   1   6
ATOM      3  C   UNL A   1     -28.016  -0.814  28.878  0.00  0.00    -0.004 A 
ATOM      4  C   UNL A   1     -27.064  -0.119  28.608  0.00  0.00    -0.026 A 
ATOM      5  C   UNL A   1     -26.876   1.133  28.913  0.00  0.00    -0.015 A 
ATOM      6  C   UNL A   1     -25.688   1.952  28.567  0.00  0.00    +0.132 C 
ATOM      7  C   UNL A   1     -24.639   1.283  27.875  0.00  0.00    +0.118 C 
ATOM      8  C   UNL A   1     -25.843  -0.737  27.921  0.00  0.00    +0.027 C 
ATOM      9  C   UNL A   1     -24.690  -0.052  27.583  0.00  0.00    +0.017 C 
ATOM     10  C   UNL A   1     -28.547  -0.548  30.276  0.00  0.00    +0.006 A 
ATOM     11  C   UNL A   1     -28.714   0.779  30.638  0.00  0.00    +0.080 A 
ATOM     12  C   UNL A   1     -27.718   1.657  30.007  0.00  0.00    +0.003 A 
BRANCH   7  13
ATOM     13  C   UNL A   1     -23.456   2.000  27.565  0.00  0.00    +0.365 C 
ATOM     14  O   UNL A   1     -22.744   2.404  28.161  0.00  0.00    -0.246 OA
ATOM     15  O   UNL A   1     -23.284   2.086  26.163  0.00  0.00    -0.246 OA
ENDBRANCH   7  13
BRANCH  11  16
ATOM     16  C   UNL A   1     -29.538   1.210  31.689  0.00  0.00    +0.388 C 
ATOM     17  O   UNL A   1     -30.272   1.964  31.608  0.00  0.00    -0.241 OA
ATOM     18  O   UNL A   1     -29.006   0.849  32.898  0.00  0.00    -0.241 OA
ENDBRANCH  11  16
ENDBRANCH   1   6
BRANCH   1  19
ATOM     19  O   UNL A   1     -26.708   3.963  29.350  0.00  0.00    -0.421 OA
BRANCH  19  20
ATOM     20  C   UNL A   1     -26.959   5.263  29.031  0.00  0.00    +0.183 A 
ATOM     21  C   UNL A   1     -26.656   6.079  29.927  0.00  0.00    +0.184 A 
ATOM     22  C   UNL A   1     -27.857   5.467  27.992  0.00  0.00    +0.041 A 
ATOM     23  C   UNL A   1     -27.162   7.550  29.682  0.00  0.00    +0.094 A 
ATOM     24  C   UNL A   1     -27.698   7.810  28.516  0.00  0.00    +0.008 A 
ATOM     25  C   UNL A   1     -28.389   6.768  27.786  0.00  0.00    +0.004 A 
BRANCH  23  26
ATOM     26  C   UNL A   1     -26.661   8.644  30.582  0.00  0.00    +0.287 C 
ATOM     27  O   UNL A   1     -27.384   8.999  31.447  0.00  0.00    -0.267 OA
ATOM     28  N   UNL A   1     -25.436   9.075  30.432  0.00  0.00    -0.084 NA
ENDBRANCH  23  26
BRANCH  21  29
ATOM     29  O   UNL A   1     -26.751   5.777  31.146  0.00  0.00    -0.450 OA
BRANCH  29  30
ATOM     30  C   UNL A   1     -27.793   5.816  31.896  0.00  0.00    +0.145 A 
ATOM     31  C   UNL A   1     -27.576   6.243  33.257  0.00  0.00    +0.037 A 
ATOM     32  C   UNL A   1     -28.523   6.064  34.051  0.00  0.00    +0.003 A 
ATOM     33  C   UNL A   1     -28.528   4.485  32.027  0.00  0.00    +0.037 A 
ATOM     34  C   UNL A   1     -29.719   4.412  32.775  0.00  0.00    +0.003 A 
ATOM     35  C   UNL A   1     -29.303   4.807  34.204  0.00  0.00    +0.000 A 
ENDBRANCH  29  30
ENDBRANCH  21  29
ENDBRANCH  19  20
ENDBRANCH   1  19
TORSDOF 8
