MODEL 3062
MODEL 1
REMARK VINA RESULT:    -6.925      0.000      0.000
REMARK INTER + INTRA:         -13.889
REMARK INTER:                 -10.164
REMARK INTRA:                  -3.725
REMARK UNBOUND:                -3.725
REMARK  Name = No_3062-gen_results/8p0m/2024-11-26-14-13-15/
REMARK  8 active torsions:
REMARK  status: ('A' for Active; 'I' for Inactive)
REMARK    1  A    between atoms: C_4  and  C_14
REMARK    2  A    between atoms: C_5  and  C_6
REMARK    3  A    between atoms: C_12  and  C_17
REMARK    4  A    between atoms: C_14  and  O_16
REMARK    5  A    between atoms: O_16  and  C_20
REMARK    6  A    between atoms: C_21  and  O_22
REMARK    7  A    between atoms: O_22  and  C_23
REMARK    8  A    between atoms: C_30  and  C_33
REMARK                            x       y       z     vdW  Elec       q    Type
REMARK                         _______ _______ _______ _____ _____    ______ ____
ROOT
ATOM      1  C   UNL A   1     -25.157   0.226  25.710  0.00  0.00    +0.326 C 
ATOM      2  O   UNL A   1     -24.993  -0.328  24.726  0.00  0.00    -0.249 OA
ENDROOT
BRANCH   1   6
ATOM      3  C   UNL A   1     -22.964  -1.205  29.806  0.00  0.00    -0.004 A 
ATOM      4  C   UNL A   1     -23.143  -0.441  28.886  0.00  0.00    -0.026 A 
ATOM      5  C   UNL A   1     -24.011  -0.542  27.920  0.00  0.00    -0.015 A 
ATOM      6  C   UNL A   1     -24.204   0.422  26.809  0.00  0.00    +0.132 C 
ATOM      7  C   UNL A   1     -23.388   1.589  26.836  0.00  0.00    +0.118 C 
ATOM      8  C   UNL A   1     -22.372   0.881  28.836  0.00  0.00    +0.027 C 
ATOM      9  C   UNL A   1     -22.506   1.842  27.850  0.00  0.00    +0.017 C 
ATOM     10  C   UNL A   1     -24.266  -1.767  30.352  0.00  0.00    +0.006 A 
ATOM     11  C   UNL A   1     -25.184  -2.229  29.423  0.00  0.00    +0.080 A 
ATOM     12  C   UNL A   1     -25.134  -1.469  28.165  0.00  0.00    +0.003 A 
BRANCH   7  13
ATOM     13  C   UNL A   1     -23.564   2.572  25.830  0.00  0.00    +0.365 C 
ATOM     14  O   UNL A   1     -24.224   3.336  25.751  0.00  0.00    -0.246 OA
ATOM     15  O   UNL A   1     -22.586   2.425  24.819  0.00  0.00    -0.246 OA
ENDBRANCH   7  13
BRANCH  11  16
ATOM     16  C   UNL A   1     -26.228  -3.118  29.723  0.00  0.00    +0.388 C 
ATOM     17  O   UNL A   1     -26.170  -4.168  29.630  0.00  0.00    -0.241 OA
ATOM     18  O   UNL A   1     -27.429  -2.461  29.745  0.00  0.00    -0.241 OA
ENDBRANCH  11  16
ENDBRANCH   1   6
BRANCH   1  19
ATOM     19  O   UNL A   1     -26.471   0.407  26.063  0.00  0.00    -0.421 OA
BRANCH  19  20
ATOM     20  C   UNL A   1     -27.155   1.455  25.523  0.00  0.00    +0.183 A 
ATOM     21  C   UNL A   1     -27.588   2.272  26.363  0.00  0.00    +0.184 A 
ATOM     22  C   UNL A   1     -27.622   1.268  24.229  0.00  0.00    +0.041 A 
ATOM     23  C   UNL A   1     -28.584   3.347  25.788  0.00  0.00    +0.094 A 
ATOM     24  C   UNL A   1     -28.735   3.385  24.488  0.00  0.00    +0.008 A 
ATOM     25  C   UNL A   1     -28.576   2.179  23.703  0.00  0.00    +0.004 A 
BRANCH  23  26
ATOM     26  C   UNL A   1     -28.982   4.502  26.663  0.00  0.00    +0.287 C 
ATOM     27  O   UNL A   1     -28.189   5.368  26.800  0.00  0.00    -0.267 OA
ATOM     28  N   UNL A   1     -30.198   4.543  27.142  0.00  0.00    -0.084 NA
ENDBRANCH  23  26
BRANCH  21  29
ATOM     29  O   UNL A   1     -27.954   1.900  27.509  0.00  0.00    -0.450 OA
BRANCH  29  30
ATOM     30  C   UNL A   1     -27.441   2.206  28.646  0.00  0.00    +0.145 A 
ATOM     31  C   UNL A   1     -26.216   2.967  28.602  0.00  0.00    +0.037 A 
ATOM     32  C   UNL A   1     -25.589   3.070  29.677  0.00  0.00    +0.003 A 
ATOM     33  C   UNL A   1     -27.115   1.010  29.536  0.00  0.00    +0.037 A 
ATOM     34  C   UNL A   1     -26.603   1.219  30.831  0.00  0.00    +0.003 A 
ATOM     35  C   UNL A   1     -25.269   1.954  30.606  0.00  0.00    +0.000 A 
ENDBRANCH  29  30
ENDBRANCH  21  29
ENDBRANCH  19  20
ENDBRANCH   1  19
TORSDOF 8
ENDMDL
ENDMDL
