MODEL 3063
MODEL 1
REMARK VINA RESULT:    -4.273      0.000      0.000
REMARK INTER + INTRA:          -4.273
REMARK INTER:                  -4.273
REMARK INTRA:                   0.000
REMARK UNBOUND:                 0.000
REMARK  Name = No_3063-gen_results/8p0m/2024-11-26-14-13-15/
REMARK  0 active torsions:
REMARK  status: ('A' for Active; 'I' for Inactive)
REMARK                            x       y       z     vdW  Elec       q    Type
REMARK                         _______ _______ _______ _____ _____    ______ ____
ROOT
ATOM      1  C   UNL A   1     -26.074  -4.850  29.655  0.00  0.00    +0.000 A 
ATOM      2  C   UNL A   1     -26.212  -3.651  29.716  0.00  0.00    +0.000 A 
ATOM      3  C   UNL A   1     -25.246  -2.748  29.317  0.00  0.00    +0.000 A 
ATOM      4  C   UNL A   1     -24.038  -3.264  28.768  0.00  0.00    +0.000 A 
ATOM      5  C   UNL A   1     -24.001  -4.601  28.563  0.00  0.00    +0.000 A 
ATOM      6  C   UNL A   1     -24.992  -5.386  28.940  0.00  0.00    +0.000 A 
ENDROOT
TORSDOF 0
ENDMDL
ENDMDL
