MODEL 3064
MODEL 1
REMARK VINA RESULT:    -7.728      0.000      0.000
REMARK INTER + INTRA:         -11.905
REMARK INTER:                 -11.342
REMARK INTRA:                  -0.563
REMARK UNBOUND:                -0.563
REMARK  Name = No_3064-gen_results/8p0m/2024-11-26-14-13-15/
REMARK  8 active torsions:
REMARK  status: ('A' for Active; 'I' for Inactive)
REMARK    1  A    between atoms: C_2  and  C_10
REMARK    2  A    between atoms: C_4  and  O_15
REMARK    3  A    between atoms: C_5  and  C_7
REMARK    4  A    between atoms: C_7  and  O_8
REMARK    5  A    between atoms: O_8  and  C_17
REMARK    6  A    between atoms: C_17  and  C_18
REMARK    7  A    between atoms: C_18  and  C_19
REMARK    8  A    between atoms: C_19  and  C_20
REMARK                            x       y       z     vdW  Elec       q    Type
REMARK                         _______ _______ _______ _____ _____    ______ ____
ROOT
ATOM      1  C   UNL A   1     -22.991   1.998  27.503  0.00  0.00    +0.344 C 
ATOM      2  O   UNL A   1     -21.844   1.905  26.897  0.00  0.00    -0.245 OA
ENDROOT
BRANCH   1   7
ATOM      3  C   UNL A   1     -26.005   1.305  25.395  0.00  0.00    +0.062 A 
ATOM      4  C   UNL A   1     -26.569   2.371  25.478  0.00  0.00    +0.085 A 
ATOM      5  C   UNL A   1     -26.150   3.436  26.257  0.00  0.00    +0.042 A 
ATOM      6  C   UNL A   1     -24.941   3.264  26.994  0.00  0.00    +0.145 A 
ATOM      7  C   UNL A   1     -24.261   2.122  26.761  0.00  0.00    +0.110 A 
ATOM      8  C   UNL A   1     -24.715   1.193  25.918  0.00  0.00    +0.021 A 
ATOM      9 CL   UNL A   1     -26.516  -0.048  24.369  0.00  0.00    -0.082 Cl
BRANCH   4  10
ATOM     10  C   UNL A   1     -28.000   2.611  24.814  0.00  0.00    +0.419 C 
ATOM     11  F   UNL A   1     -28.534   3.636  25.075  0.00  0.00    -0.166 F 
ATOM     12  F   UNL A   1     -28.850   1.596  25.266  0.00  0.00    -0.166 F 
ATOM     13  F   UNL A   1     -27.993   2.381  23.473  0.00  0.00    -0.166 F 
ENDBRANCH   4  10
BRANCH   6  14
ATOM     14  O   UNL A   1     -24.578   4.286  27.710  0.00  0.00    -0.471 OA
ATOM     15  C   UNL A   1     -24.817   5.423  27.164  0.00  0.00    +0.253 C 
ENDBRANCH   6  14
ENDBRANCH   1   7
BRANCH   1  16
ATOM     16  O   UNL A   1     -23.032   1.729  28.575  0.00  0.00    -0.453 OA
BRANCH  16  17
ATOM     17  C   UNL A   1     -22.889   0.368  29.077  0.00  0.00    +0.137 C 
ATOM     18  C   UNL A   1     -23.181   0.505  30.589  0.00  0.00    +0.044 C 
ATOM     19  C   UNL A   1     -21.410  -0.070  28.910  0.00  0.00    +0.044 C 
BRANCH  17  20
ATOM     20  C   UNL A   1     -23.716  -0.578  28.390  0.00  0.00    +0.045 C 
BRANCH  20  21
ATOM     21  C   UNL A   1     -24.598  -1.230  29.357  0.00  0.00    +0.030 C 
BRANCH  21  22
ATOM     22  C   UNL A   1     -24.859  -2.516  29.195  0.00  0.00    -0.022 A 
ATOM     23  C   UNL A   1     -25.985  -3.112  29.671  0.00  0.00    -0.004 A 
ATOM     24  C   UNL A   1     -26.148  -4.551  29.603  0.00  0.00    -0.000 A 
ATOM     25  C   UNL A   1     -25.090  -5.276  28.956  0.00  0.00    -0.000 A 
ATOM     26  C   UNL A   1     -24.143  -4.783  28.695  0.00  0.00    -0.000 A 
ATOM     27  C   UNL A   1     -23.790  -3.358  28.717  0.00  0.00    -0.004 A 
ENDBRANCH  21  22
ENDBRANCH  20  21
ENDBRANCH  17  20
ENDBRANCH  16  17
ENDBRANCH   1  16
TORSDOF 8
ENDMDL
ENDMDL
