REMARK  Name = No_3064-gen_results/8p0m/2024-11-26-14-13-15/
REMARK  8 active torsions:
REMARK  status: ('A' for Active; 'I' for Inactive)
REMARK    1  A    between atoms: C_2  and  C_10
REMARK    2  A    between atoms: C_4  and  O_15
REMARK    3  A    between atoms: C_5  and  C_7
REMARK    4  A    between atoms: C_7  and  O_8
REMARK    5  A    between atoms: O_8  and  C_17
REMARK    6  A    between atoms: C_17  and  C_18
REMARK    7  A    between atoms: C_18  and  C_19
REMARK    8  A    between atoms: C_19  and  C_20
REMARK                            x       y       z     vdW  Elec       q    Type
REMARK                         _______ _______ _______ _____ _____    ______ ____
ROOT
ATOM      1  C   UNL A   1     -30.370   0.226  26.160  0.00  0.00    +0.344 C 
ATOM      2  O   UNL A   1     -30.561   1.274  25.413  0.00  0.00    -0.245 OA
ENDROOT
BRANCH   1   7
ATOM      3  C   UNL A   1     -28.016  -0.814  28.878  0.00  0.00    +0.062 A 
ATOM      4  C   UNL A   1     -27.064  -0.119  28.608  0.00  0.00    +0.085 A 
ATOM      5  C   UNL A   1     -26.972   0.714  27.506  0.00  0.00    +0.042 A 
ATOM      6  C   UNL A   1     -28.105   0.774  26.642  0.00  0.00    +0.145 A 
ATOM      7  C   UNL A   1     -29.201   0.104  27.053  0.00  0.00    +0.110 A 
ATOM      8  C   UNL A   1     -29.210  -0.603  28.185  0.00  0.00    +0.021 A 
ATOM      9 CL   UNL A   1     -28.155  -1.853  30.308  0.00  0.00    -0.082 Cl
BRANCH   4  10
ATOM     10  C   UNL A   1     -25.697  -0.225  29.424  0.00  0.00    +0.419 C 
ATOM     11  F   UNL A   1     -25.558  -1.194  30.092  0.00  0.00    -0.166 F 
ATOM     12  F   UNL A   1     -25.640   0.868  30.296  0.00  0.00    -0.166 F 
ATOM     13  F   UNL A   1     -24.608  -0.002  28.639  0.00  0.00    -0.166 F 
ENDBRANCH   4  10
BRANCH   6  14
ATOM     14  O   UNL A   1     -27.982   1.569  25.621  0.00  0.00    -0.471 OA
ATOM     15  C   UNL A   1     -27.143   1.164  24.737  0.00  0.00    +0.253 C 
ENDBRANCH   6  14
ENDBRANCH   1   7
BRANCH   1  16
ATOM     16  O   UNL A   1     -31.221  -0.463  26.310  0.00  0.00    -0.453 OA
BRANCH  16  17
ATOM     17  C   UNL A   1     -31.910  -1.151  25.225  0.00  0.00    +0.137 C 
ATOM     18  C   UNL A   1     -30.970  -2.331  24.887  0.00  0.00    +0.044 C 
ATOM     19  C   UNL A   1     -31.962  -0.209  23.994  0.00  0.00    +0.044 C 
BRANCH  17  20
ATOM     20  C   UNL A   1     -33.251  -1.529  25.556  0.00  0.00    +0.045 C 
BRANCH  20  21
ATOM     21  C   UNL A   1     -33.394  -1.553  27.011  0.00  0.00    +0.030 C 
BRANCH  21  22
ATOM     22  C   UNL A   1     -33.713  -0.426  27.625  0.00  0.00    -0.022 A 
ATOM     23  C   UNL A   1     -34.293   0.628  26.991  0.00  0.00    -0.004 A 
ATOM     24  C   UNL A   1     -34.478   1.893  27.673  0.00  0.00    -0.000 A 
ATOM     25  C   UNL A   1     -34.072   1.933  29.050  0.00  0.00    -0.000 A 
ATOM     26  C   UNL A   1     -33.497   1.110  29.495  0.00  0.00    -0.000 A 
ATOM     27  C   UNL A   1     -33.193  -0.222  28.955  0.00  0.00    -0.004 A 
ENDBRANCH  21  22
ENDBRANCH  20  21
ENDBRANCH  17  20
ENDBRANCH  16  17
ENDBRANCH   1  16
TORSDOF 8
