REMARK  Name = No_3065-gen_results/8p0m/2024-11-26-14-13-15/
REMARK  8 active torsions:
REMARK  status: ('A' for Active; 'I' for Inactive)
REMARK    1  A    between atoms: C_1  and  C_2
REMARK    2  A    between atoms: C_4  and  C_18
REMARK    3  A    between atoms: C_6  and  C_7
REMARK    4  A    between atoms: C_7  and  C_12
REMARK    5  A    between atoms: C_12  and  C_13
REMARK    6  A    between atoms: C_18  and  C_19
REMARK    7  A    between atoms: C_18  and  C_26
REMARK    8  A    between atoms: C_19  and  C_20
REMARK                            x       y       z     vdW  Elec       q    Type
REMARK                         _______ _______ _______ _____ _____    ______ ____
ROOT
ATOM      1  C   UNL A   1     -28.016  -0.814  28.878  0.00  0.00    +0.071 A 
ATOM      2  C   UNL A   1     -28.182   0.428  28.113  0.00  0.00    -0.000 A 
ATOM      3  C   UNL A   1     -27.450   0.643  26.850  0.00  0.00    -0.018 A 
ATOM      4  C   UNL A   1     -26.181   0.036  26.715  0.00  0.00    -0.008 A 
ATOM      5  C   UNL A   1     -25.780  -0.933  27.694  0.00  0.00    -0.022 A 
ATOM      6  C   UNL A   1     -26.665  -1.238  28.794  0.00  0.00    -0.000 A 
ENDROOT
BRANCH   1   7
ATOM      7  C   UNL A   1     -28.469  -0.785  29.829  0.00  0.00    +0.419 C 
ATOM      8  F   UNL A   1     -28.462  -2.028  30.476  0.00  0.00    -0.166 F 
ATOM      9  F   UNL A   1     -29.962  -0.728  29.736  0.00  0.00    -0.166 F 
ATOM     10  F   UNL A   1     -28.250   0.030  30.827  0.00  0.00    -0.166 F 
ENDBRANCH   1   7
BRANCH   5  11
ATOM     11  C   UNL A   1     -24.466  -1.464  27.689  0.00  0.00    +0.031 C 
BRANCH  11  12
ATOM     12  C   UNL A   1     -23.461  -0.648  28.531  0.00  0.00    +0.027 C 
BRANCH  12  13
ATOM     13  C   UNL A   1     -23.096   0.590  28.165  0.00  0.00    -0.040 C 
ATOM     14  C   UNL A   1     -22.156   1.083  27.868  0.00  0.00    -0.009 C 
ATOM     15  C   UNL A   1     -21.966   2.494  27.465  0.00  0.00    -0.005 C 
ATOM     16  C   UNL A   1     -23.243   3.065  27.295  0.00  0.00    -0.022 C 
ATOM     17  C   UNL A   1     -24.232   1.618  27.840  0.00  0.00    +0.048 C 
ENDBRANCH  12  13
ENDBRANCH  11  12
ENDBRANCH   5  11
BRANCH   3  18
ATOM     18  C   UNL A   1     -27.882   1.678  25.976  0.00  0.00    +0.048 C 
BRANCH  18  19
ATOM     19  C   UNL A   1     -27.918   3.042  26.285  0.00  0.00    -0.026 C 
ATOM     20  C   UNL A   1     -26.899   3.639  26.857  0.00  0.00    -0.030 C 
ATOM     21  C   UNL A   1     -26.842   5.019  27.196  0.00  0.00    +0.030 C 
ENDBRANCH  18  19
BRANCH  18  22
ATOM     22  C   UNL A   1     -28.217   1.197  24.774  0.00  0.00    +0.035 C 
BRANCH  22  23
ATOM     23  C   UNL A   1     -29.342   0.442  24.698  0.00  0.00    -0.021 A 
ATOM     24  C   UNL A   1     -29.554  -0.558  23.960  0.00  0.00    -0.004 A 
ATOM     25  C   UNL A   1     -30.111  -1.808  24.001  0.00  0.00    -0.000 A 
ATOM     26  C   UNL A   1     -31.083  -1.884  25.080  0.00  0.00    -0.000 A 
ATOM     27  C   UNL A   1     -31.143  -0.737  25.977  0.00  0.00    -0.000 A 
ATOM     28  C   UNL A   1     -30.241   0.319  25.868  0.00  0.00    -0.004 A 
ENDBRANCH  22  23
ENDBRANCH  18  22
ENDBRANCH   3  18
TORSDOF 8
