MODEL 3066
MODEL 1
REMARK VINA RESULT:    -5.881      0.000      0.000
REMARK INTER + INTRA:          -7.881
REMARK INTER:                  -7.256
REMARK INTRA:                  -0.625
REMARK UNBOUND:                -0.625
REMARK  Name = No_3066-gen_results/8p0m/2024-11-26-14-13-15/
REMARK  4 active torsions:
REMARK  status: ('A' for Active; 'I' for Inactive)
REMARK    1  A    between atoms: C_1  and  C_2
REMARK    2  A    between atoms: C_5  and  C_10
REMARK    3  A    between atoms: C_10  and  N_11
REMARK    4  A    between atoms: C_10  and  C_12
REMARK                            x       y       z     vdW  Elec       q    Type
REMARK                         _______ _______ _______ _____ _____    ______ ____
ROOT
ATOM      1  C   UNL A   1     -19.256 -20.051   6.348  0.00  0.00    -0.003 A 
ATOM      2  C   UNL A   1     -19.870 -20.817   7.285  0.00  0.00    -0.003 A 
ATOM      3  C   UNL A   1     -19.168 -21.711   8.233  0.00  0.00    -0.003 A 
ATOM      4  C   UNL A   1     -17.739 -21.776   8.126  0.00  0.00    -0.005 A 
ATOM      5  C   UNL A   1     -17.144 -21.019   7.092  0.00  0.00    -0.003 A 
ATOM      6  C   UNL A   1     -17.861 -20.211   6.248  0.00  0.00    -0.003 A 
ENDROOT
BRANCH   1   7
ATOM      7  C   UNL A   1     -19.842 -19.326   5.578  0.00  0.00    +0.117 C 
ATOM      8  N   UNL A   1     -20.252 -18.194   5.970  0.00  0.00    -0.203 NA
ATOM      9  C   UNL A   1     -21.316 -17.549   5.332  0.00  0.00    +0.242 C 
ATOM     10  C   UNL A   1     -21.889 -18.209   4.255  0.00  0.00    +0.087 C 
ATOM     11  C   UNL A   1     -21.558 -19.506   3.892  0.00  0.00    +0.012 C 
ATOM     12  C   UNL A   1     -20.681 -20.131   4.642  0.00  0.00    +0.027 C 
ATOM     13  O   UNL A   1     -21.566 -16.335   5.567  0.00  0.00    -0.273 OA
ENDBRANCH   1   7
BRANCH   4  14
ATOM     14  C   UNL A   1     -16.944 -22.634   8.957  0.00  0.00    +0.114 C 
BRANCH  14  15
ATOM     15  N   UNL A   1     -16.977 -23.148   9.860  0.00  0.00    -0.212 NA
ATOM     16  C   UNL A   1     -17.300 -24.354  10.058  0.00  0.00    +0.108 C 
ENDBRANCH  14  15
BRANCH  14  17
ATOM     17  C   UNL A   1     -15.433 -22.625   8.465  0.00  0.00    +0.131 C 
ATOM     18  N   UNL A   1     -14.447 -22.134   9.234  0.00  0.00    -0.130 NA
ENDBRANCH  14  17
ENDBRANCH   4  14
TORSDOF 4
ENDMDL
ENDMDL
