REMARK  Name = No_3066-gen_results/8p0m/2024-11-26-14-13-15/
REMARK  4 active torsions:
REMARK  status: ('A' for Active; 'I' for Inactive)
REMARK    1  A    between atoms: C_1  and  C_2
REMARK    2  A    between atoms: C_5  and  C_10
REMARK    3  A    between atoms: C_10  and  N_11
REMARK    4  A    between atoms: C_10  and  C_12
REMARK                            x       y       z     vdW  Elec       q    Type
REMARK                         _______ _______ _______ _____ _____    ______ ____
ROOT
ATOM      1  C   UNL A   1     -27.064  -0.119  28.608  0.00  0.00    -0.003 A 
ATOM      2  C   UNL A   1     -26.929   1.171  29.008  0.00  0.00    -0.003 A 
ATOM      3  C   UNL A   1     -25.770   2.034  28.688  0.00  0.00    -0.003 A 
ATOM      4  C   UNL A   1     -24.714   1.443  27.919  0.00  0.00    -0.005 A 
ATOM      5  C   UNL A   1     -24.859   0.078  27.584  0.00  0.00    -0.003 A 
ATOM      6  C   UNL A   1     -25.965  -0.661  27.916  0.00  0.00    -0.003 A 
ENDROOT
BRANCH   1   7
ATOM      7  C   UNL A   1     -28.016  -0.814  28.878  0.00  0.00    +0.117 C 
ATOM      8  N   UNL A   1     -29.170  -0.298  28.947  0.00  0.00    -0.203 NA
ATOM      9  C   UNL A   1     -30.184  -0.892  29.705  0.00  0.00    +0.242 C 
ATOM     10  C   UNL A   1     -29.860  -2.067  30.368  0.00  0.00    +0.087 C 
ATOM     11  C   UNL A   1     -28.572  -2.578  30.427  0.00  0.00    +0.012 C 
ATOM     12  C   UNL A   1     -27.624  -1.878  29.849  0.00  0.00    +0.027 C 
ATOM     13  O   UNL A   1     -31.382  -0.515  29.584  0.00  0.00    -0.273 OA
ENDBRANCH   1   7
BRANCH   4  14
ATOM     14  C   UNL A   1     -23.518   2.158  27.578  0.00  0.00    +0.114 C 
BRANCH  14  15
ATOM     15  N   UNL A   1     -23.136   2.806  26.861  0.00  0.00    -0.212 NA
ATOM     16  C   UNL A   1     -22.467   2.516  25.827  0.00  0.00    +0.108 C 
ENDBRANCH  14  15
BRANCH  14  17
ATOM     17  C   UNL A   1     -22.294   1.617  28.435  0.00  0.00    +0.131 C 
ATOM     18  N   UNL A   1     -22.470   0.733  29.431  0.00  0.00    -0.130 NA
ENDBRANCH  14  17
ENDBRANCH   4  14
TORSDOF 4
