REMARK  Name = No_3067-gen_results/8p0m/2024-11-26-14-13-15/
REMARK  3 active torsions:
REMARK  status: ('A' for Active; 'I' for Inactive)
REMARK    1  A    between atoms: C_2  and  C_5
REMARK    2  A    between atoms: C_3  and  C_10
REMARK    3  A    between atoms: C_10  and  C_11
REMARK                            x       y       z     vdW  Elec       q    Type
REMARK                         _______ _______ _______ _____ _____    ______ ____
ROOT
ATOM      1  C   UNL A   1     -28.016  -0.814  28.878  0.00  0.00    +0.003 A 
ATOM      2  C   UNL A   1     -28.469  -0.785  29.829  0.00  0.00    +0.080 A 
ATOM      3  C   UNL A   1     -26.504  -0.778  28.877  0.00  0.00    -0.018 A 
ATOM      4  C   UNL A   1     -25.810  -0.853  30.103  0.00  0.00    -0.004 A 
ATOM      5  C   UNL A   1     -26.567  -0.885  31.252  0.00  0.00    -0.000 A 
ATOM      6  C   UNL A   1     -27.941  -0.907  31.185  0.00  0.00    +0.007 A 
ENDROOT
BRANCH   2   7
ATOM      7  C   UNL A   1     -30.014  -0.841  29.851  0.00  0.00    +0.388 C 
ATOM      8  O   UNL A   1     -30.649  -0.057  30.676  0.00  0.00    -0.241 OA
ATOM      9  O   UNL A   1     -30.599  -1.862  29.354  0.00  0.00    -0.241 OA
ENDBRANCH   2   7
BRANCH   3  10
ATOM     10  C   UNL A   1     -25.645  -0.715  27.669  0.00  0.00    +0.053 C 
BRANCH  10  11
ATOM     11  C   UNL A   1     -25.924   0.360  26.752  0.00  0.00    -0.018 A 
ATOM     12  C   UNL A   1     -24.994   0.679  25.852  0.00  0.00    -0.008 A 
ATOM     13  C   UNL A   1     -24.188   1.630  25.716  0.00  0.00    -0.022 A 
ATOM     14  C   UNL A   1     -22.881   1.692  25.220  0.00  0.00    +0.031 C 
ATOM     15  C   UNL A   1     -24.589   2.978  26.425  0.00  0.00    -0.004 A 
ATOM     16  C   UNL A   1     -25.512   3.005  27.364  0.00  0.00    -0.001 A 
ATOM     17  C   UNL A   1     -26.191   1.619  27.610  0.00  0.00    -0.004 A 
ENDBRANCH  10  11
ENDBRANCH   3  10
TORSDOF 3
