MODEL 3067
MODEL 1
REMARK VINA RESULT:    -7.415      0.000      0.000
REMARK INTER + INTRA:          -9.244
REMARK INTER:                  -8.716
REMARK INTRA:                  -0.529
REMARK UNBOUND:                -0.529
REMARK  Name = No_3067-gen_results/8p0m/2024-11-26-14-13-15/
REMARK  3 active torsions:
REMARK  status: ('A' for Active; 'I' for Inactive)
REMARK    1  A    between atoms: C_2  and  C_5
REMARK    2  A    between atoms: C_3  and  C_10
REMARK    3  A    between atoms: C_10  and  C_11
REMARK                            x       y       z     vdW  Elec       q    Type
REMARK                         _______ _______ _______ _____ _____    ______ ____
ROOT
ATOM      1  C   UNL A   1     -25.736  -2.612  29.708  0.00  0.00    +0.003 A 
ATOM      2  C   UNL A   1     -26.252  -3.515  29.881  0.00  0.00    +0.080 A 
ATOM      3  C   UNL A   1     -24.354  -2.757  29.113  0.00  0.00    -0.018 A 
ATOM      4  C   UNL A   1     -23.908  -4.031  28.702  0.00  0.00    -0.004 A 
ATOM      5  C   UNL A   1     -24.748  -5.096  28.936  0.00  0.00    -0.000 A 
ATOM      6  C   UNL A   1     -25.991  -4.898  29.490  0.00  0.00    +0.007 A 
ENDROOT
BRANCH   2   7
ATOM      7  C   UNL A   1     -27.675  -3.387  30.471  0.00  0.00    +0.388 C 
ATOM      8  O   UNL A   1     -28.609  -4.168  30.006  0.00  0.00    -0.241 OA
ATOM      9  O   UNL A   1     -27.983  -2.322  31.106  0.00  0.00    -0.241 OA
ENDBRANCH   2   7
BRANCH   3  10
ATOM     10  C   UNL A   1     -23.402  -1.646  28.867  0.00  0.00    +0.053 C 
BRANCH  10  11
ATOM     11  C   UNL A   1     -23.989  -0.352  28.633  0.00  0.00    -0.018 A 
ATOM     12  C   UNL A   1     -24.755  -0.193  27.554  0.00  0.00    -0.008 A 
ATOM     13  C   UNL A   1     -24.614   0.384  26.450  0.00  0.00    -0.022 A 
ATOM     14  C   UNL A   1     -25.059   0.070  25.161  0.00  0.00    +0.031 C 
ATOM     15  C   UNL A   1     -23.565   1.558  26.417  0.00  0.00    -0.004 A 
ATOM     16  C   UNL A   1     -22.666   1.695  27.369  0.00  0.00    -0.001 A 
ATOM     17  C   UNL A   1     -22.820   0.655  28.525  0.00  0.00    -0.004 A 
ENDBRANCH  10  11
ENDBRANCH   3  10
TORSDOF 3
ENDMDL
ENDMDL
