MODEL 3068
MODEL 1
REMARK VINA RESULT:    -6.427      0.000      0.000
REMARK INTER + INTRA:          -6.982
REMARK INTER:                  -6.802
REMARK INTRA:                  -0.179
REMARK UNBOUND:                -0.179
REMARK  Name = No_3068-gen_results/8p0m/2024-11-26-14-13-15/
REMARK  1 active torsions:
REMARK  status: ('A' for Active; 'I' for Inactive)
REMARK    1  A    between atoms: C_9  and  C_11
REMARK                            x       y       z     vdW  Elec       q    Type
REMARK                         _______ _______ _______ _____ _____    ______ ____
ROOT
ATOM      1  C   UNL A   1     -26.543  -3.179  30.077  0.00  0.00    -0.000 A 
ATOM      2  C   UNL A   1     -25.558  -2.495  29.927  0.00  0.00    -0.000 A 
ATOM      3  C   UNL A   1     -24.369  -2.966  29.472  0.00  0.00    -0.000 A 
ATOM      4  C   UNL A   1     -24.270  -4.334  29.153  0.00  0.00    -0.000 A 
ATOM      5  C   UNL A   1     -26.542  -4.565  29.681  0.00  0.00    -0.000 A 
ATOM      6  C   UNL A   1     -25.364  -5.094  29.245  0.00  0.00    -0.000 A 
ATOM      7  C   UNL A   1     -25.546  -1.006  30.228  0.00  0.00    -0.000 A 
ATOM      8  C   UNL A   1     -24.809  -0.159  29.311  0.00  0.00    +0.004 A 
ATOM      9  C   UNL A   1     -23.479  -0.524  29.066  0.00  0.00    +0.071 A 
ATOM     10  C   UNL A   1     -23.370  -2.058  28.879  0.00  0.00    +0.004 A 
ENDROOT
BRANCH   9  11
ATOM     11  C   UNL A   1     -22.520   0.349  28.524  0.00  0.00    +0.419 C 
ATOM     12  F   UNL A   1     -21.409   0.171  28.325  0.00  0.00    -0.166 F 
ATOM     13  F   UNL A   1     -23.133   0.629  27.148  0.00  0.00    -0.166 F 
ATOM     14  F   UNL A   1     -22.620   1.594  29.062  0.00  0.00    -0.166 F 
ENDBRANCH   9  11
TORSDOF 1
ENDMDL
ENDMDL
