MODEL 3069
MODEL 1
REMARK VINA RESULT:    -6.992      0.000      0.000
REMARK INTER + INTRA:          -8.653
REMARK INTER:                  -8.218
REMARK INTRA:                  -0.435
REMARK UNBOUND:                -0.435
REMARK  Name = No_3069-gen_results/8p0m/2024-11-26-14-13-15/
REMARK  3 active torsions:
REMARK  status: ('A' for Active; 'I' for Inactive)
REMARK    1  A    between atoms: C_2  and  C_7
REMARK    2  A    between atoms: C_6  and  C_10
REMARK    3  A    between atoms: C_13  and  C_14
REMARK                            x       y       z     vdW  Elec       q    Type
REMARK                         _______ _______ _______ _____ _____    ______ ____
ROOT
ATOM      1  C   UNL A   1     -18.999 -20.493   5.879  0.00  0.00    +0.272 C 
ATOM      2  N   UNL A   1     -19.327 -19.434   6.587  0.00  0.00    -0.137 NA
ATOM      3  O   UNL A   1     -19.534 -20.563   4.735  0.00  0.00    -0.268 OA
ATOM      4  C   UNL A   1     -20.441 -18.564   6.423  0.00  0.00    +0.272 C 
ATOM      5  O   UNL A   1     -20.130 -17.390   6.033  0.00  0.00    -0.268 OA
ENDROOT
BRANCH   1  11
ATOM      6  C   UNL A   1     -17.146 -21.402   7.461  0.00  0.00    +0.013 A 
ATOM      7  C   UNL A   1     -16.289 -22.220   7.705  0.00  0.00    +0.107 A 
ATOM      8  C   UNL A   1     -15.895 -23.153   6.753  0.00  0.00    +0.146 A 
ATOM      9  C   UNL A   1     -16.528 -23.206   5.461  0.00  0.00    +0.030 A 
ATOM     10  C   UNL A   1     -17.525 -22.240   5.271  0.00  0.00    +0.007 A 
ATOM     11  C   UNL A   1     -17.872 -21.390   6.210  0.00  0.00    +0.056 A 
ATOM     12  F   UNL A   1     -14.906 -24.045   6.913  0.00  0.00    -0.204 F 
BRANCH   7  13
ATOM     13  C   UNL A   1     -15.550 -22.330   8.992  0.00  0.00    +0.390 C 
ATOM     14  O   UNL A   1     -14.442 -22.153   9.136  0.00  0.00    -0.240 OA
ATOM     15  O   UNL A   1     -16.377 -22.549  10.050  0.00  0.00    -0.240 OA
ENDBRANCH   7  13
ENDBRANCH   1  11
BRANCH   4  16
ATOM     16  C   UNL A   1     -21.637 -19.175   6.693  0.00  0.00    +0.056 A 
ATOM     17  C   UNL A   1     -21.913 -19.904   7.673  0.00  0.00    +0.005 A 
ATOM     18  C   UNL A   1     -23.186 -20.403   8.058  0.00  0.00    +0.011 A 
ATOM     19  C   UNL A   1     -24.284 -20.084   7.285  0.00  0.00    +0.058 A 
ATOM     20  C   UNL A   1     -24.071 -19.174   6.218  0.00  0.00    +0.011 A 
ATOM     21  C   UNL A   1     -22.802 -18.685   5.919  0.00  0.00    +0.005 A 
ATOM     22 CL   UNL A   1     -25.795 -20.686   7.660  0.00  0.00    -0.082 Cl
ENDBRANCH   4  16
TORSDOF 3
ENDMDL
ENDMDL
