REMARK  Name = No_3069-gen_results/8p0m/2024-11-26-14-13-15/
REMARK  3 active torsions:
REMARK  status: ('A' for Active; 'I' for Inactive)
REMARK    1  A    between atoms: C_2  and  C_7
REMARK    2  A    between atoms: C_6  and  C_10
REMARK    3  A    between atoms: C_13  and  C_14
REMARK                            x       y       z     vdW  Elec       q    Type
REMARK                         _______ _______ _______ _____ _____    ______ ____
ROOT
ATOM      1  C   UNL A   1     -29.050  -2.786  30.222  0.00  0.00    +0.272 C 
ATOM      2  N   UNL A   1     -28.943  -4.056  30.547  0.00  0.00    -0.137 NA
ATOM      3  O   UNL A   1     -30.127  -2.228  30.579  0.00  0.00    -0.268 OA
ATOM      4  C   UNL A   1     -29.971  -4.973  30.903  0.00  0.00    +0.272 C 
ATOM      5  O   UNL A   1     -29.941  -5.340  32.124  0.00  0.00    -0.268 OA
ENDROOT
BRANCH   1  11
ATOM      6  C   UNL A   1     -28.016  -0.814  28.878  0.00  0.00    +0.013 A 
ATOM      7  C   UNL A   1     -27.064  -0.119  28.608  0.00  0.00    +0.107 A 
ATOM      8  C   UNL A   1     -25.792  -0.430  29.076  0.00  0.00    +0.146 A 
ATOM      9  C   UNL A   1     -25.576  -1.565  29.936  0.00  0.00    +0.030 A 
ATOM     10  C   UNL A   1     -26.735  -2.300  30.217  0.00  0.00    +0.007 A 
ATOM     11  C   UNL A   1     -27.918  -1.954  29.763  0.00  0.00    +0.056 A 
ATOM     12  F   UNL A   1     -24.673   0.241  28.767  0.00  0.00    -0.204 F 
BRANCH   7  13
ATOM     13  C   UNL A   1     -27.106   1.102  27.759  0.00  0.00    +0.390 C 
ATOM     14  O   UNL A   1     -26.337   1.395  26.983  0.00  0.00    -0.240 OA
ATOM     15  O   UNL A   1     -28.262   1.803  27.913  0.00  0.00    -0.240 OA
ENDBRANCH   7  13
ENDBRANCH   1  11
BRANCH   4  16
ATOM     16  C   UNL A   1     -30.811  -5.260  29.859  0.00  0.00    +0.056 A 
ATOM     17  C   UNL A   1     -30.616  -5.036  28.643  0.00  0.00    +0.005 A 
ATOM     18  C   UNL A   1     -31.392  -5.478  27.538  0.00  0.00    +0.011 A 
ATOM     19  C   UNL A   1     -32.516  -6.241  27.782  0.00  0.00    +0.058 A 
ATOM     20  C   UNL A   1     -32.746  -6.629  29.127  0.00  0.00    +0.011 A 
ATOM     21  C   UNL A   1     -31.919  -6.197  30.161  0.00  0.00    +0.005 A 
ATOM     22 CL   UNL A   1     -33.494  -6.743  26.526  0.00  0.00    -0.082 Cl
ENDBRANCH   4  16
TORSDOF 3
