REMARK  Name = No_307-gen_results/8p0m/2024-11-26-14-13-15/
REMARK  8 active torsions:
REMARK  status: ('A' for Active; 'I' for Inactive)
REMARK    1  A    between atoms: P_1  and  O_2
REMARK    2  A    between atoms: P_1  and  O_3
REMARK    3  A    between atoms: O_2  and  C_6
REMARK    4  A    between atoms: C_6  and  C_7
REMARK    5  A    between atoms: C_7  and  C_8
REMARK    6  A    between atoms: C_7  and  O_11
REMARK    7  A    between atoms: C_8  and  C_9
REMARK    8  A    between atoms: C_9  and  C_10
REMARK                            x       y       z     vdW  Elec       q    Type
REMARK                         _______ _______ _______ _____ _____    ______ ____
ROOT
ATOM      1  C   UNL A   1     -26.509   2.149  28.953  0.00  0.00    +0.251 C 
ENDROOT
BRANCH   1   2
ATOM      2  C   UNL A   1     -27.164   1.428  28.303  0.00  0.00    +0.317 C 
ATOM      3  F   UNL A   1     -28.483   1.695  28.005  0.00  0.00    -0.201 F 
BRANCH   2   4
ATOM      4  O   UNL A   1     -27.240   0.061  28.428  0.00  0.00    -0.280 OA
BRANCH   4   5
ATOM      5  P   UNL A   1     -27.951  -0.579  29.040  0.00  0.00    +0.256 P 
ATOM      6  O   UNL A   1     -28.184  -0.028  30.520  0.00  0.00    -0.435 OA
ATOM      7  O   UNL A   1     -29.384  -0.939  28.657  0.00  0.00    -0.515 OA
BRANCH   5   8
ATOM      8  O   UNL A   1     -27.244  -1.982  29.377  0.00  0.00    -0.134 OA
ATOM      9  F   UNL A   1     -26.493  -2.680  29.244  0.00  0.00    -0.041 F 
ENDBRANCH   5   8
ENDBRANCH   4   5
ENDBRANCH   2   4
ENDBRANCH   1   2
BRANCH   1  10
ATOM     10  C   UNL A   1     -25.256   1.719  29.556  0.00  0.00    +0.222 C 
ATOM     11  O   UNL A   1     -24.287   2.780  29.337  0.00  0.00    -0.217 OA
BRANCH  10  12
ATOM     12  C   UNL A   1     -24.754   0.524  29.118  0.00  0.00    +0.231 C 
ATOM     13  O   UNL A   1     -24.012   0.677  27.830  0.00  0.00    -0.216 OA
BRANCH  12  14
ATOM     14  C   UNL A   1     -23.435   0.096  29.858  0.00  0.00    +0.263 C 
ATOM     15 CL   UNL A   1     -22.862  -1.323  29.478  0.00  0.00    -0.076 Cl
ATOM     16  O   UNL A   1     -23.833  -0.168  31.276  0.00  0.00    -0.202 OA
ENDBRANCH  12  14
ENDBRANCH  10  12
ENDBRANCH   1  10
BRANCH   1  17
ATOM     17  O   UNL A   1     -27.276   2.880  30.007  0.00  0.00    -0.174 OA
ATOM     18  F   UNL A   1     -27.032   2.926  31.157  0.00  0.00    -0.047 F 
ENDBRANCH   1  17
TORSDOF 8
