REMARK  Name = No_3070-gen_results/8p0m/2024-11-26-14-13-15/
REMARK  6 active torsions:
REMARK  status: ('A' for Active; 'I' for Inactive)
REMARK    1  A    between atoms: C_3  and  C_7
REMARK    2  A    between atoms: C_6  and  C_13
REMARK    3  A    between atoms: N_18  and  C_19
REMARK    4  A    between atoms: N_18  and  C_25
REMARK    5  A    between atoms: C_29  and  C_32
REMARK    6  A    between atoms: C_32  and  C_33
REMARK                            x       y       z     vdW  Elec       q    Type
REMARK                         _______ _______ _______ _____ _____    ______ ____
ROOT
ATOM      1  C   UNL A   1     -25.696   1.950  28.476  0.00  0.00    +0.032 A 
ATOM      2  C   UNL A   1     -25.089   1.863  27.590  0.00  0.00    +0.000 A 
ATOM      3  C   UNL A   1     -23.842   2.636  27.248  0.00  0.00    -0.003 A 
ATOM      4  C   UNL A   1     -24.697   2.458  29.508  0.00  0.00    +0.139 A 
ATOM      5  N   UNL A   1     -23.569   3.009  29.351  0.00  0.00    -0.229 NA
ATOM      6  C   UNL A   1     -23.051   3.061  28.153  0.00  0.00    +0.096 A 
ATOM      7  N   UNL A   1     -25.236   2.505  30.905  0.00  0.00    -0.251 N 
ATOM      8  C   UNL A   1     -23.348   2.548  25.776  0.00  0.00    +0.033 C 
ENDROOT
BRANCH   1  11
ATOM      9  C   UNL A   1     -28.016  -0.814  28.878  0.00  0.00    +0.004 A 
ATOM     10  C   UNL A   1     -27.064  -0.119  28.608  0.00  0.00    +0.000 A 
ATOM     11  C   UNL A   1     -26.876   1.133  28.913  0.00  0.00    +0.003 A 
ATOM     12  C   UNL A   1     -27.901   1.807  29.644  0.00  0.00    +0.000 A 
ATOM     13  C   UNL A   1     -28.945   1.039  30.036  0.00  0.00    +0.004 A 
ATOM     14  C   UNL A   1     -29.027  -0.289  29.705  0.00  0.00    +0.054 A 
BRANCH  14  15
ATOM     15  C   UNL A   1     -30.148  -1.177  30.079  0.00  0.00    +0.249 C 
ATOM     16  O   UNL A   1     -31.120  -1.157  29.590  0.00  0.00    -0.270 OA
ATOM     17  N   UNL A   1     -29.838  -2.087  31.138  0.00  0.00    -0.273 N 
ATOM     18  C   UNL A   1     -28.571  -2.252  31.873  0.00  0.00    +0.115 C 
ATOM     19  C   UNL A   1     -30.903  -2.978  31.604  0.00  0.00    +0.115 C 
ENDBRANCH  14  15
ENDBRANCH   1  11
BRANCH   7  20
ATOM     20  C   UNL A   1     -25.086   1.288  31.643  0.00  0.00    +0.057 A 
ATOM     21  C   UNL A   1     -24.263   0.297  31.572  0.00  0.00    +0.015 A 
ATOM     22  C   UNL A   1     -25.825   1.360  32.940  0.00  0.00    +0.015 A 
ATOM     23  C   UNL A   1     -24.170  -0.801  32.333  0.00  0.00    +0.001 A 
ATOM     24  C   UNL A   1     -25.783   0.256  33.782  0.00  0.00    +0.001 A 
ATOM     25  C   UNL A   1     -24.961  -0.798  33.508  0.00  0.00    +0.000 A 
ENDBRANCH   7  20
BRANCH   7  26
ATOM     26  C   UNL A   1     -25.720   3.703  31.348  0.00  0.00    +0.057 A 
ATOM     27  C   UNL A   1     -24.897   4.449  32.054  0.00  0.00    +0.015 A 
ATOM     28  C   UNL A   1     -25.226   5.836  32.487  0.00  0.00    +0.001 A 
ATOM     29  C   UNL A   1     -26.413   6.325  32.055  0.00  0.00    -0.004 A 
ATOM     30  C   UNL A   1     -27.247   5.490  31.267  0.00  0.00    -0.017 A 
ATOM     31  C   UNL A   1     -26.857   4.282  30.901  0.00  0.00    +0.011 A 
BRANCH  30  32
ATOM     32  C   UNL A   1     -28.531   6.124  30.784  0.00  0.00    +0.044 C 
ATOM     33  C   UNL A   1     -28.498   6.872  29.637  0.00  0.00    +0.009 C 
BRANCH  32  34
ATOM     34  C   UNL A   1     -29.440   6.237  31.493  0.00  0.00    -0.022 C 
ATOM     35  C   UNL A   1     -30.713   6.806  31.079  0.00  0.00    -0.005 C 
ENDBRANCH  32  34
ENDBRANCH  30  32
ENDBRANCH   7  26
TORSDOF 6
