MODEL 3070
MODEL 1
REMARK VINA RESULT:    -7.468      0.000      0.000
REMARK INTER + INTRA:         -12.660
REMARK INTER:                 -10.087
REMARK INTRA:                  -2.573
REMARK UNBOUND:                -2.573
REMARK  Name = No_3070-gen_results/8p0m/2024-11-26-14-13-15/
REMARK  6 active torsions:
REMARK  status: ('A' for Active; 'I' for Inactive)
REMARK    1  A    between atoms: C_3  and  C_7
REMARK    2  A    between atoms: C_6  and  C_13
REMARK    3  A    between atoms: N_18  and  C_19
REMARK    4  A    between atoms: N_18  and  C_25
REMARK    5  A    between atoms: C_29  and  C_32
REMARK    6  A    between atoms: C_32  and  C_33
REMARK                            x       y       z     vdW  Elec       q    Type
REMARK                         _______ _______ _______ _____ _____    ______ ____
ROOT
ATOM      1  C   UNL A   1     -26.246   1.680  29.537  0.00  0.00    +0.032 A 
ATOM      2  C   UNL A   1     -26.198   2.394  30.342  0.00  0.00    +0.000 A 
ATOM      3  C   UNL A   1     -25.427   2.279  31.632  0.00  0.00    -0.003 A 
ATOM      4  C   UNL A   1     -24.919   0.943  29.675  0.00  0.00    +0.139 A 
ATOM      5  N   UNL A   1     -24.123   0.871  30.656  0.00  0.00    -0.229 NA
ATOM      6  C   UNL A   1     -24.333   1.628  31.699  0.00  0.00    +0.096 A 
ATOM      7  N   UNL A   1     -24.632  -0.009  28.555  0.00  0.00    -0.251 N 
ATOM      8  C   UNL A   1     -25.787   3.294  32.753  0.00  0.00    +0.033 C 
ENDROOT
BRANCH   1  11
ATOM      9  C   UNL A   1     -28.164   0.878  26.560  0.00  0.00    +0.004 A 
ATOM     10  C   UNL A   1     -27.654   0.873  27.657  0.00  0.00    +0.000 A 
ATOM     11  C   UNL A   1     -26.905   1.793  28.194  0.00  0.00    +0.003 A 
ATOM     12  C   UNL A   1     -26.615   2.959  27.422  0.00  0.00    +0.000 A 
ATOM     13  C   UNL A   1     -27.236   3.037  26.221  0.00  0.00    +0.004 A 
ATOM     14  C   UNL A   1     -28.051   2.033  25.764  0.00  0.00    +0.054 A 
BRANCH  14  15
ATOM     15  C   UNL A   1     -28.739   2.044  24.456  0.00  0.00    +0.249 C 
ATOM     16  O   UNL A   1     -28.296   1.659  23.540  0.00  0.00    -0.270 OA
ATOM     17  N   UNL A   1     -30.058   2.595  24.499  0.00  0.00    -0.273 N 
ATOM     18  C   UNL A   1     -30.800   3.126  25.657  0.00  0.00    +0.115 C 
ATOM     19  C   UNL A   1     -30.801   2.685  23.240  0.00  0.00    +0.115 C 
ENDBRANCH  14  15
ENDBRANCH   1  11
BRANCH   7  20
ATOM     20  C   UNL A   1     -23.969   0.576  27.430  0.00  0.00    +0.057 A 
ATOM     21  C   UNL A   1     -24.311   0.791  26.204  0.00  0.00    +0.015 A 
ATOM     22  C   UNL A   1     -22.786   1.377  27.869  0.00  0.00    +0.015 A 
ATOM     23  C   UNL A   1     -23.634   1.383  25.213  0.00  0.00    +0.001 A 
ATOM     24  C   UNL A   1     -22.027   2.015  26.897  0.00  0.00    +0.001 A 
ATOM     25  C   UNL A   1     -22.442   2.045  25.598  0.00  0.00    +0.000 A 
ENDBRANCH   7  20
BRANCH   7  26
ATOM     26  C   UNL A   1     -24.944  -1.324  28.756  0.00  0.00    +0.057 A 
ATOM     27  C   UNL A   1     -23.976  -2.196  28.575  0.00  0.00    +0.015 A 
ATOM     28  C   UNL A   1     -24.118  -3.645  28.890  0.00  0.00    +0.001 A 
ATOM     29  C   UNL A   1     -25.297  -4.018  29.444  0.00  0.00    -0.004 A 
ATOM     30  C   UNL A   1     -26.294  -3.030  29.650  0.00  0.00    -0.017 A 
ATOM     31  C   UNL A   1     -26.067  -1.758  29.372  0.00  0.00    +0.011 A 
BRANCH  30  32
ATOM     32  C   UNL A   1     -27.561  -3.514  30.317  0.00  0.00    +0.044 C 
ATOM     33  C   UNL A   1     -28.226  -2.659  31.154  0.00  0.00    +0.009 C 
BRANCH  32  34
ATOM     34  C   UNL A   1     -27.808  -4.645  30.370  0.00  0.00    -0.022 C 
ATOM     35  C   UNL A   1     -29.051  -5.169  30.913  0.00  0.00    -0.005 C 
ENDBRANCH  32  34
ENDBRANCH  30  32
ENDBRANCH   7  26
TORSDOF 6
ENDMDL
ENDMDL
