MODEL 3073
MODEL 1
REMARK VINA RESULT:    -6.019      0.000      0.000
REMARK INTER + INTRA:          -8.879
REMARK INTER:                  -7.779
REMARK INTRA:                  -1.100
REMARK UNBOUND:                -1.100
REMARK  Name = No_3073-gen_results/8p0m/2024-11-26-14-13-15/
REMARK  5 active torsions:
REMARK  status: ('A' for Active; 'I' for Inactive)
REMARK    1  A    between atoms: C_3  and  C_8
REMARK    2  A    between atoms: C_6  and  O_7
REMARK    3  A    between atoms: O_7  and  C_14
REMARK    4  A    between atoms: C_14  and  C_15
REMARK    5  A    between atoms: C_14  and  C_18
REMARK                            x       y       z     vdW  Elec       q    Type
REMARK                         _______ _______ _______ _____ _____    ______ ____
ROOT
ATOM      1  C   UNL A   1      -8.841   0.774  35.135  0.00  0.00    +0.037 A 
ATOM      2  C   UNL A   1      -9.065   0.069  36.092  0.00  0.00    +0.003 A 
ATOM      3  C   UNL A   1     -10.345  -0.033  36.625  0.00  0.00    +0.000 A 
ATOM      4  C   UNL A   1     -11.436   0.735  36.083  0.00  0.00    +0.003 A 
ATOM      5  C   UNL A   1     -11.084   1.543  34.994  0.00  0.00    +0.037 A 
ATOM      6  C   UNL A   1      -9.854   1.616  34.538  0.00  0.00    +0.140 A 
ENDROOT
BRANCH   3   7
ATOM      7  C   UNL A   1     -10.751  -0.884  37.803  0.00  0.00    +0.000 A 
ATOM      8  C   UNL A   1     -11.607  -1.878  37.646  0.00  0.00    +0.000 A 
ATOM      9  C   UNL A   1     -12.049  -2.640  38.790  0.00  0.00    +0.000 A 
ATOM     10  C   UNL A   1     -11.682  -2.281  40.099  0.00  0.00    +0.000 A 
ATOM     11  C   UNL A   1     -10.400  -0.501  39.135  0.00  0.00    +0.000 A 
ATOM     12  C   UNL A   1     -10.861  -1.255  40.264  0.00  0.00    +0.000 A 
ENDBRANCH   3   7
BRANCH   6  13
ATOM     13  O   UNL A   1      -9.588   2.455  33.500  0.00  0.00    -0.463 OA
BRANCH  13  14
ATOM     14  C   UNL A   1      -8.767   3.512  33.641  0.00  0.00    +0.289 C 
BRANCH  14  15
ATOM     15  C   UNL A   1      -8.196   3.846  32.520  0.00  0.00    +0.408 C 
ATOM     16  O   UNL A   1      -7.349   3.216  32.028  0.00  0.00    -0.241 OA
ATOM     17  O   UNL A   1      -8.558   4.947  31.860  0.00  0.00    -0.241 OA
ENDBRANCH  14  15
BRANCH  14  18
ATOM     18  C   UNL A   1      -9.643   4.676  34.269  0.00  0.00    +0.024 C 
ATOM     19  C   UNL A   1      -9.625   5.109  35.271  0.00  0.00    -0.026 C 
ATOM     20  C   UNL A   1      -8.723   4.605  36.289  0.00  0.00    +0.030 C 
ENDBRANCH  14  18
ENDBRANCH  13  14
ENDBRANCH   6  13
TORSDOF 5
ENDMDL
ENDMDL
