REMARK  Name = No_3073-gen_results/8p0m/2024-11-26-14-13-15/
REMARK  5 active torsions:
REMARK  status: ('A' for Active; 'I' for Inactive)
REMARK    1  A    between atoms: C_3  and  C_8
REMARK    2  A    between atoms: C_6  and  O_7
REMARK    3  A    between atoms: O_7  and  C_14
REMARK    4  A    between atoms: C_14  and  C_15
REMARK    5  A    between atoms: C_14  and  C_18
REMARK                            x       y       z     vdW  Elec       q    Type
REMARK                         _______ _______ _______ _____ _____    ______ ____
ROOT
ATOM      1  C   UNL A   1     -28.016  -0.814  28.878  0.00  0.00    +0.037 A 
ATOM      2  C   UNL A   1     -27.064  -0.119  28.608  0.00  0.00    +0.003 A 
ATOM      3  C   UNL A   1     -25.792  -0.430  29.076  0.00  0.00    +0.000 A 
ATOM      4  C   UNL A   1     -25.576  -1.565  29.936  0.00  0.00    +0.003 A 
ATOM      5  C   UNL A   1     -26.735  -2.300  30.217  0.00  0.00    +0.037 A 
ATOM      6  C   UNL A   1     -27.918  -1.954  29.763  0.00  0.00    +0.140 A 
ENDROOT
BRANCH   3   7
ATOM      7  C   UNL A   1     -24.529   0.349  28.800  0.00  0.00    +0.000 A 
ATOM      8  C   UNL A   1     -24.481   1.211  27.800  0.00  0.00    +0.000 A 
ATOM      9  C   UNL A   1     -23.248   1.897  27.495  0.00  0.00    +0.000 A 
ATOM     10  C   UNL A   1     -22.050   1.589  28.164  0.00  0.00    +0.000 A 
ATOM     11  C   UNL A   1     -23.307   0.015  29.462  0.00  0.00    +0.000 A 
ATOM     12  C   UNL A   1     -22.085   0.690  29.137  0.00  0.00    +0.000 A 
ENDBRANCH   3   7
BRANCH   6  13
ATOM     13  O   UNL A   1     -29.000  -2.701  30.115  0.00  0.00    -0.463 OA
BRANCH  13  14
ATOM     14  C   UNL A   1     -30.127  -2.132  30.581  0.00  0.00    +0.289 C 
BRANCH  14  15
ATOM     15  C   UNL A   1     -31.198  -2.714  30.124  0.00  0.00    +0.408 C 
ATOM     16  O   UNL A   1     -31.987  -2.164  29.467  0.00  0.00    -0.241 OA
ATOM     17  O   UNL A   1     -31.455  -3.996  30.387  0.00  0.00    -0.241 OA
ENDBRANCH  14  15
BRANCH  14  18
ATOM     18  C   UNL A   1     -30.023  -2.166  32.163  0.00  0.00    +0.024 C 
ATOM     19  C   UNL A   1     -30.026  -3.014  32.852  0.00  0.00    -0.026 C 
ATOM     20  C   UNL A   1     -30.174  -4.372  32.366  0.00  0.00    +0.030 C 
ENDBRANCH  14  18
ENDBRANCH  13  14
ENDBRANCH   6  13
TORSDOF 5
