MODEL 3074
MODEL 1
REMARK VINA RESULT:    -7.289      0.000      0.000
REMARK INTER + INTRA:         -10.008
REMARK INTER:                  -8.567
REMARK INTRA:                  -1.441
REMARK UNBOUND:                -1.441
REMARK  Name = No_3074-gen_results/8p0m/2024-11-26-14-13-15/
REMARK  3 active torsions:
REMARK  status: ('A' for Active; 'I' for Inactive)
REMARK    1  A    between atoms: C_2  and  C_19
REMARK    2  A    between atoms: C_3  and  C_7
REMARK    3  A    between atoms: C_8  and  C_13
REMARK                            x       y       z     vdW  Elec       q    Type
REMARK                         _______ _______ _______ _____ _____    ______ ____
ROOT
ATOM      1  C   UNL A   1     -24.813  -2.396  28.754  0.00  0.00    +0.001 A 
ATOM      2  C   UNL A   1     -25.976  -2.560  29.443  0.00  0.00    +0.018 A 
ATOM      3  C   UNL A   1     -26.401  -3.825  29.830  0.00  0.00    +0.002 A 
ATOM      4  C   UNL A   1     -25.647  -4.982  29.487  0.00  0.00    +0.000 A 
ATOM      5  C   UNL A   1     -24.480  -4.813  28.838  0.00  0.00    +0.000 A 
ATOM      6  C   UNL A   1     -24.044  -3.567  28.470  0.00  0.00    +0.000 A 
ENDROOT
BRANCH   1   9
ATOM      7  C   UNL A   1     -22.983   0.795  28.685  0.00  0.00    -0.000 A 
ATOM      8  C   UNL A   1     -23.365  -0.291  29.055  0.00  0.00    -0.000 A 
ATOM      9  C   UNL A   1     -24.307  -1.053  28.366  0.00  0.00    +0.000 A 
ATOM     10  C   UNL A   1     -24.918  -0.508  27.169  0.00  0.00    +0.000 A 
ATOM     11  C   UNL A   1     -24.430   0.767  26.803  0.00  0.00    +0.000 A 
ATOM     12  C   UNL A   1     -23.545   1.411  27.520  0.00  0.00    -0.000 A 
BRANCH   8  13
ATOM     13  C   UNL A   1     -22.800  -0.941  30.311  0.00  0.00    -0.005 C 
ATOM     14  C   UNL A   1     -23.261  -0.729  31.416  0.00  0.00    -0.026 C 
ATOM     15  C   UNL A   1     -22.774  -1.253  32.647  0.00  0.00    +0.031 C 
ENDBRANCH   8  13
ENDBRANCH   1   9
BRANCH   2  16
ATOM     16  C   UNL A   1     -26.861  -1.384  29.759  0.00  0.00    +0.081 A 
ATOM     17  N   UNL A   1     -27.750  -0.902  29.062  0.00  0.00    -0.244 NA
ATOM     18  C   UNL A   1     -28.386   0.313  29.357  0.00  0.00    +0.099 A 
ATOM     19  C   UNL A   1     -26.586  -0.747  31.040  0.00  0.00    +0.019 A 
ATOM     20  C   UNL A   1     -27.254   0.341  31.459  0.00  0.00    +0.003 A 
ATOM     21  C   UNL A   1     -28.223   0.890  30.587  0.00  0.00    +0.021 A 
ENDBRANCH   2  16
TORSDOF 3
ENDMDL
ENDMDL
