REMARK  Name = No_3074-gen_results/8p0m/2024-11-26-14-13-15/
REMARK  3 active torsions:
REMARK  status: ('A' for Active; 'I' for Inactive)
REMARK    1  A    between atoms: C_2  and  C_19
REMARK    2  A    between atoms: C_3  and  C_7
REMARK    3  A    between atoms: C_8  and  C_13
REMARK                            x       y       z     vdW  Elec       q    Type
REMARK                         _______ _______ _______ _____ _____    ______ ____
ROOT
ATOM      1  C   UNL A   1     -24.549   0.410  28.734  0.00  0.00    +0.001 A 
ATOM      2  C   UNL A   1     -24.093   1.378  29.576  0.00  0.00    +0.018 A 
ATOM      3  C   UNL A   1     -22.978   2.140  29.246  0.00  0.00    +0.002 A 
ATOM      4  C   UNL A   1     -22.268   1.903  28.036  0.00  0.00    +0.000 A 
ATOM      5  C   UNL A   1     -22.743   0.970  27.190  0.00  0.00    +0.000 A 
ATOM      6  C   UNL A   1     -23.853   0.228  27.499  0.00  0.00    +0.000 A 
ENDROOT
BRANCH   1   9
ATOM      7  C   UNL A   1     -28.016  -0.814  28.878  0.00  0.00    -0.000 A 
ATOM      8  C   UNL A   1     -27.064  -0.119  28.608  0.00  0.00    -0.000 A 
ATOM      9  C   UNL A   1     -25.765  -0.390  29.036  0.00  0.00    +0.000 A 
ATOM     10  C   UNL A   1     -25.530  -1.530  29.901  0.00  0.00    +0.000 A 
ATOM     11  C   UNL A   1     -26.689  -2.289  30.181  0.00  0.00    +0.000 A 
ATOM     12  C   UNL A   1     -27.873  -1.951  29.737  0.00  0.00    -0.000 A 
BRANCH   8  13
ATOM     13  C   UNL A   1     -27.210   1.112  27.723  0.00  0.00    -0.005 C 
ATOM     14  C   UNL A   1     -27.320   2.232  28.182  0.00  0.00    -0.026 C 
ATOM     15  C   UNL A   1     -27.505   3.433  27.439  0.00  0.00    +0.031 C 
ENDBRANCH   8  13
ENDBRANCH   1   9
BRANCH   2  16
ATOM     16  C   UNL A   1     -24.748   1.617  30.910  0.00  0.00    +0.081 A 
ATOM     17  N   UNL A   1     -24.865   0.828  31.844  0.00  0.00    -0.244 NA
ATOM     18  C   UNL A   1     -25.663   1.079  32.969  0.00  0.00    +0.099 A 
ATOM     19  C   UNL A   1     -25.329   2.944  31.070  0.00  0.00    +0.019 A 
ATOM     20  C   UNL A   1     -25.989   3.310  32.181  0.00  0.00    +0.003 A 
ATOM     21  C   UNL A   1     -26.147   2.339  33.198  0.00  0.00    +0.021 A 
ENDBRANCH   2  16
TORSDOF 3
