REMARK  Name = No_3075-gen_results/8p0m/2024-11-26-14-13-15/
REMARK  6 active torsions:
REMARK  status: ('A' for Active; 'I' for Inactive)
REMARK    1  A    between atoms: C_1  and  C_16
REMARK    2  A    between atoms: C_3  and  N_7
REMARK    3  A    between atoms: C_5  and  C_13
REMARK    4  A    between atoms: N_17  and  C_19
REMARK    5  A    between atoms: C_20  and  C_21
REMARK    6  A    between atoms: C_21  and  C_22
REMARK                            x       y       z     vdW  Elec       q    Type
REMARK                         _______ _______ _______ _____ _____    ______ ____
ROOT
ATOM      1  C   UNL A   1     -28.016  -0.814  28.878  0.00  0.00    +0.057 A 
ATOM      2  C   UNL A   1     -27.064  -0.119  28.608  0.00  0.00    +0.019 A 
ATOM      3  C   UNL A   1     -26.972   0.714  27.506  0.00  0.00    +0.048 A 
ATOM      4  C   UNL A   1     -28.105   0.774  26.642  0.00  0.00    +0.019 A 
ATOM      5  C   UNL A   1     -29.204   0.118  27.048  0.00  0.00    +0.058 A 
ATOM      6  C   UNL A   1     -29.213  -0.609  28.128  0.00  0.00    +0.009 A 
ENDROOT
BRANCH   3   7
ATOM      7  N   UNL A   1     -25.686   1.276  27.319  0.00  0.00    -0.307 N 
ATOM      8  C   UNL A   1     -25.051   1.903  28.196  0.00  0.00    +0.091 C 
ATOM      9  C   UNL A   1     -24.311   3.123  27.798  0.00  0.00    +0.021 C 
ATOM     10  C   UNL A   1     -25.105   1.263  26.030  0.00  0.00    +0.091 C 
ATOM     11  C   UNL A   1     -24.012   1.740  25.950  0.00  0.00    +0.021 C 
ATOM     12  C   UNL A   1     -23.558   2.923  26.622  0.00  0.00    +0.004 C 
ENDBRANCH   3   7
BRANCH   5  13
ATOM     13  C   UNL A   1     -30.512   0.200  26.383  0.00  0.00    +0.284 C 
ATOM     14  N   UNL A   1     -30.572   0.273  25.139  0.00  0.00    -0.084 NA
ATOM     15  O   UNL A   1     -31.598   0.143  26.967  0.00  0.00    -0.267 OA
ENDBRANCH   5  13
BRANCH   1  16
ATOM     16  C   UNL A   1     -28.048  -1.680  30.102  0.00  0.00    +0.269 C 
ATOM     17  N   UNL A   1     -28.658  -1.558  31.095  0.00  0.00    -0.174 NA
ATOM     18  O   UNL A   1     -27.290  -2.752  29.969  0.00  0.00    -0.268 OA
BRANCH  17  19
ATOM     19  C   UNL A   1     -29.536  -0.440  31.495  0.00  0.00    +0.085 C 
ATOM     20  C   UNL A   1     -30.272  -0.603  32.602  0.00  0.00    -0.004 C 
BRANCH  20  21
ATOM     21  C   UNL A   1     -30.910   0.371  33.155  0.00  0.00    +0.053 C 
BRANCH  21  22
ATOM     22  C   UNL A   1     -31.683   0.246  34.348  0.00  0.00    -0.026 C 
ATOM     23  C   UNL A   1     -31.756  -1.013  34.891  0.00  0.00    -0.030 C 
ATOM     24  C   UNL A   1     -31.099  -2.077  34.321  0.00  0.00    +0.030 C 
ENDBRANCH  21  22
ENDBRANCH  20  21
ENDBRANCH  17  19
ENDBRANCH   1  16
TORSDOF 6
