MODEL 3075
MODEL 1
REMARK VINA RESULT:    -6.793      0.000      0.000
REMARK INTER + INTRA:         -10.388
REMARK INTER:                  -9.175
REMARK INTRA:                  -1.212
REMARK UNBOUND:                -1.212
REMARK  Name = No_3075-gen_results/8p0m/2024-11-26-14-13-15/
REMARK  6 active torsions:
REMARK  status: ('A' for Active; 'I' for Inactive)
REMARK    1  A    between atoms: C_1  and  C_16
REMARK    2  A    between atoms: C_3  and  N_7
REMARK    3  A    between atoms: C_5  and  C_13
REMARK    4  A    between atoms: N_17  and  C_19
REMARK    5  A    between atoms: C_20  and  C_21
REMARK    6  A    between atoms: C_21  and  C_22
REMARK                            x       y       z     vdW  Elec       q    Type
REMARK                         _______ _______ _______ _____ _____    ______ ____
ROOT
ATOM      1  C   UNL A   1     -24.155   0.579  28.332  0.00  0.00    +0.057 A 
ATOM      2  C   UNL A   1     -24.362  -0.603  28.479  0.00  0.00    +0.019 A 
ATOM      3  C   UNL A   1     -25.030  -1.168  29.552  0.00  0.00    +0.048 A 
ATOM      4  C   UNL A   1     -25.538  -0.276  30.542  0.00  0.00    +0.019 A 
ATOM      5  C   UNL A   1     -25.435   1.037  30.276  0.00  0.00    +0.058 A 
ATOM      6  C   UNL A   1     -24.826   1.479  29.214  0.00  0.00    +0.009 A 
ENDROOT
BRANCH   3   7
ATOM      7  N   UNL A   1     -24.977  -2.582  29.580  0.00  0.00    -0.307 N 
ATOM      8  C   UNL A   1     -23.941  -3.257  29.385  0.00  0.00    +0.091 C 
ATOM      9  C   UNL A   1     -24.041  -4.487  28.566  0.00  0.00    +0.021 C 
ATOM     10  C   UNL A   1     -26.177  -3.319  29.701  0.00  0.00    +0.091 C 
ATOM     11  C   UNL A   1     -26.054  -4.507  29.734  0.00  0.00    +0.021 C 
ATOM     12  C   UNL A   1     -25.145  -5.282  28.941  0.00  0.00    +0.004 C 
ENDBRANCH   3   7
BRANCH   5  13
ATOM     13  C   UNL A   1     -26.046   2.098  31.089  0.00  0.00    +0.284 C 
ATOM     14  N   UNL A   1     -25.926   3.291  30.743  0.00  0.00    -0.084 NA
ATOM     15  O   UNL A   1     -26.742   1.900  32.089  0.00  0.00    -0.267 OA
ENDBRANCH   5  13
BRANCH   1  16
ATOM     16  C   UNL A   1     -23.436   1.118  27.131  0.00  0.00    +0.269 C 
ATOM     17  N   UNL A   1     -23.842   1.372  26.061  0.00  0.00    -0.174 NA
ATOM     18  O   UNL A   1     -22.166   1.368  27.387  0.00  0.00    -0.268 OA
BRANCH  17  19
ATOM     19  C   UNL A   1     -25.199   1.150  25.524  0.00  0.00    +0.085 C 
ATOM     20  C   UNL A   1     -25.413   0.016  24.845  0.00  0.00    -0.004 C 
BRANCH  20  21
ATOM     21  C   UNL A   1     -26.595  -0.376  24.513  0.00  0.00    +0.053 C 
BRANCH  21  22
ATOM     22  C   UNL A   1     -27.701   0.502  24.309  0.00  0.00    -0.026 C 
ATOM     23  C   UNL A   1     -28.830  -0.064  23.770  0.00  0.00    -0.030 C 
ATOM     24  C   UNL A   1     -28.886  -1.404  23.471  0.00  0.00    +0.030 C 
ENDBRANCH  21  22
ENDBRANCH  20  21
ENDBRANCH  17  19
ENDBRANCH   1  16
TORSDOF 6
ENDMDL
ENDMDL
