MODEL 3076
MODEL 1
REMARK VINA RESULT:    -7.856      0.000      0.000
REMARK INTER + INTRA:          -9.565
REMARK INTER:                  -8.774
REMARK INTRA:                  -0.791
REMARK UNBOUND:                -0.791
REMARK  Name = No_3076-gen_results/8p0m/2024-11-26-14-13-15/
REMARK  2 active torsions:
REMARK  status: ('A' for Active; 'I' for Inactive)
REMARK    1  A    between atoms: C_8  and  C_9
REMARK    2  A    between atoms: C_9  and  C_11
REMARK                            x       y       z     vdW  Elec       q    Type
REMARK                         _______ _______ _______ _____ _____    ______ ____
ROOT
ATOM      1  C   UNL A   1     -25.850   1.678  25.565  0.00  0.00    +0.025 A 
ATOM      2  C   UNL A   1     -26.251   0.815  25.113  0.00  0.00    +0.140 A 
ATOM      3  C   UNL A   1     -25.124   1.481  26.830  0.00  0.00    -0.019 A 
ATOM      4  C   UNL A   1     -24.867   0.168  27.322  0.00  0.00    -0.022 A 
ATOM      5  C   UNL A   1     -26.083  -0.640  25.380  0.00  0.00    +0.029 A 
ATOM      6  C   UNL A   1     -25.422  -0.862  26.551  0.00  0.00    -0.002 A 
ATOM      7  F   UNL A   1     -26.950   0.998  23.866  0.00  0.00    -0.204 F 
ATOM      8  C   UNL A   1     -24.117  -0.280  28.470  0.00  0.00    +0.048 C 
ATOM      9  C   UNL A   1     -22.879   0.315  28.868  0.00  0.00    -0.022 C 
ATOM     10  C   UNL A   1     -24.574   2.578  27.697  0.00  0.00    +0.052 C 
ATOM     11  C   UNL A   1     -24.936   2.557  29.075  0.00  0.00    -0.018 A 
ATOM     12  C   UNL A   1     -25.729   3.663  29.553  0.00  0.00    -0.004 A 
ATOM     13  C   UNL A   1     -25.913   3.691  30.923  0.00  0.00    -0.000 A 
ATOM     14  C   UNL A   1     -25.372   2.766  31.827  0.00  0.00    -0.000 A 
ATOM     15  C   UNL A   1     -24.656   1.670  31.318  0.00  0.00    -0.000 A 
ATOM     16  C   UNL A   1     -24.466   1.628  29.999  0.00  0.00    -0.004 A 
ATOM     17  C   UNL A   1     -23.354   0.617  29.872  0.00  0.00    -0.004 C 
ENDROOT
BRANCH   8  18
ATOM     18  C   UNL A   1     -24.770  -1.126  29.461  0.00  0.00    +0.035 C 
BRANCH  18  19
ATOM     19  C   UNL A   1     -24.808  -2.502  29.329  0.00  0.00    -0.021 A 
ATOM     20  C   UNL A   1     -26.041  -3.261  29.791  0.00  0.00    -0.004 A 
ATOM     21  C   UNL A   1     -26.067  -4.665  29.620  0.00  0.00    -0.000 A 
ATOM     22  C   UNL A   1     -25.064  -5.354  28.950  0.00  0.00    -0.000 A 
ATOM     23  C   UNL A   1     -23.940  -4.614  28.553  0.00  0.00    -0.000 A 
ATOM     24  C   UNL A   1     -23.848  -3.291  28.736  0.00  0.00    -0.004 A 
ENDBRANCH  18  19
ENDBRANCH   8  18
TORSDOF 2
ENDMDL
ENDMDL
