REMARK  Name = No_3076-gen_results/8p0m/2024-11-26-14-13-15/
REMARK  2 active torsions:
REMARK  status: ('A' for Active; 'I' for Inactive)
REMARK    1  A    between atoms: C_8  and  C_9
REMARK    2  A    between atoms: C_9  and  C_11
REMARK                            x       y       z     vdW  Elec       q    Type
REMARK                         _______ _______ _______ _____ _____    ______ ____
ROOT
ATOM      1  C   UNL A   1     -28.016  -0.814  28.878  0.00  0.00    +0.025 A 
ATOM      2  C   UNL A   1     -28.469  -0.785  29.829  0.00  0.00    +0.140 A 
ATOM      3  C   UNL A   1     -26.546  -0.876  28.850  0.00  0.00    -0.019 A 
ATOM      4  C   UNL A   1     -25.804  -1.032  30.057  0.00  0.00    -0.022 A 
ATOM      5  C   UNL A   1     -27.944  -0.987  31.207  0.00  0.00    +0.029 A 
ATOM      6  C   UNL A   1     -26.582  -1.039  31.223  0.00  0.00    -0.002 A 
ATOM      7  F   UNL A   1     -29.909  -0.740  29.864  0.00  0.00    -0.204 F 
ATOM      8  C   UNL A   1     -24.389  -1.201  30.280  0.00  0.00    +0.048 C 
ATOM      9  C   UNL A   1     -23.565  -2.020  29.447  0.00  0.00    -0.022 C 
ATOM     10  C   UNL A   1     -25.696  -0.810  27.613  0.00  0.00    +0.052 C 
ATOM     11  C   UNL A   1     -24.646   0.153  27.600  0.00  0.00    -0.018 A 
ATOM     12  C   UNL A   1     -24.749   1.208  26.622  0.00  0.00    -0.004 A 
ATOM     13  C   UNL A   1     -23.632   2.018  26.529  0.00  0.00    -0.000 A 
ATOM     14  C   UNL A   1     -22.456   1.857  27.275  0.00  0.00    -0.000 A 
ATOM     15  C   UNL A   1     -22.417   0.856  28.259  0.00  0.00    -0.000 A 
ATOM     16  C   UNL A   1     -23.484   0.062  28.361  0.00  0.00    -0.004 A 
ATOM     17  C   UNL A   1     -22.943  -1.094  29.163  0.00  0.00    -0.004 C 
ENDROOT
BRANCH   8  18
ATOM     18  C   UNL A   1     -23.690  -0.269  31.156  0.00  0.00    +0.035 C 
BRANCH  18  19
ATOM     19  C   UNL A   1     -24.366   0.704  31.869  0.00  0.00    -0.021 A 
ATOM     20  C   UNL A   1     -24.262   2.156  31.431  0.00  0.00    -0.004 A 
ATOM     21  C   UNL A   1     -24.986   3.129  32.160  0.00  0.00    -0.000 A 
ATOM     22  C   UNL A   1     -25.866   2.795  33.182  0.00  0.00    -0.000 A 
ATOM     23  C   UNL A   1     -25.919   1.444  33.559  0.00  0.00    -0.000 A 
ATOM     24  C   UNL A   1     -25.217   0.493  32.931  0.00  0.00    -0.004 A 
ENDBRANCH  18  19
ENDBRANCH   8  18
TORSDOF 2
