MODEL 3077
MODEL 1
REMARK VINA RESULT:    -6.642      0.000      0.000
REMARK INTER + INTRA:          -8.668
REMARK INTER:                  -8.195
REMARK INTRA:                  -0.473
REMARK UNBOUND:                -0.473
REMARK  Name = No_3077-gen_results/8p0m/2024-11-26-14-13-15/
REMARK  4 active torsions:
REMARK  status: ('A' for Active; 'I' for Inactive)
REMARK    1  A    between atoms: C_2  and  O_9
REMARK    2  A    between atoms: C_3  and  C_4
REMARK    3  A    between atoms: O_9  and  C_10
REMARK    4  A    between atoms: C_10  and  C_11
REMARK                            x       y       z     vdW  Elec       q    Type
REMARK                         _______ _______ _______ _____ _____    ______ ____
ROOT
ATOM      1  O   UNL A   1     -25.707  -0.792  27.994  0.00  0.00    -0.471 OA
ENDROOT
BRANCH   1   3
ATOM      2  C   UNL A   1     -23.979   0.365  27.872  0.00  0.00    +0.034 A 
ATOM      3  C   UNL A   1     -24.821   0.115  27.290  0.00  0.00    +0.139 A 
ATOM      4  C   UNL A   1     -22.961   1.254  27.193  0.00  0.00    -0.008 A 
ATOM      5  C   UNL A   1     -25.319   0.638  26.011  0.00  0.00    +0.037 A 
ATOM      6  C   UNL A   1     -24.455   1.479  25.342  0.00  0.00    +0.003 A 
ATOM      7  C   UNL A   1     -23.264   1.844  25.914  0.00  0.00    -0.003 A 
BRANCH   4   8
ATOM      8  C   UNL A   1     -21.666   1.617  27.711  0.00  0.00    +0.094 C 
ATOM      9 BR   UNL A   1     -20.674   0.442  28.285  0.00  0.00    -0.076 Br
ENDBRANCH   4   8
ENDBRANCH   1   3
BRANCH   1  10
ATOM     10  C   UNL A   1     -25.304  -1.343  29.153  0.00  0.00    +0.232 C 
BRANCH  10  11
ATOM     11  C   UNL A   1     -25.175  -2.567  29.179  0.00  0.00    +0.017 A 
ATOM     12  C   UNL A   1     -24.116  -3.249  28.569  0.00  0.00    -0.001 A 
ATOM     13  C   UNL A   1     -23.998  -4.669  28.450  0.00  0.00    -0.000 A 
ATOM     14  C   UNL A   1     -25.023  -5.415  29.093  0.00  0.00    -0.000 A 
ATOM     15  C   UNL A   1     -26.082  -4.884  29.695  0.00  0.00    -0.004 A 
ATOM     16  C   UNL A   1     -26.210  -3.472  29.717  0.00  0.00    -0.022 A 
ATOM     17  C   UNL A   1     -27.377  -2.848  30.363  0.00  0.00    +0.031 C 
ENDBRANCH  10  11
ENDBRANCH   1  10
TORSDOF 4
ENDMDL
ENDMDL
