REMARK  Name = No_3077-gen_results/8p0m/2024-11-26-14-13-15/
REMARK  4 active torsions:
REMARK  status: ('A' for Active; 'I' for Inactive)
REMARK    1  A    between atoms: C_2  and  O_9
REMARK    2  A    between atoms: C_3  and  C_4
REMARK    3  A    between atoms: O_9  and  C_10
REMARK    4  A    between atoms: C_10  and  C_11
REMARK                            x       y       z     vdW  Elec       q    Type
REMARK                         _______ _______ _______ _____ _____    ______ ____
ROOT
ATOM      1  O   UNL A   1     -29.915  -0.753  29.731  0.00  0.00    -0.471 OA
ENDROOT
BRANCH   1   3
ATOM      2  C   UNL A   1     -28.016  -0.814  28.878  0.00  0.00    +0.034 A 
ATOM      3  C   UNL A   1     -28.469  -0.785  29.829  0.00  0.00    +0.139 A 
ATOM      4  C   UNL A   1     -26.504  -0.778  28.877  0.00  0.00    -0.008 A 
ATOM      5  C   UNL A   1     -27.918  -0.937  31.182  0.00  0.00    +0.037 A 
ATOM      6  C   UNL A   1     -26.542  -0.940  31.261  0.00  0.00    +0.003 A 
ATOM      7  C   UNL A   1     -25.783  -0.893  30.120  0.00  0.00    -0.003 A 
BRANCH   4   8
ATOM      8  C   UNL A   1     -25.654  -0.660  27.719  0.00  0.00    +0.094 C 
ATOM      9 BR   UNL A   1     -24.527   0.532  27.671  0.00  0.00    -0.076 Br
ENDBRANCH   4   8
ENDBRANCH   1   3
BRANCH   1  10
ATOM     10  C   UNL A   1     -30.583   0.338  30.149  0.00  0.00    +0.232 C 
BRANCH  10  11
ATOM     11  C   UNL A   1     -31.410   0.821  29.376  0.00  0.00    +0.017 A 
ATOM     12  C   UNL A   1     -31.778   0.229  28.163  0.00  0.00    -0.001 A 
ATOM     13  C   UNL A   1     -32.623   0.817  27.171  0.00  0.00    -0.000 A 
ATOM     14  C   UNL A   1     -33.182   2.075  27.525  0.00  0.00    -0.000 A 
ATOM     15  C   UNL A   1     -32.903   2.741  28.640  0.00  0.00    -0.004 A 
ATOM     16  C   UNL A   1     -31.992   2.165  29.562  0.00  0.00    -0.022 A 
ATOM     17  C   UNL A   1     -31.648   2.880  30.802  0.00  0.00    +0.031 C 
ENDBRANCH  10  11
ENDBRANCH   1  10
TORSDOF 4
