REMARK  Name = No_3078-gen_results/8p0m/2024-11-26-14-13-15/
REMARK  2 active torsions:
REMARK  status: ('A' for Active; 'I' for Inactive)
REMARK    1  A    between atoms: C_5  and  C_8
REMARK    2  A    between atoms: C_9  and  C_10
REMARK                            x       y       z     vdW  Elec       q    Type
REMARK                         _______ _______ _______ _____ _____    ______ ____
ROOT
ATOM      1  C   UNL A   1     -30.027  -0.028  31.761  0.00  0.00    +0.000 C 
ATOM      2  C   UNL A   1     -29.989   0.952  32.573  0.00  0.00    +0.000 C 
ENDROOT
BRANCH   1   7
ATOM      3  C   UNL A   1     -28.016  -0.814  28.878  0.00  0.00    +0.011 A 
ATOM      4  C   UNL A   1     -28.469  -0.785  29.829  0.00  0.00    +0.001 A 
ATOM      5  C   UNL A   1     -28.196   0.348  28.055  0.00  0.00    +0.058 A 
ATOM      6  C   UNL A   1     -29.019   1.350  28.378  0.00  0.00    +0.011 A 
ATOM      7  C   UNL A   1     -29.411   0.180  30.378  0.00  0.00    +0.000 A 
ATOM      8  C   UNL A   1     -29.606   1.250  29.619  0.00  0.00    +0.001 A 
ATOM      9 CL   UNL A   1     -27.347   0.376  26.515  0.00  0.00    -0.082 Cl
ENDBRANCH   1   7
BRANCH   2  10
ATOM     10  C   UNL A   1     -29.142   2.078  32.358  0.00  0.00    +0.000 A 
ATOM     11  C   UNL A   1     -28.663   2.670  33.332  0.00  0.00    +0.000 A 
ATOM     12  C   UNL A   1     -27.744   3.823  33.092  0.00  0.00    +0.000 A 
ATOM     13  C   UNL A   1     -27.400   4.178  31.768  0.00  0.00    +0.000 A 
ATOM     14  C   UNL A   1     -27.906   3.409  30.805  0.00  0.00    +0.000 A 
ATOM     15  C   UNL A   1     -28.680   2.402  31.062  0.00  0.00    +0.000 A 
ENDBRANCH   2  10
TORSDOF 2
