MODEL 3078
MODEL 1
REMARK VINA RESULT:    -5.985      0.000      0.000
REMARK INTER + INTRA:          -7.185
REMARK INTER:                  -6.685
REMARK INTRA:                  -0.500
REMARK UNBOUND:                -0.500
REMARK  Name = No_3078-gen_results/8p0m/2024-11-26-14-13-15/
REMARK  2 active torsions:
REMARK  status: ('A' for Active; 'I' for Inactive)
REMARK    1  A    between atoms: C_5  and  C_8
REMARK    2  A    between atoms: C_9  and  C_10
REMARK                            x       y       z     vdW  Elec       q    Type
REMARK                         _______ _______ _______ _____ _____    ______ ____
ROOT
ATOM      1  C   UNL A   1     -29.931 -14.218  12.817  0.00  0.00    +0.000 C 
ATOM      2  C   UNL A   1     -29.892 -15.313  12.170  0.00  0.00    +0.000 C 
ENDROOT
BRANCH   1   7
ATOM      3  C   UNL A   1     -29.159 -11.563  10.507  0.00  0.00    +0.011 A 
ATOM      4  C   UNL A   1     -29.125 -12.390  11.161  0.00  0.00    +0.001 A 
ATOM      5  C   UNL A   1     -30.328 -10.736  10.593  0.00  0.00    +0.058 A 
ATOM      6  C   UNL A   1     -31.399 -11.059  11.324  0.00  0.00    +0.011 A 
ATOM      7  C   UNL A   1     -30.168 -12.937  12.018  0.00  0.00    +0.000 A 
ATOM      8  C   UNL A   1     -31.265 -12.195  12.090  0.00  0.00    +0.001 A 
ATOM      9 CL   UNL A   1     -30.353  -9.282   9.603  0.00  0.00    -0.082 Cl
ENDBRANCH   1   7
BRANCH   2  10
ATOM     10  C   UNL A   1     -30.362 -15.415  10.828  0.00  0.00    +0.000 A 
ATOM     11  C   UNL A   1     -29.589 -15.798   9.943  0.00  0.00    +0.000 A 
ATOM     12  C   UNL A   1     -30.106 -15.939   8.548  0.00  0.00    +0.000 A 
ATOM     13  C   UNL A   1     -31.471 -15.687   8.281  0.00  0.00    +0.000 A 
ATOM     14  C   UNL A   1     -32.225 -15.370   9.332  0.00  0.00    +0.000 A 
ATOM     15  C   UNL A   1     -31.738 -15.284  10.529  0.00  0.00    +0.000 A 
ENDBRANCH   2  10
TORSDOF 2
ENDMDL
ENDMDL
