MODEL 3079
MODEL 1
REMARK VINA RESULT:    -6.666      0.000      0.000
REMARK INTER + INTRA:          -7.384
REMARK INTER:                  -7.056
REMARK INTRA:                  -0.328
REMARK UNBOUND:                -0.328
REMARK  Name = No_3079-gen_results/8p0m/2024-11-26-14-13-15/
REMARK  1 active torsions:
REMARK  status: ('A' for Active; 'I' for Inactive)
REMARK    1  A    between atoms: C_2  and  C_7
REMARK                            x       y       z     vdW  Elec       q    Type
REMARK                         _______ _______ _______ _____ _____    ______ ____
ROOT
ATOM      1  C   UNL A   1     -24.408  -0.407  27.998  0.00  0.00    +0.000 A 
ATOM      2  C   UNL A   1     -23.892  -1.286  28.648  0.00  0.00    +0.000 A 
ATOM      3  C   UNL A   1     -22.598  -1.152  29.139  0.00  0.00    +0.000 A 
ATOM      4  C   UNL A   1     -21.814   0.021  28.850  0.00  0.00    +0.000 A 
ATOM      5  C   UNL A   1     -22.480   0.978  28.072  0.00  0.00    +0.000 A 
ATOM      6  C   UNL A   1     -23.699   0.795  27.618  0.00  0.00    +0.000 A 
ENDROOT
BRANCH   2   7
ATOM      7  C   UNL A   1     -24.541  -2.573  29.018  0.00  0.00    +0.000 A 
ATOM      8  C   UNL A   1     -25.637  -2.786  29.512  0.00  0.00    +0.000 A 
ATOM      9  C   UNL A   1     -26.235  -4.110  29.725  0.00  0.00    +0.000 A 
ATOM     10  C   UNL A   1     -25.454  -5.224  29.353  0.00  0.00    +0.000 A 
ATOM     11  C   UNL A   1     -24.013  -3.877  28.529  0.00  0.00    +0.000 A 
ATOM     12  C   UNL A   1     -24.383  -5.040  28.730  0.00  0.00    +0.000 A 
ENDBRANCH   2   7
TORSDOF 1
ENDMDL
ENDMDL
