MODEL 307
MODEL 1
REMARK VINA RESULT:    -5.497      0.000      0.000
REMARK INTER + INTRA:          -8.662
REMARK INTER:                  -8.068
REMARK INTRA:                  -0.594
REMARK UNBOUND:                -0.594
REMARK  Name = No_307-gen_results/8p0m/2024-11-26-14-13-15/
REMARK  8 active torsions:
REMARK  status: ('A' for Active; 'I' for Inactive)
REMARK    1  A    between atoms: P_1  and  O_2
REMARK    2  A    between atoms: P_1  and  O_3
REMARK    3  A    between atoms: O_2  and  C_6
REMARK    4  A    between atoms: C_6  and  C_7
REMARK    5  A    between atoms: C_7  and  C_8
REMARK    6  A    between atoms: C_7  and  O_11
REMARK    7  A    between atoms: C_8  and  C_9
REMARK    8  A    between atoms: C_9  and  C_10
REMARK                            x       y       z     vdW  Elec       q    Type
REMARK                         _______ _______ _______ _____ _____    ______ ____
ROOT
ATOM      1  C   UNL A   1     -13.793 -20.460  19.004  0.00  0.00    +0.251 C 
ENDROOT
BRANCH   1   2
ATOM      2  C   UNL A   1     -13.603 -21.035  20.006  0.00  0.00    +0.317 C 
ATOM      3  F   UNL A   1     -14.631 -21.443  20.829  0.00  0.00    -0.201 F 
BRANCH   2   4
ATOM      4  O   UNL A   1     -12.668 -20.719  20.963  0.00  0.00    -0.280 OA
BRANCH   4   5
ATOM      5  P   UNL A   1     -12.185 -21.371  21.757  0.00  0.00    +0.256 P 
ATOM      6  O   UNL A   1     -12.726 -21.080  23.231  0.00  0.00    -0.435 OA
ATOM      7  O   UNL A   1     -12.170 -22.897  21.772  0.00  0.00    -0.515 OA
BRANCH   5   8
ATOM      8  O   UNL A   1     -10.649 -20.936  21.937  0.00  0.00    -0.134 OA
ATOM      9  F   UNL A   1      -9.639 -21.062  21.759  0.00  0.00    -0.041 F 
ENDBRANCH   5   8
ENDBRANCH   4   5
ENDBRANCH   2   4
ENDBRANCH   1   2
BRANCH   1  10
ATOM     10  C   UNL A   1     -13.064 -20.776  17.784  0.00  0.00    +0.222 C 
ATOM     11  O   UNL A   1     -13.288 -22.184  17.502  0.00  0.00    -0.217 OA
BRANCH  10  12
ATOM     12  C   UNL A   1     -11.724 -20.504  17.794  0.00  0.00    +0.231 C 
ATOM     13  O   UNL A   1     -10.907 -21.753  17.719  0.00  0.00    -0.216 OA
BRANCH  12  14
ATOM     14  C   UNL A   1     -11.176 -20.030  16.399  0.00  0.00    +0.263 C 
ATOM     15 CL   UNL A   1     -10.197 -21.028  15.669  0.00  0.00    -0.076 Cl
ATOM     16  O   UNL A   1     -10.221 -18.917  16.695  0.00  0.00    -0.202 OA
ENDBRANCH  12  14
ENDBRANCH  10  12
ENDBRANCH   1  10
BRANCH   1  17
ATOM     17  O   UNL A   1     -13.784 -18.972  19.148  0.00  0.00    -0.174 OA
ATOM     18  F   UNL A   1     -14.713 -18.251  19.102  0.00  0.00    -0.047 F 
ENDBRANCH   1  17
TORSDOF 8
ENDMDL
ENDMDL
