REMARK  Name = No_308-gen_results/8p0m/2024-11-26-14-13-15/
REMARK  3 active torsions:
REMARK  status: ('A' for Active; 'I' for Inactive)
REMARK    1  A    between atoms: C_2  and  C_7
REMARK    2  A    between atoms: C_8  and  C_10
REMARK    3  A    between atoms: C_16  and  C_19
REMARK                            x       y       z     vdW  Elec       q    Type
REMARK                         _______ _______ _______ _____ _____    ______ ____
ROOT
ATOM      1  C   UNL A   1     -26.032   2.594  29.191  0.00  0.00    +0.122 C 
ATOM      2  C   UNL A   1     -24.623   2.436  29.316  0.00  0.00    +0.321 C 
ATOM      3  C   UNL A   1     -26.474   3.834  29.925  0.00  0.00    +0.028 C 
ATOM      4  C   UNL A   1     -26.120   3.844  31.266  0.00  0.00    +0.121 C 
ATOM      5  C   UNL A   1     -24.631   3.784  31.493  0.00  0.00    +0.217 C 
ATOM      6  O   UNL A   1     -24.198   2.478  30.875  0.00  0.00    -0.448 OA
ATOM      7  O   UNL A   1     -23.750   2.080  28.625  0.00  0.00    -0.250 OA
ENDROOT
BRANCH   4   8
ATOM      8  C   UNL A   1     -26.627   5.088  32.076  0.00  0.00    +0.229 C 
ATOM      9  O   UNL A   1     -26.337   6.113  31.704  0.00  0.00    -0.275 OA
ATOM     10  N   UNL A   1     -26.995   4.805  33.381  0.00  0.00    -0.279 N 
ATOM     11  C   UNL A   1     -27.263   3.537  33.972  0.00  0.00    +0.093 C 
ATOM     12  C   UNL A   1     -27.402   3.506  35.241  0.00  0.00    +0.022 C 
ATOM     13  C   UNL A   1     -27.381   4.639  36.056  0.00  0.00    +0.004 C 
ATOM     14  C   UNL A   1     -27.057   5.880  35.510  0.00  0.00    +0.022 C 
ATOM     15  C   UNL A   1     -26.810   5.940  34.207  0.00  0.00    +0.093 C 
ENDBRANCH   4   8
BRANCH   1  17
ATOM     16  C   UNL A   1     -27.106   1.102  27.759  0.00  0.00    -0.003 A 
ATOM     17  C   UNL A   1     -26.716   2.235  27.994  0.00  0.00    -0.012 A 
ATOM     18  C   UNL A   1     -27.681   0.855  26.426  0.00  0.00    -0.000 A 
ATOM     19  C   UNL A   1     -26.861   3.380  27.076  0.00  0.00    -0.004 A 
ATOM     20  C   UNL A   1     -27.457   3.269  25.892  0.00  0.00    -0.000 A 
ATOM     21  C   UNL A   1     -27.738   1.758  25.638  0.00  0.00    -0.000 A 
BRANCH  16  23
ATOM     22  C   UNL A   1     -28.016  -0.814  28.878  0.00  0.00    +0.011 A 
ATOM     23  C   UNL A   1     -27.064  -0.119  28.608  0.00  0.00    +0.001 A 
ATOM     24  C   UNL A   1     -25.792  -0.430  29.076  0.00  0.00    +0.000 A 
ATOM     25  C   UNL A   1     -25.576  -1.565  29.936  0.00  0.00    +0.001 A 
ATOM     26  C   UNL A   1     -26.735  -2.300  30.217  0.00  0.00    +0.011 A 
ATOM     27  C   UNL A   1     -27.918  -1.954  29.763  0.00  0.00    +0.058 A 
ATOM     28 CL   UNL A   1     -29.372  -2.729  30.121  0.00  0.00    -0.082 Cl
ENDBRANCH  16  23
ENDBRANCH   1  17
TORSDOF 3
