MODEL 3080
MODEL 1
REMARK VINA RESULT:    -8.040      0.000      0.000
REMARK INTER + INTRA:         -11.431
REMARK INTER:                  -9.920
REMARK INTRA:                  -1.512
REMARK UNBOUND:                -1.512
REMARK  Name = No_3080-gen_results/8p0m/2024-11-26-14-13-15/
REMARK  4 active torsions:
REMARK  status: ('A' for Active; 'I' for Inactive)
REMARK    1  A    between atoms: C_3  and  C_4
REMARK    2  A    between atoms: C_4  and  C_13
REMARK    3  A    between atoms: C_5  and  C_6
REMARK    4  A    between atoms: C_7  and  C_9
REMARK                            x       y       z     vdW  Elec       q    Type
REMARK                         _______ _______ _______ _____ _____    ______ ____
ROOT
ATOM      1  C   UNL A   1     -24.508  -1.319  29.141  0.00  0.00    -0.004 C 
ATOM      2  C   UNL A   1     -24.439  -0.653  28.303  0.00  0.00    -0.021 C 
ATOM      3  C   UNL A   1     -25.939  -0.060  27.884  0.00  0.00    +0.031 C 
ENDROOT
BRANCH   1   6
ATOM      4  C   UNL A   1     -25.628  -0.466  31.280  0.00  0.00    -0.000 A 
ATOM      5  C   UNL A   1     -25.536  -0.465  32.330  0.00  0.00    -0.000 A 
ATOM      6  C   UNL A   1     -24.471  -1.051  30.592  0.00  0.00    -0.000 A 
ATOM      7  C   UNL A   1     -24.436  -0.653  33.232  0.00  0.00    -0.000 A 
ATOM      8  C   UNL A   1     -23.332  -1.111  32.627  0.00  0.00    -0.000 A 
ATOM      9  C   UNL A   1     -23.316  -1.325  31.293  0.00  0.00    -0.000 A 
ENDBRANCH   1   6
BRANCH   1  10
ATOM     10  C   UNL A   1     -24.974  -2.704  29.065  0.00  0.00    -0.000 A 
ATOM     11  C   UNL A   1     -25.865  -3.305  29.579  0.00  0.00    -0.000 A 
ATOM     12  C   UNL A   1     -26.038  -4.735  29.602  0.00  0.00    -0.000 A 
ATOM     13  C   UNL A   1     -25.027  -5.473  29.009  0.00  0.00    -0.000 A 
ATOM     14  C   UNL A   1     -24.005  -3.693  28.539  0.00  0.00    -0.000 A 
ATOM     15  C   UNL A   1     -23.991  -4.891  28.494  0.00  0.00    -0.000 A 
ENDBRANCH   1  10
BRANCH   2  16
ATOM     16  C   UNL A   1     -23.782   0.228  27.632  0.00  0.00    +0.005 C 
ATOM     17  C   UNL A   1     -23.786   1.102  26.811  0.00  0.00    +0.051 C 
BRANCH  17  18
ATOM     18  C   UNL A   1     -23.564   1.855  26.061  0.00  0.00    -0.029 C 
ATOM     19  C   UNL A   1     -22.970   2.537  25.194  0.00  0.00    +0.111 C 
ATOM     20  F   UNL A   1     -21.837   2.482  24.889  0.00  0.00    -0.143 F 
ENDBRANCH  17  18
ENDBRANCH   2  16
TORSDOF 4
ENDMDL
ENDMDL
