REMARK  Name = No_3081-gen_results/8p0m/2024-11-26-14-13-15/
REMARK  8 active torsions:
REMARK  status: ('A' for Active; 'I' for Inactive)
REMARK    1  A    between atoms: C_1  and  C_2
REMARK    2  A    between atoms: C_1  and  C_8
REMARK    3  A    between atoms: C_3  and  C_23
REMARK    4  A    between atoms: C_5  and  C_10
REMARK    5  A    between atoms: C_8  and  C_9
REMARK    6  A    between atoms: C_13  and  C_14
REMARK    7  A    between atoms: C_18  and  C_20
REMARK    8  A    between atoms: C_23  and  C_25
REMARK                            x       y       z     vdW  Elec       q    Type
REMARK                         _______ _______ _______ _____ _____    ______ ____
ROOT
ATOM      1  C   UNL A   1     -28.016  -0.814  28.878  0.00  0.00    +0.031 C 
ENDROOT
BRANCH   1   2
ATOM      2  C   UNL A   1     -27.064  -0.119  28.608  0.00  0.00    -0.025 A 
ATOM      3  C   UNL A   1     -26.972   0.714  27.506  0.00  0.00    -0.019 A 
ATOM      4  C   UNL A   1     -25.820   1.491  27.116  0.00  0.00    +0.004 A 
ATOM      5  C   UNL A   1     -24.656   1.424  27.918  0.00  0.00    +0.097 A 
ATOM      6  C   UNL A   1     -24.685   0.590  29.066  0.00  0.00    +0.008 A 
ATOM      7  C   UNL A   1     -25.810  -0.127  29.334  0.00  0.00    -0.004 A 
BRANCH   5   8
ATOM      8  C   UNL A   1     -23.452   2.189  27.608  0.00  0.00    +0.477 C 
ATOM      9  N   UNL A   1     -22.468   1.850  27.309  0.00  0.00    +0.205 NA
ATOM     10  N   UNL A   1     -23.810   3.463  27.074  0.00  0.00    +0.205 NA
ENDBRANCH   5   8
BRANCH   3  11
ATOM     11  C   UNL A   1     -28.122   0.769  26.610  0.00  0.00    +0.087 C 
ATOM     12  C   UNL A   1     -27.877   0.884  25.312  0.00  0.00    +0.013 C 
BRANCH  11  13
ATOM     13  C   UNL A   1     -29.415   0.686  27.076  0.00  0.00    +0.211 C 
ATOM     14  O   UNL A   1     -29.824   1.039  28.210  0.00  0.00    -0.288 OA
ENDBRANCH  11  13
ENDBRANCH   3  11
ENDBRANCH   1   2
BRANCH   1  15
ATOM     15  C   UNL A   1     -28.694  -0.473  30.159  0.00  0.00    +0.031 C 
BRANCH  15  16
ATOM     16  C   UNL A   1     -29.787  -1.325  30.637  0.00  0.00    -0.026 C 
ATOM     17  C   UNL A   1     -30.027  -2.242  30.085  0.00  0.00    -0.005 C 
BRANCH  17  18
ATOM     18  C   UNL A   1     -31.224  -3.021  30.585  0.00  0.00    -0.000 A 
ATOM     19  C   UNL A   1     -31.592  -4.248  29.930  0.00  0.00    -0.000 A 
ATOM     20  C   UNL A   1     -32.657  -4.617  29.631  0.00  0.00    +0.000 A 
ATOM     21  C   UNL A   1     -33.743  -3.834  29.865  0.00  0.00    +0.007 A 
ATOM     22  C   UNL A   1     -33.593  -2.679  30.585  0.00  0.00    +0.080 A 
ATOM     23  C   UNL A   1     -32.304  -2.196  30.785  0.00  0.00    +0.007 A 
BRANCH  22  24
ATOM     24  C   UNL A   1     -34.788  -1.871  30.944  0.00  0.00    +0.388 C 
ATOM     25  O   UNL A   1     -35.712  -2.308  31.364  0.00  0.00    -0.241 OA
ATOM     26  O   UNL A   1     -34.666  -0.563  30.491  0.00  0.00    -0.241 OA
ENDBRANCH  22  24
ENDBRANCH  17  18
ENDBRANCH  15  16
ENDBRANCH   1  15
TORSDOF 8
