REMARK  Name = No_3082-gen_results/8p0m/2024-11-26-14-13-15/
REMARK  4 active torsions:
REMARK  status: ('A' for Active; 'I' for Inactive)
REMARK    1  A    between atoms: C_1  and  C_14
REMARK    2  A    between atoms: C_3  and  C_7
REMARK    3  A    between atoms: C_5  and  C_17
REMARK    4  A    between atoms: N_18  and  C_20
REMARK                            x       y       z     vdW  Elec       q    Type
REMARK                         _______ _______ _______ _____ _____    ______ ____
ROOT
ATOM      1  C   UNL A   1     -28.016  -0.814  28.878  0.00  0.00    +0.080 A 
ATOM      2  C   UNL A   1     -27.064  -0.119  28.608  0.00  0.00    +0.007 A 
ATOM      3  C   UNL A   1     -26.972   0.714  27.506  0.00  0.00    +0.007 A 
ATOM      4  C   UNL A   1     -28.105   0.774  26.642  0.00  0.00    +0.039 A 
ATOM      5  C   UNL A   1     -29.204   0.118  27.048  0.00  0.00    +0.062 A 
ATOM      6  C   UNL A   1     -29.213  -0.609  28.128  0.00  0.00    +0.012 A 
ATOM      7 BR   UNL A   1     -27.973   1.847  25.114  0.00  0.00    -0.049 Br
ENDROOT
BRANCH   3   8
ATOM      8  C   UNL A   1     -25.711   1.452  27.138  0.00  0.00    +0.001 A 
ATOM      9  C   UNL A   1     -25.207   2.413  27.932  0.00  0.00    +0.000 A 
ATOM     10  C   UNL A   1     -24.288   2.821  28.183  0.00  0.00    +0.000 A 
ATOM     11  C   UNL A   1     -23.080   2.245  27.369  0.00  0.00    +0.000 A 
ATOM     12  C   UNL A   1     -23.428   1.210  26.525  0.00  0.00    +0.000 A 
ATOM     13  C   UNL A   1     -24.682   0.724  26.456  0.00  0.00    +0.000 A 
ENDBRANCH   3   8
BRANCH   1  14
ATOM     14  C   UNL A   1     -28.086  -1.695  30.120  0.00  0.00    +0.388 C 
ATOM     15  O   UNL A   1     -27.096  -2.180  30.473  0.00  0.00    -0.241 OA
ATOM     16  O   UNL A   1     -29.172  -1.924  30.645  0.00  0.00    -0.241 OA
ENDBRANCH   1  14
BRANCH   5  17
ATOM     17  C   UNL A   1     -30.515   0.222  26.345  0.00  0.00    +0.270 C 
ATOM     18  N   UNL A   1     -31.315   0.808  26.510  0.00  0.00    -0.173 NA
ATOM     19  O   UNL A   1     -30.525  -0.566  25.244  0.00  0.00    -0.268 OA
BRANCH  18  20
ATOM     20  C   UNL A   1     -31.466   1.728  27.663  0.00  0.00    +0.101 A 
ATOM     21  C   UNL A   1     -32.042   2.512  28.111  0.00  0.00    +0.019 A 
ATOM     22  C   UNL A   1     -31.953   3.298  29.317  0.00  0.00    +0.002 A 
ATOM     23  C   UNL A   1     -30.854   3.031  30.133  0.00  0.00    +0.002 A 
ATOM     24  C   UNL A   1     -29.972   2.038  29.749  0.00  0.00    +0.031 A 
ATOM     25  C   UNL A   1     -30.216   1.469  28.619  0.00  0.00    +0.155 A 
ATOM     26  F   UNL A   1     -30.354   0.464  28.966  0.00  0.00    -0.203 F 
ENDBRANCH  18  20
ENDBRANCH   5  17
TORSDOF 4
