REMARK  Name = No_3083-gen_results/8p0m/2024-11-26-14-13-15/
REMARK  3 active torsions:
REMARK  status: ('A' for Active; 'I' for Inactive)
REMARK    1  A    between atoms: C_2  and  C_13
REMARK    2  A    between atoms: N_15  and  C_16
REMARK    3  A    between atoms: C_16  and  C_17
REMARK                            x       y       z     vdW  Elec       q    Type
REMARK                         _______ _______ _______ _____ _____    ______ ____
ROOT
ATOM      1  C   UNL A   1     -28.016  -0.814  28.878  0.00  0.00    +0.024 A 
ATOM      2  C   UNL A   1     -28.469  -0.785  29.829  0.00  0.00    +0.057 A 
ATOM      3  C   UNL A   1     -26.546  -0.876  28.850  0.00  0.00    +0.085 A 
ATOM      4  C   UNL A   1     -25.804  -1.032  30.057  0.00  0.00    +0.018 A 
ATOM      5  C   UNL A   1     -24.370  -1.100  30.072  0.00  0.00    +0.006 A 
ATOM      6  C   UNL A   1     -27.990  -1.005  31.209  0.00  0.00    +0.005 A 
ATOM      7  C   UNL A   1     -26.432  -1.048  31.250  0.00  0.00    +0.002 A 
ATOM      8  C   UNL A   1     -23.722  -1.322  30.821  0.00  0.00    +0.000 A 
ATOM      9  C   UNL A   1     -22.196  -1.209  30.866  0.00  0.00    +0.000 A 
ATOM     10  C   UNL A   1     -21.673  -0.829  29.645  0.00  0.00    +0.000 A 
ATOM     11  C   UNL A   1     -23.750  -0.644  28.760  0.00  0.00    +0.058 A 
ATOM     12  C   UNL A   1     -22.443  -0.495  28.637  0.00  0.00    +0.005 A 
ATOM     13  N   UNL A   1     -25.848  -0.789  27.690  0.00  0.00    -0.208 NA
ATOM     14  C   UNL A   1     -24.668  -0.484  27.644  0.00  0.00    +0.279 A 
ATOM     15  O   UNL A   1     -24.176   0.046  26.555  0.00  0.00    -0.265 OA
ENDROOT
BRANCH   2  16
ATOM     16  C   UNL A   1     -30.064  -0.693  29.924  0.00  0.00    +0.265 C 
ATOM     17  O   UNL A   1     -30.523  -0.255  28.966  0.00  0.00    -0.268 OA
ATOM     18  N   UNL A   1     -30.766  -1.085  31.021  0.00  0.00    -0.197 NA
BRANCH  18  19
ATOM     19  C   UNL A   1     -32.200  -0.972  31.037  0.00  0.00    +0.168 C 
BRANCH  19  20
ATOM     20  C   UNL A   1     -32.763  -1.663  31.852  0.00  0.00    +0.261 C 
ATOM     21 CL   UNL A   1     -32.702  -2.646  32.534  0.00  0.00    -0.075 Cl
ATOM     22  F   UNL A   1     -34.127  -1.027  32.012  0.00  0.00    -0.217 F 
ENDBRANCH  19  20
ENDBRANCH  18  19
ENDBRANCH   2  16
TORSDOF 3
