REMARK  Name = No_3084-gen_results/8p0m/2024-11-26-14-13-15/
REMARK  2 active torsions:
REMARK  status: ('A' for Active; 'I' for Inactive)
REMARK    1  A    between atoms: C_2  and  C_8
REMARK    2  A    between atoms: C_5  and  O_7
REMARK                            x       y       z     vdW  Elec       q    Type
REMARK                         _______ _______ _______ _____ _____    ______ ____
ROOT
ATOM      1  C   UNL A   1     -28.016  -0.814  28.878  0.00  0.00    +0.003 A 
ATOM      2  C   UNL A   1     -27.064  -0.119  28.608  0.00  0.00    +0.000 A 
ATOM      3  C   UNL A   1     -27.001   0.691  27.491  0.00  0.00    +0.003 A 
ATOM      4  C   UNL A   1     -28.137   0.736  26.635  0.00  0.00    +0.037 A 
ATOM      5  C   UNL A   1     -29.236   0.076  27.069  0.00  0.00    +0.139 A 
ATOM      6  C   UNL A   1     -29.218  -0.643  28.175  0.00  0.00    +0.037 A 
ENDROOT
BRANCH   2   7
ATOM      7  C   UNL A   1     -25.729  -0.204  29.399  0.00  0.00    +0.000 A 
ATOM      8  C   UNL A   1     -25.425  -1.037  30.054  0.00  0.00    +0.000 A 
ATOM      9  C   UNL A   1     -24.349  -1.306  30.519  0.00  0.00    +0.000 A 
ATOM     10  C   UNL A   1     -23.199  -0.397  30.447  0.00  0.00    +0.000 A 
ATOM     11  C   UNL A   1     -23.470   0.701  29.677  0.00  0.00    +0.000 A 
ATOM     12  C   UNL A   1     -24.747   0.834  29.032  0.00  0.00    +0.000 A 
ENDBRANCH   2   7
BRANCH   5  13
ATOM     13  O   UNL A   1     -30.342   0.162  26.279  0.00  0.00    -0.471 OA
ATOM     14  C   UNL A   1     -30.287  -0.326  25.064  0.00  0.00    +0.253 C 
ENDBRANCH   5  13
TORSDOF 2
