MODEL 3084
MODEL 1
REMARK VINA RESULT:    -6.392      0.000      0.000
REMARK INTER + INTRA:          -7.583
REMARK INTER:                  -7.139
REMARK INTRA:                  -0.443
REMARK UNBOUND:                -0.443
REMARK  Name = No_3084-gen_results/8p0m/2024-11-26-14-13-15/
REMARK  2 active torsions:
REMARK  status: ('A' for Active; 'I' for Inactive)
REMARK    1  A    between atoms: C_2  and  C_8
REMARK    2  A    between atoms: C_5  and  O_7
REMARK                            x       y       z     vdW  Elec       q    Type
REMARK                         _______ _______ _______ _____ _____    ______ ____
ROOT
ATOM      1  C   UNL A   1     -23.225  -0.729  28.945  0.00  0.00    +0.003 A 
ATOM      2  C   UNL A   1     -24.172  -1.274  28.426  0.00  0.00    +0.000 A 
ATOM      3  C   UNL A   1     -24.899  -0.722  27.390  0.00  0.00    +0.003 A 
ATOM      4  C   UNL A   1     -24.483   0.542  26.883  0.00  0.00    +0.037 A 
ATOM      5  C   UNL A   1     -23.323   1.030  27.379  0.00  0.00    +0.139 A 
ATOM      6  C   UNL A   1     -22.670   0.411  28.344  0.00  0.00    +0.037 A 
ENDROOT
BRANCH   2   7
ATOM      7  C   UNL A   1     -24.785  -2.583  28.997  0.00  0.00    +0.000 A 
ATOM      8  C   UNL A   1     -25.752  -2.661  29.521  0.00  0.00    +0.000 A 
ATOM      9  C   UNL A   1     -26.411  -3.629  29.794  0.00  0.00    +0.000 A 
ATOM     10  C   UNL A   1     -25.917  -5.002  29.632  0.00  0.00    +0.000 A 
ATOM     11  C   UNL A   1     -24.698  -5.031  29.012  0.00  0.00    +0.000 A 
ATOM     12  C   UNL A   1     -24.077  -3.809  28.581  0.00  0.00    +0.000 A 
ENDBRANCH   2   7
BRANCH   5  13
ATOM     13  O   UNL A   1     -22.894   2.212  26.857  0.00  0.00    -0.471 OA
ATOM     14  C   UNL A   1     -23.075   2.438  25.579  0.00  0.00    +0.253 C 
ENDBRANCH   5  13
TORSDOF 2
ENDMDL
ENDMDL
