MODEL 3085
MODEL 1
REMARK VINA RESULT:    -5.968      0.000      0.000
REMARK INTER + INTRA:          -7.008
REMARK INTER:                  -6.666
REMARK INTRA:                  -0.342
REMARK UNBOUND:                -0.342
REMARK  Name = No_3085-gen_results/8p0m/2024-11-26-14-13-15/
REMARK  2 active torsions:
REMARK  status: ('A' for Active; 'I' for Inactive)
REMARK    1  A    between atoms: C_2  and  O_7
REMARK    2  A    between atoms: O_7  and  C_8
REMARK                            x       y       z     vdW  Elec       q    Type
REMARK                         _______ _______ _______ _____ _____    ______ ____
ROOT
ATOM      1  O   UNL A   1     -24.715  -1.302  29.682  0.00  0.00    -0.454 OA
ENDROOT
BRANCH   1   3
ATOM      2  C   UNL A   1     -23.437   0.169  28.778  0.00  0.00    +0.037 A 
ATOM      3  C   UNL A   1     -24.285  -0.425  28.583  0.00  0.00    +0.145 A 
ATOM      4  C   UNL A   1     -22.998   1.069  27.643  0.00  0.00    +0.003 A 
ATOM      5  C   UNL A   1     -23.803   1.166  26.488  0.00  0.00    +0.000 A 
ATOM      6  C   UNL A   1     -25.300  -0.489  27.507  0.00  0.00    +0.037 A 
ATOM      7  C   UNL A   1     -24.934   0.330  26.448  0.00  0.00    +0.003 A 
ENDBRANCH   1   3
BRANCH   1   8
ATOM      8  C   UNL A   1     -24.924  -2.599  29.471  0.00  0.00    +0.145 A 
ATOM      9  C   UNL A   1     -26.003  -3.067  29.864  0.00  0.00    +0.037 A 
ATOM     10  C   UNL A   1     -26.279  -4.493  29.704  0.00  0.00    +0.003 A 
ATOM     11  C   UNL A   1     -25.286  -5.282  29.077  0.00  0.00    +0.000 A 
ATOM     12  C   UNL A   1     -24.120  -4.671  28.668  0.00  0.00    +0.003 A 
ATOM     13  C   UNL A   1     -23.866  -3.370  28.851  0.00  0.00    +0.037 A 
ENDBRANCH   1   8
TORSDOF 2
ENDMDL
ENDMDL
