REMARK  Name = No_3086-gen_results/8p0m/2024-11-26-14-13-15/
REMARK  0 active torsions:
REMARK  status: ('A' for Active; 'I' for Inactive)
REMARK                            x       y       z     vdW  Elec       q    Type
REMARK                         _______ _______ _______ _____ _____    ______ ____
ROOT
ATOM      1  C   UNL A   1     -28.016  -0.814  28.878  0.00  0.00    +0.012 A 
ATOM      2  C   UNL A   1     -27.064  -0.119  28.608  0.00  0.00    +0.054 A 
ATOM      3  C   UNL A   1     -26.929   1.171  29.008  0.00  0.00    -0.009 A 
ATOM      4  C   UNL A   1     -27.956   1.741  29.784  0.00  0.00    +0.007 A 
ATOM      5  C   UNL A   1     -29.057  -0.327  29.747  0.00  0.00    +0.012 A 
ATOM      6  C   UNL A   1     -28.983   0.972  30.152  0.00  0.00    +0.055 A 
ATOM      7 CL   UNL A   1     -25.725  -0.728  27.673  0.00  0.00    -0.083 Cl
ATOM      8 CL   UNL A   1     -30.253   1.420  31.232  0.00  0.00    -0.083 Cl
ATOM      9  C   UNL A   1     -27.811   3.170  30.185  0.00  0.00    +0.139 C 
ATOM     10  N   UNL A   1     -27.227   3.978  29.462  0.00  0.00    -0.232 NA
ATOM     11  C   UNL A   1     -26.493   3.798  28.515  0.00  0.00    +0.076 C 
ATOM     12  C   UNL A   1     -25.780   3.054  27.846  0.00  0.00    -0.004 C 
ATOM     13  C   UNL A   1     -26.058   1.680  27.948  0.00  0.00    +0.054 C 
ENDROOT
TORSDOF 0
