REMARK  Name = No_3087-gen_results/8p0m/2024-11-26-14-13-15/
REMARK  7 active torsions:
REMARK  status: ('A' for Active; 'I' for Inactive)
REMARK    1  A    between atoms: C_3  and  C_10
REMARK    2  A    between atoms: N_4  and  C_17
REMARK    3  A    between atoms: C_7  and  C_30
REMARK    4  A    between atoms: C_10  and  C_11
REMARK    5  A    between atoms: C_18  and  C_21
REMARK    6  A    between atoms: N_32  and  C_33
REMARK    7  A    between atoms: C_33  and  C_34
REMARK                            x       y       z     vdW  Elec       q    Type
REMARK                         _______ _______ _______ _____ _____    ______ ____
ROOT
ATOM      1  O   UNL A   1     -28.123  -1.335  28.487  0.00  0.00    -0.270 OA
ATOM      2  C   UNL A   1     -27.481  -0.404  28.709  0.00  0.00    +0.255 C 
ATOM      3  C   UNL A   1     -26.380  -0.087  27.939  0.00  0.00    +0.036 C 
ATOM      4  N   UNL A   1     -27.666   0.447  29.899  0.00  0.00    -0.205 N 
ATOM      5  C   UNL A   1     -26.409   0.857  26.880  0.00  0.00    +0.000 C 
ATOM      6  C   UNL A   1     -27.582   1.488  26.591  0.00  0.00    +0.001 C 
ATOM      7  C   UNL A   1     -28.654   1.361  27.205  0.00  0.00    +0.042 C 
ATOM      8  C   UNL A   1     -28.356   1.629  29.614  0.00  0.00    +0.240 C 
ATOM      9  C   UNL A   1     -28.881   1.942  28.485  0.00  0.00    +0.117 C 
ATOM     10  O   UNL A   1     -28.777   2.139  30.804  0.00  0.00    -0.274 OA
ENDROOT
BRANCH   4  11
ATOM     11  C   UNL A   1     -27.250  -0.115  31.129  0.00  0.00    +0.061 A 
ATOM     12  C   UNL A   1     -27.699  -1.193  31.569  0.00  0.00    +0.014 A 
ATOM     13  C   UNL A   1     -26.308   0.720  31.826  0.00  0.00    +0.015 A 
ATOM     14  C   UNL A   1     -25.631   0.142  32.922  0.00  0.00    +0.001 A 
ATOM     15  C   UNL A   1     -26.153  -0.965  33.487  0.00  0.00    +0.000 A 
ATOM     16  C   UNL A   1     -27.067  -1.711  32.759  0.00  0.00    +0.001 A 
BRANCH  12  17
ATOM     17  C   UNL A   1     -28.674  -2.005  30.875  0.00  0.00    +0.001 A 
ATOM     18  C   UNL A   1     -29.973  -1.889  31.047  0.00  0.00    +0.000 A 
ATOM     19  C   UNL A   1     -30.899  -2.571  30.346  0.00  0.00    +0.000 A 
ATOM     20  C   UNL A   1     -30.605  -3.899  30.004  0.00  0.00    +0.000 A 
ATOM     21  C   UNL A   1     -29.169  -4.292  30.036  0.00  0.00    +0.000 A 
ATOM     22  C   UNL A   1     -28.174  -3.376  30.583  0.00  0.00    +0.000 A 
ENDBRANCH  12  17
ENDBRANCH   4  11
BRANCH   7  23
ATOM     23  C   UNL A   1     -29.770   0.693  26.570  0.00  0.00    +0.262 C 
ATOM     24  O   UNL A   1     -29.840  -0.136  25.832  0.00  0.00    -0.269 OA
ATOM     25  N   UNL A   1     -31.089   1.075  27.124  0.00  0.00    -0.197 NA
BRANCH  25  26
ATOM     26  C   UNL A   1     -32.303   0.405  26.661  0.00  0.00    +0.141 C 
BRANCH  26  27
ATOM     27  C   UNL A   1     -33.257   0.378  27.616  0.00  0.00    -0.003 C 
ATOM     28  C   UNL A   1     -34.130  -0.574  27.705  0.00  0.00    -0.003 C 
ENDBRANCH  26  27
ENDBRANCH  25  26
ENDBRANCH   7  23
BRANCH   3  29
ATOM     29  C   UNL A   1     -25.122  -0.863  28.198  0.00  0.00    +0.057 C 
BRANCH  29  30
ATOM     30  C   UNL A   1     -23.963  -0.148  28.636  0.00  0.00    -0.018 A 
ATOM     31  C   UNL A   1     -23.721   1.227  28.487  0.00  0.00    -0.004 A 
ATOM     32  C   UNL A   1     -22.540   1.791  28.763  0.00  0.00    -0.000 A 
ATOM     33  C   UNL A   1     -21.457   0.879  29.018  0.00  0.00    -0.000 A 
ATOM     34  C   UNL A   1     -21.583  -0.478  29.203  0.00  0.00    -0.000 A 
ATOM     35  C   UNL A   1     -22.826  -0.990  28.930  0.00  0.00    -0.004 A 
ENDBRANCH  29  30
ENDBRANCH   3  29
TORSDOF 7
