MODEL 3087
MODEL 1
REMARK VINA RESULT:    -7.529      0.000      0.000
REMARK INTER + INTRA:         -13.465
REMARK INTER:                 -10.611
REMARK INTRA:                  -2.854
REMARK UNBOUND:                -2.854
REMARK  Name = No_3087-gen_results/8p0m/2024-11-26-14-13-15/
REMARK  7 active torsions:
REMARK  status: ('A' for Active; 'I' for Inactive)
REMARK    1  A    between atoms: C_3  and  C_10
REMARK    2  A    between atoms: N_4  and  C_17
REMARK    3  A    between atoms: C_7  and  C_30
REMARK    4  A    between atoms: C_10  and  C_11
REMARK    5  A    between atoms: C_18  and  C_21
REMARK    6  A    between atoms: N_32  and  C_33
REMARK    7  A    between atoms: C_33  and  C_34
REMARK                            x       y       z     vdW  Elec       q    Type
REMARK                         _______ _______ _______ _____ _____    ______ ____
ROOT
ATOM      1  O   UNL A   1     -24.307  -1.541  31.924  0.00  0.00    -0.270 OA
ATOM      2  C   UNL A   1     -25.003  -0.749  31.461  0.00  0.00    +0.255 C 
ATOM      3  C   UNL A   1     -26.315  -1.038  31.145  0.00  0.00    +0.036 C 
ATOM      4  N   UNL A   1     -24.544   0.583  31.025  0.00  0.00    -0.205 N 
ATOM      5  C   UNL A   1     -27.413  -0.723  31.987  0.00  0.00    +0.000 C 
ATOM      6  C   UNL A   1     -27.174  -0.107  33.179  0.00  0.00    +0.001 C 
ATOM      7  C   UNL A   1     -26.068   0.267  33.603  0.00  0.00    +0.042 C 
ATOM      8  C   UNL A   1     -24.861   1.589  31.942  0.00  0.00    +0.240 C 
ATOM      9  C   UNL A   1     -25.398   1.416  33.095  0.00  0.00    +0.117 C 
ATOM     10  O   UNL A   1     -24.095   2.670  31.626  0.00  0.00    -0.274 OA
ENDROOT
BRANCH   4  11
ATOM     11  C   UNL A   1     -23.758   0.609  29.849  0.00  0.00    +0.061 A 
ATOM     12  C   UNL A   1     -24.180   1.050  28.760  0.00  0.00    +0.014 A 
ATOM     13  C   UNL A   1     -22.458   0.023  30.042  0.00  0.00    +0.015 A 
ATOM     14  C   UNL A   1     -21.505   0.233  29.022  0.00  0.00    +0.001 A 
ATOM     15  C   UNL A   1     -21.942   0.607  27.803  0.00  0.00    +0.000 A 
ATOM     16  C   UNL A   1     -23.212   1.151  27.693  0.00  0.00    +0.001 A 
BRANCH  12  17
ATOM     17  C   UNL A   1     -25.502   1.603  28.571  0.00  0.00    +0.001 A 
ATOM     18  C   UNL A   1     -26.456   0.996  27.898  0.00  0.00    +0.000 A 
ATOM     19  C   UNL A   1     -27.719   1.451  27.787  0.00  0.00    +0.000 A 
ATOM     20  C   UNL A   1     -27.901   2.837  27.679  0.00  0.00    +0.000 A 
ATOM     21  C   UNL A   1     -26.775   3.695  28.141  0.00  0.00    +0.000 A 
ATOM     22  C   UNL A   1     -25.496   3.090  28.498  0.00  0.00    +0.000 A 
ENDBRANCH  12  17
ENDBRANCH   4  11
BRANCH   7  23
ATOM     23  C   UNL A   1     -25.465  -0.411  34.731  0.00  0.00    +0.262 C 
ATOM     24  O   UNL A   1     -24.429  -0.751  34.948  0.00  0.00    -0.269 OA
ATOM     25  N   UNL A   1     -26.364  -0.541  35.900  0.00  0.00    -0.197 NA
BRANCH  25  26
ATOM     26  C   UNL A   1     -25.864  -1.104  37.153  0.00  0.00    +0.141 C 
BRANCH  26  27
ATOM     27  C   UNL A   1     -26.682  -2.067  37.632  0.00  0.00    -0.003 C 
ATOM     28  C   UNL A   1     -27.082  -3.065  36.912  0.00  0.00    -0.003 C 
ENDBRANCH  26  27
ENDBRANCH  25  26
ENDBRANCH   7  23
BRANCH   3  29
ATOM     29  C   UNL A   1     -26.557  -1.808  29.880  0.00  0.00    +0.057 C 
BRANCH  29  30
ATOM     30  C   UNL A   1     -25.660  -2.874  29.554  0.00  0.00    -0.018 A 
ATOM     31  C   UNL A   1     -24.528  -2.794  28.728  0.00  0.00    -0.004 A 
ATOM     32  C   UNL A   1     -23.841  -3.870  28.330  0.00  0.00    -0.000 A 
ATOM     33  C   UNL A   1     -24.451  -5.141  28.616  0.00  0.00    -0.000 A 
ATOM     34  C   UNL A   1     -25.544  -5.337  29.428  0.00  0.00    -0.000 A 
ATOM     35  C   UNL A   1     -26.187  -4.192  29.825  0.00  0.00    -0.004 A 
ENDBRANCH  29  30
ENDBRANCH   3  29
TORSDOF 7
ENDMDL
ENDMDL
