MODEL 3088
MODEL 1
REMARK VINA RESULT:    -7.687      0.000      0.000
REMARK INTER + INTRA:         -10.562
REMARK INTER:                  -9.934
REMARK INTRA:                  -0.628
REMARK UNBOUND:                -0.628
REMARK  Name = No_3088-gen_results/8p0m/2024-11-26-14-13-15/
REMARK  5 active torsions:
REMARK  status: ('A' for Active; 'I' for Inactive)
REMARK    1  A    between atoms: C_1  and  C_8
REMARK    2  A    between atoms: C_3  and  C_14
REMARK    3  A    between atoms: C_5  and  C_11
REMARK    4  A    between atoms: C_8  and  O_10
REMARK    5  A    between atoms: O_10  and  C_21
REMARK                            x       y       z     vdW  Elec       q    Type
REMARK                         _______ _______ _______ _____ _____    ______ ____
ROOT
ATOM      1  C   UNL A   1     -23.679  -1.328  31.360  0.00  0.00    +0.074 C 
ATOM      2  C   UNL A   1     -23.726  -0.730  30.310  0.00  0.00    -0.034 C 
ATOM      3  C   UNL A   1     -24.217  -1.243  29.122  0.00  0.00    +0.041 C 
ATOM      4  C   UNL A   1     -24.210  -0.583  27.839  0.00  0.00    +0.020 C 
ATOM      5  C   UNL A   1     -23.661   0.718  27.750  0.00  0.00    +0.104 C 
ATOM      6  C   UNL A   1     -23.142   1.304  28.934  0.00  0.00    +0.016 C 
ATOM      7  C   UNL A   1     -23.168   0.589  30.092  0.00  0.00    +0.023 C 
ENDROOT
BRANCH   3   8
ATOM      8  C   UNL A   1     -24.731  -2.611  29.063  0.00  0.00    -0.018 A 
ATOM      9  C   UNL A   1     -23.992  -3.668  28.773  0.00  0.00    -0.004 A 
ATOM     10  C   UNL A   1     -24.419  -4.987  28.804  0.00  0.00    +0.001 A 
ATOM     11  C   UNL A   1     -25.364  -5.258  29.266  0.00  0.00    +0.011 A 
ATOM     12  C   UNL A   1     -26.368  -4.265  29.736  0.00  0.00    +0.057 A 
ATOM     13  C   UNL A   1     -26.016  -2.907  29.649  0.00  0.00    +0.007 A 
ATOM     14 CL   UNL A   1     -27.892  -4.699  30.361  0.00  0.00    -0.082 Cl
ENDBRANCH   3   8
BRANCH   5  15
ATOM     15  C   UNL A   1     -23.652   1.458  26.495  0.00  0.00    +0.364 C 
ATOM     16  O   UNL A   1     -24.325   0.970  25.554  0.00  0.00    -0.246 OA
ATOM     17  O   UNL A   1     -23.060   2.578  26.394  0.00  0.00    -0.246 OA
ENDBRANCH   5  15
BRANCH   1  18
ATOM     18  C   UNL A   1     -24.528  -0.734  32.463  0.00  0.00    +0.345 C 
ATOM     19  O   UNL A   1     -25.248  -0.013  32.444  0.00  0.00    -0.244 OA
BRANCH  18  20
ATOM     20  O   UNL A   1     -23.879  -1.067  33.694  0.00  0.00    -0.418 OA
BRANCH  20  21
ATOM     21  C   UNL A   1     -24.608  -0.791  34.831  0.00  0.00    +0.178 C 
ATOM     22  C   UNL A   1     -24.676  -1.181  35.834  0.00  0.00    +0.015 C 
ATOM     23  C   UNL A   1     -25.460  -0.772  36.958  0.00  0.00    +0.034 C 
ENDBRANCH  20  21
ENDBRANCH  18  20
ENDBRANCH   1  18
TORSDOF 5
ENDMDL
ENDMDL
