REMARK  Name = No_3088-gen_results/8p0m/2024-11-26-14-13-15/
REMARK  5 active torsions:
REMARK  status: ('A' for Active; 'I' for Inactive)
REMARK    1  A    between atoms: C_1  and  C_8
REMARK    2  A    between atoms: C_3  and  C_14
REMARK    3  A    between atoms: C_5  and  C_11
REMARK    4  A    between atoms: C_8  and  O_10
REMARK    5  A    between atoms: O_10  and  C_21
REMARK                            x       y       z     vdW  Elec       q    Type
REMARK                         _______ _______ _______ _____ _____    ______ ____
ROOT
ATOM      1  C   UNL A   1     -28.016  -0.814  28.878  0.00  0.00    +0.074 C 
ATOM      2  C   UNL A   1     -27.064  -0.119  28.608  0.00  0.00    -0.034 C 
ATOM      3  C   UNL A   1     -26.972   0.714  27.506  0.00  0.00    +0.041 C 
ATOM      4  C   UNL A   1     -25.820   1.491  27.116  0.00  0.00    +0.020 C 
ATOM      5  C   UNL A   1     -24.656   1.424  27.918  0.00  0.00    +0.104 C 
ATOM      6  C   UNL A   1     -24.685   0.590  29.066  0.00  0.00    +0.016 C 
ATOM      7  C   UNL A   1     -25.810  -0.127  29.334  0.00  0.00    +0.023 C 
ENDROOT
BRANCH   3   8
ATOM      8  C   UNL A   1     -28.076   0.802  26.551  0.00  0.00    -0.018 A 
ATOM      9  C   UNL A   1     -27.935   0.686  25.242  0.00  0.00    -0.004 A 
ATOM     10  C   UNL A   1     -28.966   0.665  24.316  0.00  0.00    +0.001 A 
ATOM     11  C   UNL A   1     -29.999   0.549  24.631  0.00  0.00    +0.011 A 
ATOM     12  C   UNL A   1     -30.437   0.586  26.053  0.00  0.00    +0.057 A 
ATOM     13  C   UNL A   1     -29.433   0.691  27.031  0.00  0.00    +0.007 A 
ATOM     14 CL   UNL A   1     -32.070   0.509  26.531  0.00  0.00    -0.082 Cl
ENDBRANCH   3   8
BRANCH   5  15
ATOM     15  C   UNL A   1     -23.469   2.208  27.604  0.00  0.00    +0.364 C 
ATOM     16  O   UNL A   1     -22.567   2.231  28.477  0.00  0.00    -0.246 OA
ATOM     17  O   UNL A   1     -23.329   2.767  26.470  0.00  0.00    -0.246 OA
ENDBRANCH   5  15
BRANCH   1  18
ATOM     18  C   UNL A   1     -28.709  -0.459  30.175  0.00  0.00    +0.345 C 
ATOM     19  O   UNL A   1     -28.670   0.380  30.752  0.00  0.00    -0.244 OA
BRANCH  18  20
ATOM     20  O   UNL A   1     -29.172  -1.692  30.734  0.00  0.00    -0.418 OA
BRANCH  20  21
ATOM     21  C   UNL A   1     -30.429  -1.641  31.299  0.00  0.00    +0.178 C 
ATOM     22  C   UNL A   1     -31.105  -0.874  31.641  0.00  0.00    +0.015 C 
ATOM     23  C   UNL A   1     -32.427  -0.950  32.182  0.00  0.00    +0.034 C 
ENDBRANCH  20  21
ENDBRANCH  18  20
ENDBRANCH   1  18
TORSDOF 5
