MODEL 308
MODEL 1
REMARK VINA RESULT:    -8.451      0.000      0.000
REMARK INTER + INTRA:         -10.557
REMARK INTER:                  -9.933
REMARK INTRA:                  -0.624
REMARK UNBOUND:                -0.624
REMARK  Name = No_308-gen_results/8p0m/2024-11-26-14-13-15/
REMARK  3 active torsions:
REMARK  status: ('A' for Active; 'I' for Inactive)
REMARK    1  A    between atoms: C_2  and  C_7
REMARK    2  A    between atoms: C_8  and  C_10
REMARK    3  A    between atoms: C_16  and  C_19
REMARK                            x       y       z     vdW  Elec       q    Type
REMARK                         _______ _______ _______ _____ _____    ______ ____
ROOT
ATOM      1  C   UNL A   1     -24.824   0.950  27.684  0.00  0.00    +0.122 C 
ATOM      2  C   UNL A   1     -25.285   2.215  28.145  0.00  0.00    +0.321 C 
ATOM      3  C   UNL A   1     -25.357   0.687  26.299  0.00  0.00    +0.028 C 
ATOM      4  C   UNL A   1     -26.740   0.739  26.214  0.00  0.00    +0.121 C 
ATOM      5  C   UNL A   1     -27.312   2.083  26.587  0.00  0.00    +0.217 C 
ATOM      6  O   UNL A   1     -26.895   2.297  28.020  0.00  0.00    -0.448 OA
ATOM      7  O   UNL A   1     -24.841   3.098  28.770  0.00  0.00    -0.250 OA
ENDROOT
BRANCH   4   8
ATOM      8  C   UNL A   1     -27.330   0.400  24.801  0.00  0.00    +0.229 C 
ATOM      9  O   UNL A   1     -26.703   0.644  23.895  0.00  0.00    -0.275 OA
ATOM     10  N   UNL A   1     -28.707   0.249  24.781  0.00  0.00    -0.279 N 
ATOM     11  C   UNL A   1     -29.594   0.059  25.879  0.00  0.00    +0.093 C 
ATOM     12  C   UNL A   1     -30.845   0.134  25.634  0.00  0.00    +0.022 C 
ATOM     13  C   UNL A   1     -31.381   0.313  24.357  0.00  0.00    +0.004 C 
ATOM     14  C   UNL A   1     -30.534   0.565  23.279  0.00  0.00    +0.022 C 
ATOM     15  C   UNL A   1     -29.227   0.592  23.509  0.00  0.00    +0.093 C 
ENDBRANCH   4   8
BRANCH   1  17
ATOM     16  C   UNL A   1     -23.330  -0.581  28.607  0.00  0.00    -0.003 A 
ATOM     17  C   UNL A   1     -23.525   0.468  28.014  0.00  0.00    -0.012 A 
ATOM     18  C   UNL A   1     -21.941  -0.884  28.992  0.00  0.00    -0.000 A 
ATOM     19  C   UNL A   1     -22.465   1.398  27.583  0.00  0.00    -0.004 A 
ATOM     20  C   UNL A   1     -21.175   1.155  27.801  0.00  0.00    -0.000 A 
ATOM     21  C   UNL A   1     -21.074  -0.102  28.716  0.00  0.00    -0.000 A 
BRANCH  16  23
ATOM     22  C   UNL A   1     -24.168  -2.811  28.882  0.00  0.00    +0.011 A 
ATOM     23  C   UNL A   1     -24.296  -1.621  29.054  0.00  0.00    +0.001 A 
ATOM     24  C   UNL A   1     -25.397  -1.106  29.729  0.00  0.00    +0.000 A 
ATOM     25  C   UNL A   1     -26.445  -1.973  30.205  0.00  0.00    +0.001 A 
ATOM     26  C   UNL A   1     -26.228  -3.332  29.944  0.00  0.00    +0.011 A 
ATOM     27  C   UNL A   1     -25.177  -3.765  29.286  0.00  0.00    +0.058 A 
ATOM     28 CL   UNL A   1     -24.882  -5.368  28.854  0.00  0.00    -0.082 Cl
ENDBRANCH  16  23
ENDBRANCH   1  17
TORSDOF 3
ENDMDL
ENDMDL
