REMARK  Name = No_3090-gen_results/8p0m/2024-11-26-14-13-15/
REMARK  4 active torsions:
REMARK  status: ('A' for Active; 'I' for Inactive)
REMARK    1  A    between atoms: C_1  and  C_2
REMARK    2  A    between atoms: C_5  and  N_10
REMARK    3  A    between atoms: C_7  and  O_17
REMARK    4  A    between atoms: N_10  and  C_11
REMARK                            x       y       z     vdW  Elec       q    Type
REMARK                         _______ _______ _______ _____ _____    ______ ____
ROOT
ATOM      1  C   UNL A   1     -28.016  -0.814  28.878  0.00  0.00    +0.102 A 
ATOM      2  C   UNL A   1     -28.182   0.428  28.113  0.00  0.00    +0.010 A 
ATOM      3  C   UNL A   1     -27.450   0.643  26.850  0.00  0.00    +0.017 A 
ATOM      4  C   UNL A   1     -26.181   0.036  26.715  0.00  0.00    +0.073 A 
ATOM      5  C   UNL A   1     -25.780  -0.933  27.694  0.00  0.00    +0.054 A 
ATOM      6  C   UNL A   1     -26.557  -1.213  28.741  0.00  0.00    +0.145 A 
ENDROOT
BRANCH   1   7
ATOM      7  C   UNL A   1     -28.469  -0.785  29.829  0.00  0.00    +0.336 C 
ATOM      8  O   UNL A   1     -28.532  -1.949  30.614  0.00  0.00    -0.254 OA
ATOM      9  F   UNL A   1     -28.937   0.150  30.586  0.00  0.00    -0.159 F 
ENDBRANCH   1   7
BRANCH   6  10
ATOM     10  O   UNL A   1     -26.066  -2.232  29.520  0.00  0.00    -0.471 OA
ATOM     11  C   UNL A   1     -24.703  -2.500  29.389  0.00  0.00    +0.253 C 
ENDBRANCH   6  10
BRANCH   4  12
ATOM     12  N   UNL A   1     -25.351   0.298  25.663  0.00  0.00    -0.212 NA
BRANCH  12  13
ATOM     13  C   UNL A   1     -24.712   1.457  25.466  0.00  0.00    +0.070 A 
ATOM     14  C   UNL A   1     -23.278   1.432  25.406  0.00  0.00    +0.017 A 
ATOM     15  C   UNL A   1     -25.429   2.627  25.755  0.00  0.00    +0.017 A 
ATOM     16  C   UNL A   1     -24.717   3.901  25.927  0.00  0.00    +0.001 A 
ATOM     17  C   UNL A   1     -22.564   2.706  25.457  0.00  0.00    +0.001 A 
ATOM     18  C   UNL A   1     -23.304   3.878  25.711  0.00  0.00    +0.000 A 
ENDBRANCH  12  13
ENDBRANCH   4  12
TORSDOF 4
