REMARK  Name = No_3091-gen_results/8p0m/2024-11-26-14-13-15/
REMARK  2 active torsions:
REMARK  status: ('A' for Active; 'I' for Inactive)
REMARK    1  A    between atoms: C_4  and  C_6
REMARK    2  A    between atoms: C_9  and  C_14
REMARK                            x       y       z     vdW  Elec       q    Type
REMARK                         _______ _______ _______ _____ _____    ______ ____
ROOT
ATOM      1  C   UNL A   1     -27.752   3.200  30.017  0.00  0.00    +0.000 A 
ATOM      2  C   UNL A   1     -27.212   3.965  29.406  0.00  0.00    -0.000 A 
ATOM      3  C   UNL A   1     -26.872   5.407  29.802  0.00  0.00    -0.000 A 
ATOM      4  C   UNL A   1     -27.355   5.782  31.047  0.00  0.00    -0.000 A 
ATOM      5  C   UNL A   1     -28.348   3.541  31.312  0.00  0.00    +0.000 A 
ATOM      6  C   UNL A   1     -28.080   4.864  31.815  0.00  0.00    -0.000 A 
ENDROOT
BRANCH   1  10
ATOM      7  C   UNL A   1     -28.016  -0.814  28.878  0.00  0.00    +0.011 A 
ATOM      8  C   UNL A   1     -27.064  -0.119  28.608  0.00  0.00    +0.058 A 
ATOM      9  C   UNL A   1     -26.876   1.133  28.913  0.00  0.00    +0.011 A 
ATOM     10  C   UNL A   1     -27.901   1.807  29.644  0.00  0.00    +0.001 A 
ATOM     11  C   UNL A   1     -29.046  -0.232  29.718  0.00  0.00    +0.001 A 
ATOM     12  C   UNL A   1     -28.951   1.041  30.048  0.00  0.00    +0.000 A 
ATOM     13 CL   UNL A   1     -25.726  -0.861  27.660  0.00  0.00    -0.082 Cl
ENDBRANCH   1  10
BRANCH   3  14
ATOM     14  C   UNL A   1     -26.099   6.338  28.985  0.00  0.00    -0.005 C 
ATOM     15  C   UNL A   1     -25.372   7.263  29.559  0.00  0.00    -0.026 C 
ATOM     16  C   UNL A   1     -25.711   7.613  30.965  0.00  0.00    +0.031 C 
ENDBRANCH   3  14
TORSDOF 2
