MODEL 3091
MODEL 1
REMARK VINA RESULT:    -7.223      0.000      0.000
REMARK INTER + INTRA:          -8.559
REMARK INTER:                  -8.067
REMARK INTRA:                  -0.491
REMARK UNBOUND:                -0.491
REMARK  Name = No_3091-gen_results/8p0m/2024-11-26-14-13-15/
REMARK  2 active torsions:
REMARK  status: ('A' for Active; 'I' for Inactive)
REMARK    1  A    between atoms: C_4  and  C_6
REMARK    2  A    between atoms: C_9  and  C_14
REMARK                            x       y       z     vdW  Elec       q    Type
REMARK                         _______ _______ _______ _____ _____    ______ ____
ROOT
ATOM      1  C   UNL A   1     -24.113  -1.319  29.429  0.00  0.00    +0.000 A 
ATOM      2  C   UNL A   1     -23.449  -0.806  28.691  0.00  0.00    -0.000 A 
ATOM      3  C   UNL A   1     -22.818   0.587  28.810  0.00  0.00    -0.000 A 
ATOM      4  C   UNL A   1     -23.183   1.278  29.956  0.00  0.00    -0.000 A 
ATOM      5  C   UNL A   1     -24.594  -0.629  30.630  0.00  0.00    +0.000 A 
ATOM      6  C   UNL A   1     -24.055   0.684  30.876  0.00  0.00    -0.000 A 
ENDROOT
BRANCH   1  10
ATOM      7  C   UNL A   1     -25.520  -5.248  29.188  0.00  0.00    +0.011 A 
ATOM      8  C   UNL A   1     -26.173  -4.348  29.662  0.00  0.00    +0.058 A 
ATOM      9  C   UNL A   1     -25.838  -3.095  29.784  0.00  0.00    +0.011 A 
ATOM     10  C   UNL A   1     -24.545  -2.699  29.325  0.00  0.00    +0.001 A 
ATOM     11  C   UNL A   1     -24.241  -4.901  28.596  0.00  0.00    +0.001 A 
ATOM     12  C   UNL A   1     -23.810  -3.660  28.702  0.00  0.00    +0.000 A 
ATOM     13 CL   UNL A   1     -27.809  -4.744  30.300  0.00  0.00    -0.082 Cl
ENDBRANCH   1  10
BRANCH   3  14
ATOM     14  C   UNL A   1     -21.899   1.175  27.840  0.00  0.00    -0.005 C 
ATOM     15  C   UNL A   1     -22.364   1.892  26.849  0.00  0.00    -0.026 C 
ATOM     16  C   UNL A   1     -23.798   1.705  26.496  0.00  0.00    +0.031 C 
ENDBRANCH   3  14
TORSDOF 2
ENDMDL
ENDMDL
