MODEL 3092
MODEL 1
REMARK VINA RESULT:    -7.730      0.000      0.000
REMARK INTER + INTRA:          -9.839
REMARK INTER:                  -9.086
REMARK INTRA:                  -0.753
REMARK UNBOUND:                -0.753
REMARK  Name = No_3092-gen_results/8p0m/2024-11-26-14-13-15/
REMARK  3 active torsions:
REMARK  status: ('A' for Active; 'I' for Inactive)
REMARK    1  A    between atoms: C_2  and  C_3
REMARK    2  A    between atoms: C_6  and  C_15
REMARK    3  A    between atoms: C_12  and  C_21
REMARK                            x       y       z     vdW  Elec       q    Type
REMARK                         _______ _______ _______ _____ _____    ______ ____
ROOT
ATOM      1  C   UNL A   1     -26.145  -0.163  30.023  0.00  0.00    +0.054 A 
ATOM      2  C   UNL A   1     -26.347   0.973  30.691  0.00  0.00    +0.004 A 
ATOM      3  C   UNL A   1     -25.299  -1.196  30.554  0.00  0.00    +0.004 A 
ATOM      4  C   UNL A   1     -25.546   1.238  31.958  0.00  0.00    +0.000 A 
ATOM      5  C   UNL A   1     -24.621  -0.997  31.778  0.00  0.00    +0.000 A 
ATOM      6  C   UNL A   1     -24.713   0.222  32.449  0.00  0.00    +0.000 A 
ENDROOT
BRANCH   1   8
ATOM      7  O   UNL A   1     -27.850  -0.714  28.724  0.00  0.00    -0.270 OA
ATOM      8  C   UNL A   1     -26.772  -0.315  28.802  0.00  0.00    +0.249 C 
ATOM      9  N   UNL A   1     -26.013   0.208  27.651  0.00  0.00    -0.276 N 
ATOM     10  C   UNL A   1     -26.656   0.147  26.357  0.00  0.00    +0.094 C 
ATOM     11  C   UNL A   1     -24.747   0.747  27.764  0.00  0.00    +0.105 C 
ATOM     12  C   UNL A   1     -23.919   0.709  27.113  0.00  0.00    +0.123 C 
ATOM     13  C   UNL A   1     -24.124   1.034  25.798  0.00  0.00    +0.015 C 
ATOM     14  C   UNL A   1     -25.478   0.344  25.327  0.00  0.00    +0.022 C 
BRANCH  12  15
ATOM     15  C   UNL A   1     -22.668   1.700  27.482  0.00  0.00    +0.366 C 
ATOM     16  O   UNL A   1     -22.720   2.233  28.596  0.00  0.00    -0.246 OA
ATOM     17  O   UNL A   1     -21.627   1.852  26.726  0.00  0.00    -0.246 OA
ENDBRANCH  12  15
ENDBRANCH   1   8
BRANCH   3  18
ATOM     18  C   UNL A   1     -25.156  -2.486  29.927  0.00  0.00    +0.000 A 
ATOM     19  C   UNL A   1     -26.219  -3.313  30.068  0.00  0.00    +0.000 A 
ATOM     20  C   UNL A   1     -24.084  -2.790  29.158  0.00  0.00    +0.000 A 
ATOM     21  C   UNL A   1     -26.148  -4.690  29.707  0.00  0.00    +0.000 A 
ATOM     22  C   UNL A   1     -23.939  -4.084  28.648  0.00  0.00    +0.000 A 
ATOM     23  C   UNL A   1     -25.004  -5.027  28.862  0.00  0.00    +0.000 A 
ENDBRANCH   3  18
TORSDOF 3
ENDMDL
ENDMDL
