REMARK  Name = No_3092-gen_results/8p0m/2024-11-26-14-13-15/
REMARK  3 active torsions:
REMARK  status: ('A' for Active; 'I' for Inactive)
REMARK    1  A    between atoms: C_2  and  C_3
REMARK    2  A    between atoms: C_6  and  C_15
REMARK    3  A    between atoms: C_12  and  C_21
REMARK                            x       y       z     vdW  Elec       q    Type
REMARK                         _______ _______ _______ _____ _____    ______ ____
ROOT
ATOM      1  C   UNL A   1     -26.380  -0.087  27.939  0.00  0.00    +0.054 A 
ATOM      2  C   UNL A   1     -25.177  -0.439  28.395  0.00  0.00    +0.004 A 
ATOM      3  C   UNL A   1     -26.526   0.604  26.687  0.00  0.00    +0.004 A 
ATOM      4  C   UNL A   1     -23.937   0.037  27.652  0.00  0.00    +0.000 A 
ATOM      5  C   UNL A   1     -25.382   0.970  25.943  0.00  0.00    +0.000 A 
ATOM      6  C   UNL A   1     -24.103   0.725  26.441  0.00  0.00    +0.000 A 
ENDROOT
BRANCH   1   8
ATOM      7  O   UNL A   1     -28.123  -1.335  28.487  0.00  0.00    -0.270 OA
ATOM      8  C   UNL A   1     -27.481  -0.404  28.709  0.00  0.00    +0.249 C 
ATOM      9  N   UNL A   1     -27.666   0.447  29.899  0.00  0.00    -0.276 N 
ATOM     10  C   UNL A   1     -28.759   0.110  30.785  0.00  0.00    +0.094 C 
ATOM     11  C   UNL A   1     -26.849   1.521  30.193  0.00  0.00    +0.105 C 
ATOM     12  C   UNL A   1     -27.066   2.454  30.633  0.00  0.00    +0.123 C 
ATOM     13  C   UNL A   1     -27.779   2.458  31.803  0.00  0.00    +0.015 C 
ATOM     14  C   UNL A   1     -28.964   1.406  31.660  0.00  0.00    +0.022 C 
BRANCH  12  15
ATOM     15  C   UNL A   1     -25.773   3.365  31.059  0.00  0.00    +0.366 C 
ATOM     16  O   UNL A   1     -24.715   3.093  30.481  0.00  0.00    -0.246 OA
ATOM     17  O   UNL A   1     -25.845   4.379  31.862  0.00  0.00    -0.246 OA
ENDBRANCH  12  15
ENDBRANCH   1   8
BRANCH   3  18
ATOM     18  C   UNL A   1     -27.811   0.888  26.099  0.00  0.00    +0.000 A 
ATOM     19  C   UNL A   1     -28.388   2.041  26.512  0.00  0.00    +0.000 A 
ATOM     20  C   UNL A   1     -28.335   0.111  25.122  0.00  0.00    +0.000 A 
ATOM     21  C   UNL A   1     -29.744   2.351  26.203  0.00  0.00    +0.000 A 
ATOM     22  C   UNL A   1     -29.625   0.367  24.648  0.00  0.00    +0.000 A 
ATOM     23  C   UNL A   1     -30.316   1.531  25.137  0.00  0.00    +0.000 A 
ENDBRANCH   3  18
TORSDOF 3
