MODEL 3093
MODEL 1
REMARK VINA RESULT:    -5.447      0.000      0.000
REMARK INTER + INTRA:          -5.447
REMARK INTER:                  -5.447
REMARK INTRA:                   0.000
REMARK UNBOUND:                 0.000
REMARK  Name = No_3093-gen_results/8p0m/2024-11-26-14-13-15/
REMARK  0 active torsions:
REMARK  status: ('A' for Active; 'I' for Inactive)
REMARK                            x       y       z     vdW  Elec       q    Type
REMARK                         _______ _______ _______ _____ _____    ______ ____
ROOT
ATOM      1  C   UNL A   1     -25.219  -1.613  30.997  0.00  0.00    +0.000 A 
ATOM      2  C   UNL A   1     -24.402  -0.948  31.028  0.00  0.00    +0.000 A 
ATOM      3  C   UNL A   1     -25.257  -2.562  29.952  0.00  0.00    +0.000 A 
ATOM      4  C   UNL A   1     -24.393  -2.720  29.209  0.00  0.00    +0.000 A 
ATOM      5  C   UNL A   1     -23.218  -1.910  29.199  0.00  0.00    +0.000 A 
ATOM      6  C   UNL A   1     -23.174  -0.964  30.200  0.00  0.00    +0.000 A 
ATOM      7  C   UNL A   1     -26.468  -3.529  29.889  0.00  0.00    +0.000 A 
ATOM      8  C   UNL A   1     -26.192  -4.845  29.699  0.00  0.00    +0.000 A 
ATOM      9  C   UNL A   1     -25.057  -5.208  28.898  0.00  0.00    +0.000 A 
ATOM     10  C   UNL A   1     -24.008  -4.175  28.785  0.00  0.00    +0.000 A 
ENDROOT
TORSDOF 0
ENDMDL
ENDMDL
