REMARK  Name = No_3093-gen_results/8p0m/2024-11-26-14-13-15/
REMARK  0 active torsions:
REMARK  status: ('A' for Active; 'I' for Inactive)
REMARK                            x       y       z     vdW  Elec       q    Type
REMARK                         _______ _______ _______ _____ _____    ______ ____
ROOT
ATOM      1  C   UNL A   1     -28.016  -0.814  28.878  0.00  0.00    +0.000 A 
ATOM      2  C   UNL A   1     -28.469  -0.785  29.829  0.00  0.00    +0.000 A 
ATOM      3  C   UNL A   1     -27.136   0.236  28.535  0.00  0.00    +0.000 A 
ATOM      4  C   UNL A   1     -26.805   1.051  29.276  0.00  0.00    +0.000 A 
ATOM      5  C   UNL A   1     -27.316   1.149  30.605  0.00  0.00    +0.000 A 
ATOM      6  C   UNL A   1     -28.192   0.143  30.949  0.00  0.00    +0.000 A 
ATOM      7  C   UNL A   1     -26.483   0.210  27.128  0.00  0.00    +0.000 A 
ATOM      8  C   UNL A   1     -25.146   0.440  27.069  0.00  0.00    +0.000 A 
ATOM      9  C   UNL A   1     -24.553   1.338  28.020  0.00  0.00    +0.000 A 
ATOM     10  C   UNL A   1     -25.315   1.525  29.271  0.00  0.00    +0.000 A 
ENDROOT
TORSDOF 0
