MODEL 3094
MODEL 1
REMARK VINA RESULT:    -7.009      0.000      0.000
REMARK INTER + INTRA:         -12.246
REMARK INTER:                  -9.878
REMARK INTRA:                  -2.368
REMARK UNBOUND:                -2.368
REMARK  Name = No_3094-gen_results/8p0m/2024-11-26-14-13-15/
REMARK  7 active torsions:
REMARK  status: ('A' for Active; 'I' for Inactive)
REMARK    1  A    between atoms: C_5  and  O_21
REMARK    2  A    between atoms: C_8  and  C_12
REMARK    3  A    between atoms: C_12  and  N_13
REMARK    4  A    between atoms: C_16  and  C_17
REMARK    5  A    between atoms: O_21  and  C_22
REMARK    6  A    between atoms: C_22  and  C_23
REMARK    7  A    between atoms: C_32  and  C_33
REMARK                            x       y       z     vdW  Elec       q    Type
REMARK                         _______ _______ _______ _____ _____    ______ ____
ROOT
ATOM      1  O   UNL A   1     -29.630 -11.307   7.401  0.00  0.00    -0.269 OA
ATOM      2  C   UNL A   1     -29.606 -10.380   8.219  0.00  0.00    +0.258 C 
ATOM      3  C   UNL A   1     -30.232  -9.860   8.865  0.00  0.00    +0.084 A 
ATOM      4  N   UNL A   1     -28.210  -9.582   8.060  0.00  0.00    -0.219 N 
ATOM      5  C   UNL A   1     -31.489 -10.395   9.333  0.00  0.00    +0.143 A 
ATOM      6  C   UNL A   1     -32.486  -9.690   9.991  0.00  0.00    +0.037 A 
ATOM      7  C   UNL A   1     -32.165  -8.359  10.529  0.00  0.00    -0.000 A 
ATOM      8  C   UNL A   1     -30.954  -7.809  10.198  0.00  0.00    -0.010 A 
ATOM      9  C   UNL A   1     -30.056  -8.433   9.431  0.00  0.00    -0.016 A 
ATOM     10  C   UNL A   1     -27.837  -8.572   8.784  0.00  0.00    +0.106 C 
ATOM     11  C   UNL A   1     -28.763  -7.828   9.337  0.00  0.00    +0.048 C 
ATOM     12  C   UNL A   1     -27.178 -10.338   7.204  0.00  0.00    +0.312 C 
ATOM     13  O   UNL A   1     -26.606 -11.326   7.685  0.00  0.00    -0.264 OA
ENDROOT
BRANCH  12  14
ATOM     14  C   UNL A   1     -26.971  -9.721   5.986  0.00  0.00    +0.338 C 
ATOM     15  O   UNL A   1     -27.900  -9.520   5.168  0.00  0.00    -0.262 OA
ATOM     16  N   UNL A   1     -25.679  -9.420   5.676  0.00  0.00    -0.080 NA
ENDBRANCH  12  14
BRANCH   8  17
ATOM     17  C   UNL A   1     -30.751  -6.404  10.712  0.00  0.00    +0.099 C 
BRANCH  17  18
ATOM     18  N   UNL A   1     -31.207  -5.577  10.285  0.00  0.00    -0.267 NA
ATOM     19  C   UNL A   1     -31.254  -4.906   9.311  0.00  0.00    +0.090 C 
ATOM     20  C   UNL A   1     -32.117  -4.878  11.335  0.00  0.00    +0.090 C 
ENDBRANCH  17  18
ENDBRANCH   8  17
BRANCH   5  21
ATOM     21  O   UNL A   1     -31.851 -11.574   8.818  0.00  0.00    -0.470 OA
BRANCH  21  22
ATOM     22  C   UNL A   1     -32.351 -12.469   9.781  0.00  0.00    +0.232 C 
BRANCH  22  23
ATOM     23  C   UNL A   1     -31.761 -13.639   9.812  0.00  0.00    +0.021 A 
ATOM     24  C   UNL A   1     -31.354 -14.363   8.716  0.00  0.00    -0.001 A 
ATOM     25  C   UNL A   1     -30.666 -15.632   8.756  0.00  0.00    -0.000 A 
ATOM     26  C   UNL A   1     -30.252 -16.292   7.611  0.00  0.00    -0.000 A 
ATOM     27  C   UNL A   1     -29.037 -16.775   7.460  0.00  0.00    -0.000 A 
ATOM     28  C   UNL A   1     -28.255 -17.083   8.622  0.00  0.00    -0.000 A 
ATOM     29  C   UNL A   1     -28.661 -16.500   9.827  0.00  0.00    -0.000 A 
ATOM     30  C   UNL A   1     -29.683 -15.739   9.844  0.00  0.00    -0.000 A 
ATOM     31  C   UNL A   1     -29.864 -15.079  11.144  0.00  0.00    -0.000 A 
ATOM     32  C   UNL A   1     -30.895 -13.912  11.062  0.00  0.00    -0.001 A 
BRANCH  32  33
ATOM     33  C   UNL A   1     -31.140 -13.159  12.270  0.00  0.00    -0.005 C 
ATOM     34  C   UNL A   1     -30.548 -12.288  12.671  0.00  0.00    -0.026 C 
ATOM     35  C   UNL A   1     -29.384 -11.696  12.054  0.00  0.00    +0.031 C 
ENDBRANCH  32  33
ENDBRANCH  22  23
ENDBRANCH  21  22
ENDBRANCH   5  21
TORSDOF 7
ENDMDL
ENDMDL
