REMARK  Name = No_3094-gen_results/8p0m/2024-11-26-14-13-15/
REMARK  7 active torsions:
REMARK  status: ('A' for Active; 'I' for Inactive)
REMARK    1  A    between atoms: C_5  and  O_21
REMARK    2  A    between atoms: C_8  and  C_12
REMARK    3  A    between atoms: C_12  and  N_13
REMARK    4  A    between atoms: C_16  and  C_17
REMARK    5  A    between atoms: O_21  and  C_22
REMARK    6  A    between atoms: C_22  and  C_23
REMARK    7  A    between atoms: C_32  and  C_33
REMARK                            x       y       z     vdW  Elec       q    Type
REMARK                         _______ _______ _______ _____ _____    ______ ____
ROOT
ATOM      1  O   UNL A   1     -28.123  -1.335  28.487  0.00  0.00    -0.269 OA
ATOM      2  C   UNL A   1     -27.064  -0.824  28.869  0.00  0.00    +0.258 C 
ATOM      3  C   UNL A   1     -26.402  -0.062  28.622  0.00  0.00    +0.084 A 
ATOM      4  N   UNL A   1     -26.381  -1.799  29.962  0.00  0.00    -0.219 N 
ATOM      5  C   UNL A   1     -26.777   1.057  27.790  0.00  0.00    +0.143 A 
ATOM      6  C   UNL A   1     -25.913   1.979  27.218  0.00  0.00    +0.037 A 
ATOM      7  C   UNL A   1     -24.524   2.031  27.699  0.00  0.00    -0.000 A 
ATOM      8  C   UNL A   1     -24.106   1.048  28.558  0.00  0.00    -0.010 A 
ATOM      9  C   UNL A   1     -24.906   0.067  28.986  0.00  0.00    -0.016 A 
ATOM     10  C   UNL A   1     -25.275  -1.556  30.596  0.00  0.00    +0.106 C 
ATOM     11  C   UNL A   1     -24.395  -0.766  30.032  0.00  0.00    +0.048 C 
ATOM     12  C   UNL A   1     -27.333  -2.897  30.469  0.00  0.00    +0.312 C 
ATOM     13  O   UNL A   1     -28.243  -2.589  31.251  0.00  0.00    -0.264 OA
ENDROOT
BRANCH  12  14
ATOM     14  C   UNL A   1     -26.963  -4.147  30.014  0.00  0.00    +0.338 C 
ATOM     15  O   UNL A   1     -25.948  -4.330  29.302  0.00  0.00    -0.262 OA
ATOM     16  N   UNL A   1     -27.815  -5.169  30.306  0.00  0.00    -0.080 NA
ENDBRANCH  12  14
BRANCH   8  17
ATOM     17  C   UNL A   1     -22.643   1.123  28.922  0.00  0.00    +0.099 C 
BRANCH  17  18
ATOM     18  N   UNL A   1     -21.939   0.452  28.562  0.00  0.00    -0.267 NA
ATOM     19  C   UNL A   1     -21.546  -0.661  28.647  0.00  0.00    +0.090 C 
ATOM     20  C   UNL A   1     -20.950   1.188  27.613  0.00  0.00    +0.090 C 
ENDBRANCH  17  18
ENDBRANCH   8  17
BRANCH   5  21
ATOM     21  O   UNL A   1     -28.011   1.018  27.277  0.00  0.00    -0.470 OA
BRANCH  21  22
ATOM     22  C   UNL A   1     -28.883   1.956  27.859  0.00  0.00    +0.232 C 
BRANCH  22  23
ATOM     23  C   UNL A   1     -30.090   1.512  28.111  0.00  0.00    +0.021 A 
ATOM     24  C   UNL A   1     -30.571   0.265  27.787  0.00  0.00    -0.001 A 
ATOM     25  C   UNL A   1     -31.887  -0.236  28.103  0.00  0.00    -0.000 A 
ATOM     26  C   UNL A   1     -32.295  -1.519  27.777  0.00  0.00    -0.000 A 
ATOM     27  C   UNL A   1     -32.876  -2.328  28.637  0.00  0.00    -0.000 A 
ATOM     28  C   UNL A   1     -33.554  -1.775  29.774  0.00  0.00    -0.000 A 
ATOM     29  C   UNL A   1     -33.236  -0.457  30.117  0.00  0.00    -0.000 A 
ATOM     30  C   UNL A   1     -32.379   0.183  29.424  0.00  0.00    -0.000 A 
ATOM     31  C   UNL A   1     -32.038   1.482  30.021  0.00  0.00    -0.000 A 
ATOM     32  C   UNL A   1     -30.766   2.103  29.368  0.00  0.00    -0.001 A 
BRANCH  32  33
ATOM     33  C   UNL A   1     -30.305   3.369  29.889  0.00  0.00    -0.005 C 
ATOM     34  C   UNL A   1     -30.928   4.263  30.177  0.00  0.00    -0.026 C 
ATOM     35  C   UNL A   1     -32.367   4.356  30.103  0.00  0.00    +0.031 C 
ENDBRANCH  32  33
ENDBRANCH  22  23
ENDBRANCH  21  22
ENDBRANCH   5  21
TORSDOF 7
