MODEL 3095
MODEL 1
REMARK VINA RESULT:    -5.646      0.000      0.000
REMARK INTER + INTRA:          -6.167
REMARK INTER:                  -5.976
REMARK INTRA:                  -0.191
REMARK UNBOUND:                -0.191
REMARK  Name = No_3095-gen_results/8p0m/2024-11-26-14-13-15/
REMARK  1 active torsions:
REMARK  status: ('A' for Active; 'I' for Inactive)
REMARK    1  A    between atoms: C_4  and  C_7
REMARK                            x       y       z     vdW  Elec       q    Type
REMARK                         _______ _______ _______ _____ _____    ______ ____
ROOT
ATOM      1  C   UNL A   1     -26.528  -4.129  29.715  0.00  0.00    +0.009 C 
ATOM      2  C   UNL A   1     -25.937  -4.975  29.498  0.00  0.00    -0.002 C 
ATOM      3  C   UNL A   1     -25.882  -2.816  29.558  0.00  0.00    +0.216 C 
ATOM      4  C   UNL A   1     -24.573  -2.714  29.002  0.00  0.00    +0.270 C 
ATOM      5  C   UNL A   1     -23.950  -3.901  28.710  0.00  0.00    +0.017 C 
ATOM      6  C   UNL A   1     -24.580  -5.080  28.899  0.00  0.00    -0.002 C 
ATOM      7  F   UNL A   1     -24.978  -2.260  28.083  0.00  0.00    -0.224 F 
ATOM      8  O   UNL A   1     -26.839  -1.664  29.348  0.00  0.00    -0.215 OA
ENDROOT
BRANCH   4   9
ATOM      9  C   UNL A   1     -23.932  -1.437  28.824  0.00  0.00    +0.431 C 
ATOM     10  F   UNL A   1     -24.233  -0.931  27.856  0.00  0.00    -0.167 F 
ATOM     11  F   UNL A   1     -22.553  -1.624  28.755  0.00  0.00    -0.167 F 
ATOM     12  F   UNL A   1     -24.040  -0.609  29.901  0.00  0.00    -0.167 F 
ENDBRANCH   4   9
TORSDOF 1
ENDMDL
ENDMDL
