REMARK  Name = No_3095-gen_results/8p0m/2024-11-26-14-13-15/
REMARK  1 active torsions:
REMARK  status: ('A' for Active; 'I' for Inactive)
REMARK    1  A    between atoms: C_4  and  C_7
REMARK                            x       y       z     vdW  Elec       q    Type
REMARK                         _______ _______ _______ _____ _____    ______ ____
ROOT
ATOM      1  C   UNL A   1     -28.016  -0.814  28.878  0.00  0.00    +0.009 C 
ATOM      2  C   UNL A   1     -28.469  -0.785  29.829  0.00  0.00    -0.002 C 
ATOM      3  C   UNL A   1     -26.546  -0.876  28.850  0.00  0.00    +0.216 C 
ATOM      4  C   UNL A   1     -25.804  -1.032  30.057  0.00  0.00    +0.270 C 
ATOM      5  C   UNL A   1     -26.537  -1.039  31.217  0.00  0.00    +0.017 C 
ATOM      6  C   UNL A   1     -27.884  -0.953  31.186  0.00  0.00    -0.002 C 
ATOM      7  F   UNL A   1     -25.526  -2.061  29.776  0.00  0.00    -0.224 F 
ATOM      8  O   UNL A   1     -25.963  -1.443  27.575  0.00  0.00    -0.215 OA
ENDROOT
BRANCH   4   9
ATOM      9  C   UNL A   1     -24.366  -1.113  30.048  0.00  0.00    +0.431 C 
ATOM     10  F   UNL A   1     -23.972  -1.925  30.732  0.00  0.00    -0.167 F 
ATOM     11  F   UNL A   1     -23.838   0.087  30.521  0.00  0.00    -0.167 F 
ATOM     12  F   UNL A   1     -23.824  -1.174  28.799  0.00  0.00    -0.167 F 
ENDBRANCH   4   9
TORSDOF 1
