REMARK  Name = No_3096-gen_results/8p0m/2024-11-26-14-13-15/
REMARK  3 active torsions:
REMARK  status: ('A' for Active; 'I' for Inactive)
REMARK    1  A    between atoms: C_1  and  C_2
REMARK    2  A    between atoms: C_1  and  O_4
REMARK    3  A    between atoms: O_4  and  C_8
REMARK                            x       y       z     vdW  Elec       q    Type
REMARK                         _______ _______ _______ _____ _____    ______ ____
ROOT
ATOM      1  C   UNL A   1     -28.016  -0.814  28.878  0.00  0.00    +0.426 C 
ATOM      2  F   UNL A   1     -29.151  -0.759  28.521  0.00  0.00    -0.179 F 
ENDROOT
BRANCH   1   3
ATOM      3  C   UNL A   1     -27.064  -0.119  28.608  0.00  0.00    +0.469 C 
ATOM      4  F   UNL A   1     -27.043   0.244  27.428  0.00  0.00    -0.164 F 
ATOM      5  F   UNL A   1     -25.816  -0.731  28.819  0.00  0.00    -0.164 F 
ATOM      6  F   UNL A   1     -26.925   1.051  29.331  0.00  0.00    -0.164 F 
ENDBRANCH   1   3
BRANCH   1   7
ATOM      7  O   UNL A   1     -27.875  -1.643  29.947  0.00  0.00    -0.402 OA
BRANCH   7   8
ATOM      8  C   UNL A   1     -28.589  -2.903  30.151  0.00  0.00    +0.407 C 
ATOM      9 CL   UNL A   1     -29.957  -2.947  30.083  0.00  0.00    +0.002 Cl
ATOM     10  O   UNL A   1     -27.766  -3.928  30.416  0.00  0.00    -0.231 OA
ENDBRANCH   7   8
ENDBRANCH   1   7
TORSDOF 3
