MODEL 3096
MODEL 1
REMARK VINA RESULT:    -5.582      0.000      0.000
REMARK INTER + INTRA:          -6.696
REMARK INTER:                  -6.561
REMARK INTRA:                  -0.135
REMARK UNBOUND:                -0.135
REMARK  Name = No_3096-gen_results/8p0m/2024-11-26-14-13-15/
REMARK  3 active torsions:
REMARK  status: ('A' for Active; 'I' for Inactive)
REMARK    1  A    between atoms: C_1  and  C_2
REMARK    2  A    between atoms: C_1  and  O_4
REMARK    3  A    between atoms: O_4  and  C_8
REMARK                            x       y       z     vdW  Elec       q    Type
REMARK                         _______ _______ _______ _____ _____    ______ ____
ROOT
ATOM      1  C   UNL A   1      -9.231  -9.317  19.895  0.00  0.00    +0.426 C 
ATOM      2  F   UNL A   1     -10.227  -9.374  20.546  0.00  0.00    -0.179 F 
ENDROOT
BRANCH   1   3
ATOM      3  C   UNL A   1      -8.100  -9.666  20.143  0.00  0.00    +0.469 C 
ATOM      4  F   UNL A   1      -7.883  -9.799  21.351  0.00  0.00    -0.164 F 
ATOM      5  F   UNL A   1      -7.105  -8.780  19.693  0.00  0.00    -0.164 F 
ATOM      6  F   UNL A   1      -7.682 -10.859  19.584  0.00  0.00    -0.164 F 
ENDBRANCH   1   3
BRANCH   1   7
ATOM      7  O   UNL A   1      -9.509  -9.048  18.592  0.00  0.00    -0.402 OA
BRANCH   7   8
ATOM      8  C   UNL A   1      -9.782 -10.041  17.553  0.00  0.00    +0.407 C 
ATOM      9 CL   UNL A   1      -8.784 -10.463  16.714  0.00  0.00    +0.002 Cl
ATOM     10  O   UNL A   1     -11.065 -10.430  17.533  0.00  0.00    -0.231 OA
ENDBRANCH   7   8
ENDBRANCH   1   7
TORSDOF 3
ENDMDL
ENDMDL
