MODEL 3097
MODEL 1
REMARK VINA RESULT:    -6.557      0.000      0.000
REMARK INTER + INTRA:          -9.324
REMARK INTER:                  -8.090
REMARK INTRA:                  -1.234
REMARK UNBOUND:                -1.234
REMARK  Name = No_3097-gen_results/8p0m/2024-11-26-14-13-15/
REMARK  4 active torsions:
REMARK  status: ('A' for Active; 'I' for Inactive)
REMARK    1  A    between atoms: C_2  and  C_8
REMARK    2  A    between atoms: C_8  and  C_9
REMARK    3  A    between atoms: C_8  and  C_16
REMARK    4  A    between atoms: C_9  and  C_10
REMARK                            x       y       z     vdW  Elec       q    Type
REMARK                         _______ _______ _______ _____ _____    ______ ____
ROOT
ATOM      1  C   UNL A   1     -23.528  -0.750  29.884  0.00  0.00    +0.049 C 
ENDROOT
BRANCH   1   3
ATOM      2  C   UNL A   1     -23.420  -1.362  32.242  0.00  0.00    -0.002 A 
ATOM      3  C   UNL A   1     -23.934  -0.660  31.402  0.00  0.00    -0.018 A 
ATOM      4  C   UNL A   1     -25.015   0.178  31.617  0.00  0.00    -0.002 A 
ATOM      5  C   UNL A   1     -25.540   0.233  32.942  0.00  0.00    +0.029 A 
ATOM      6  C   UNL A   1     -24.851  -0.446  33.882  0.00  0.00    +0.140 A 
ATOM      7  C   UNL A   1     -23.762  -1.157  33.580  0.00  0.00    +0.029 A 
ATOM      8  F   UNL A   1     -25.286  -0.340  35.129  0.00  0.00    -0.204 F 
ENDBRANCH   1   3
BRANCH   1   9
ATOM      9  C   UNL A   1     -22.187  -0.530  29.492  0.00  0.00    -0.022 C 
ATOM     10  C   UNL A   1     -22.006   0.396  28.591  0.00  0.00    -0.005 C 
ENDBRANCH   1   9
BRANCH   1  11
ATOM     11  C   UNL A   1     -24.505  -1.087  28.941  0.00  0.00    +0.035 C 
BRANCH  11  12
ATOM     12  C   UNL A   1     -24.797  -2.555  29.016  0.00  0.00    -0.021 A 
ATOM     13  C   UNL A   1     -23.951  -3.411  28.513  0.00  0.00    -0.004 A 
ATOM     14  C   UNL A   1     -24.158  -4.839  28.677  0.00  0.00    -0.000 A 
ATOM     15  C   UNL A   1     -25.326  -5.266  29.294  0.00  0.00    -0.000 A 
ATOM     16  C   UNL A   1     -26.255  -4.316  29.717  0.00  0.00    -0.000 A 
ATOM     17  C   UNL A   1     -26.009  -2.969  29.573  0.00  0.00    -0.004 A 
ENDBRANCH  11  12
ENDBRANCH   1  11
TORSDOF 4
ENDMDL
ENDMDL
