REMARK  Name = No_3097-gen_results/8p0m/2024-11-26-14-13-15/
REMARK  4 active torsions:
REMARK  status: ('A' for Active; 'I' for Inactive)
REMARK    1  A    between atoms: C_2  and  C_8
REMARK    2  A    between atoms: C_8  and  C_9
REMARK    3  A    between atoms: C_8  and  C_16
REMARK    4  A    between atoms: C_9  and  C_10
REMARK                            x       y       z     vdW  Elec       q    Type
REMARK                         _______ _______ _______ _____ _____    ______ ____
ROOT
ATOM      1  C   UNL A   1     -25.713  -0.215  29.410  0.00  0.00    +0.049 C 
ENDROOT
BRANCH   1   3
ATOM      2  C   UNL A   1     -28.016  -0.814  28.878  0.00  0.00    -0.002 A 
ATOM      3  C   UNL A   1     -27.064  -0.119  28.608  0.00  0.00    -0.018 A 
ATOM      4  C   UNL A   1     -26.972   0.714  27.506  0.00  0.00    -0.002 A 
ATOM      5  C   UNL A   1     -28.105   0.774  26.642  0.00  0.00    +0.029 A 
ATOM      6  C   UNL A   1     -29.201   0.104  27.053  0.00  0.00    +0.140 A 
ATOM      7  C   UNL A   1     -29.210  -0.603  28.185  0.00  0.00    +0.029 A 
ATOM      8  F   UNL A   1     -30.283   0.214  26.296  0.00  0.00    -0.204 F 
ENDBRANCH   1   3
BRANCH   1   9
ATOM      9  C   UNL A   1     -25.142  -1.478  29.693  0.00  0.00    -0.022 C 
ATOM     10  C   UNL A   1     -24.792  -1.674  30.934  0.00  0.00    -0.005 C 
ENDBRANCH   1   9
BRANCH   1  11
ATOM     11  C   UNL A   1     -25.072   0.966  29.801  0.00  0.00    +0.035 C 
BRANCH  11  12
ATOM     12  C   UNL A   1     -24.075   1.371  28.758  0.00  0.00    -0.021 A 
ATOM     13  C   UNL A   1     -22.805   1.143  28.951  0.00  0.00    -0.004 A 
ATOM     14  C   UNL A   1     -21.836   1.422  27.906  0.00  0.00    -0.000 A 
ATOM     15  C   UNL A   1     -22.285   2.026  26.740  0.00  0.00    -0.000 A 
ATOM     16  C   UNL A   1     -23.635   2.353  26.623  0.00  0.00    -0.000 A 
ATOM     17  C   UNL A   1     -24.530   2.044  27.622  0.00  0.00    -0.004 A 
ENDBRANCH  11  12
ENDBRANCH   1  11
TORSDOF 4
