REMARK  Name = No_3098-gen_results/8p0m/2024-11-26-14-13-15/
REMARK  2 active torsions:
REMARK  status: ('A' for Active; 'I' for Inactive)
REMARK    1  A    between atoms: C_2  and  C_9
REMARK    2  A    between atoms: C_9  and  C_10
REMARK                            x       y       z     vdW  Elec       q    Type
REMARK                         _______ _______ _______ _____ _____    ______ ____
ROOT
ATOM      1  C   UNL A   1     -28.016  -0.814  28.878  0.00  0.00    +0.028 A 
ATOM      2  C   UNL A   1     -27.064  -0.119  28.608  0.00  0.00    +0.012 A 
ATOM      3  C   UNL A   1     -25.792  -0.430  29.076  0.00  0.00    +0.137 A 
ATOM      4  C   UNL A   1     -25.576  -1.565  29.936  0.00  0.00    +0.032 A 
ATOM      5  C   UNL A   1     -26.735  -2.300  30.217  0.00  0.00    +0.032 A 
ATOM      6  C   UNL A   1     -27.918  -1.954  29.763  0.00  0.00    +0.140 A 
ATOM      7  F   UNL A   1     -28.965  -2.696  30.072  0.00  0.00    -0.204 F 
ATOM      8  F   UNL A   1     -24.683   0.311  28.840  0.00  0.00    -0.204 F 
ENDROOT
BRANCH   2   9
ATOM      9  C   UNL A   1     -27.112   1.117  27.742  0.00  0.00    +0.054 C 
BRANCH   9  10
ATOM     10  C   UNL A   1     -26.728   1.034  26.445  0.00  0.00    -0.026 C 
ATOM     11  C   UNL A   1     -25.977   0.075  26.024  0.00  0.00    -0.030 C 
ATOM     12  C   UNL A   1     -25.544  -0.014  24.613  0.00  0.00    +0.030 C 
ENDBRANCH   9  10
ENDBRANCH   2   9
TORSDOF 2
