MODEL 3098
MODEL 1
REMARK VINA RESULT:    -5.667      0.000      0.000
REMARK INTER + INTRA:          -6.654
REMARK INTER:                  -6.330
REMARK INTRA:                  -0.324
REMARK UNBOUND:                -0.324
REMARK  Name = No_3098-gen_results/8p0m/2024-11-26-14-13-15/
REMARK  2 active torsions:
REMARK  status: ('A' for Active; 'I' for Inactive)
REMARK    1  A    between atoms: C_2  and  C_9
REMARK    2  A    between atoms: C_9  and  C_10
REMARK                            x       y       z     vdW  Elec       q    Type
REMARK                         _______ _______ _______ _____ _____    ______ ____
ROOT
ATOM      1  C   UNL A   1     -22.469   0.480  28.333  0.00  0.00    +0.028 A 
ATOM      2  C   UNL A   1     -23.531  -0.092  28.250  0.00  0.00    +0.012 A 
ATOM      3  C   UNL A   1     -24.425   0.197  27.225  0.00  0.00    +0.137 A 
ATOM      4  C   UNL A   1     -24.133   1.221  26.255  0.00  0.00    +0.032 A 
ATOM      5  C   UNL A   1     -22.894   1.849  26.439  0.00  0.00    +0.032 A 
ATOM      6  C   UNL A   1     -22.092   1.550  27.435  0.00  0.00    +0.140 A 
ATOM      7  F   UNL A   1     -20.941   2.186  27.544  0.00  0.00    -0.204 F 
ATOM      8  F   UNL A   1     -25.642  -0.380  27.079  0.00  0.00    -0.204 F 
ENDROOT
BRANCH   2   9
ATOM      9  C   UNL A   1     -24.008  -1.173  29.191  0.00  0.00    +0.054 C 
BRANCH   9  10
ATOM     10  C   UNL A   1     -23.664  -2.461  28.951  0.00  0.00    -0.026 C 
ATOM     11  C   UNL A   1     -24.553  -3.387  28.835  0.00  0.00    -0.030 C 
ATOM     12  C   UNL A   1     -24.183  -4.796  28.586  0.00  0.00    +0.030 C 
ENDBRANCH   9  10
ENDBRANCH   2   9
TORSDOF 2
ENDMDL
ENDMDL
