MODEL 3099
MODEL 1
REMARK VINA RESULT:    -5.988      0.000      0.000
REMARK INTER + INTRA:          -6.844
REMARK INTER:                  -6.689
REMARK INTRA:                  -0.155
REMARK UNBOUND:                -0.155
REMARK  Name = No_3099-gen_results/8p0m/2024-11-26-14-13-15/
REMARK  2 active torsions:
REMARK  status: ('A' for Active; 'I' for Inactive)
REMARK    1  A    between atoms: C_3  and  C_13
REMARK    2  A    between atoms: C_5  and  C_11
REMARK                            x       y       z     vdW  Elec       q    Type
REMARK                         _______ _______ _______ _____ _____    ______ ____
ROOT
ATOM      1  C   UNL A   1     -23.390   1.392  27.046  0.00  0.00    +0.000 A 
ATOM      2  C   UNL A   1     -23.675   0.319  27.525  0.00  0.00    +0.004 A 
ATOM      3  C   UNL A   1     -24.901  -0.312  27.394  0.00  0.00    +0.056 A 
ATOM      4  C   UNL A   1     -25.295  -1.551  28.020  0.00  0.00    +0.000 A 
ATOM      5  C   UNL A   1     -24.362  -2.217  28.849  0.00  0.00    -0.022 A 
ATOM      6  C   UNL A   1     -23.084  -1.625  29.022  0.00  0.00    -0.004 A 
ATOM      7  C   UNL A   1     -22.817  -0.438  28.413  0.00  0.00    -0.000 A 
ATOM      8  C   UNL A   1     -21.987   1.907  27.151  0.00  0.00    +0.000 A 
ATOM      9  C   UNL A   1     -21.121   1.316  28.116  0.00  0.00    -0.000 A 
ATOM     10  C   UNL A   1     -21.428  -0.018  28.607  0.00  0.00    -0.000 A 
ENDROOT
BRANCH   3  11
ATOM     11  C   UNL A   1     -25.995   0.334  26.631  0.00  0.00    +0.284 C 
ATOM     12  O   UNL A   1     -26.781   0.940  27.023  0.00  0.00    -0.267 OA
ATOM     13  N   UNL A   1     -26.037  -0.027  25.265  0.00  0.00    -0.084 NA
ENDBRANCH   3  11
BRANCH   5  14
ATOM     14  C   UNL A   1     -24.720  -3.498  29.507  0.00  0.00    +0.026 C 
ATOM     15  C   UNL A   1     -24.233  -4.662  28.733  0.00  0.00    +0.005 C 
ENDBRANCH   5  14
TORSDOF 2
ENDMDL
ENDMDL
