MODEL 309
MODEL 1
REMARK VINA RESULT:    -5.247      0.000      0.000
REMARK INTER + INTRA:          -5.710
REMARK INTER:                  -5.553
REMARK INTRA:                  -0.157
REMARK UNBOUND:                -0.157
REMARK  Name = No_309-gen_results/8p0m/2024-11-26-14-13-15/
REMARK  1 active torsions:
REMARK  status: ('A' for Active; 'I' for Inactive)
REMARK    1  A    between atoms: C_4  and  C_7
REMARK                            x       y       z     vdW  Elec       q    Type
REMARK                         _______ _______ _______ _____ _____    ______ ____
ROOT
ATOM      1  C   UNL A   1     -26.718  -3.990  29.899  0.00  0.00    -0.000 A 
ATOM      2  C   UNL A   1     -26.185  -4.877  29.700  0.00  0.00    -0.000 A 
ATOM      3  C   UNL A   1     -25.948  -2.707  29.680  0.00  0.00    -0.000 A 
ATOM      4  C   UNL A   1     -24.685  -2.739  29.030  0.00  0.00    -0.000 A 
ATOM      5  C   UNL A   1     -24.931  -5.242  28.980  0.00  0.00    -0.000 A 
ATOM      6  C   UNL A   1     -24.182  -4.055  28.747  0.00  0.00    -0.000 A 
ENDROOT
BRANCH   4   7
ATOM      7  C   UNL A   1     -23.896  -1.592  28.763  0.00  0.00    -0.005 C 
ATOM      8  C   UNL A   1     -22.757  -1.435  29.189  0.00  0.00    -0.026 C 
ATOM      9  C   UNL A   1     -22.002  -0.219  28.988  0.00  0.00    +0.031 C 
ENDBRANCH   4   7
TORSDOF 1
ENDMDL
ENDMDL
