MODEL 30
MODEL 1
REMARK VINA RESULT:    -6.749      0.000      0.000
REMARK INTER + INTRA:          -6.749
REMARK INTER:                  -6.749
REMARK INTRA:                   0.000
REMARK UNBOUND:                 0.000
REMARK  Name = No_30-gen_results/8p0m/2024-11-26-14-13-15/
REMARK  0 active torsions:
REMARK  status: ('A' for Active; 'I' for Inactive)
REMARK                            x       y       z     vdW  Elec       q    Type
REMARK                         _______ _______ _______ _____ _____    ______ ____
ROOT
ATOM      1  C   UNL A   1     -26.310  -4.352  29.859  0.00  0.00    -0.004 A 
ATOM      2  C   UNL A   1     -25.818  -5.137  29.357  0.00  0.00    -0.000 A 
ATOM      3  C   UNL A   1     -25.678  -3.090  29.890  0.00  0.00    -0.015 A 
ATOM      4  C   UNL A   1     -24.448  -2.874  29.299  0.00  0.00    +0.035 A 
ATOM      5  C   UNL A   1     -23.874  -3.958  28.655  0.00  0.00    +0.003 A 
ATOM      6  C   UNL A   1     -24.546  -5.162  28.619  0.00  0.00    +0.000 A 
ATOM      7  C   UNL A   1     -26.276  -1.883  30.548  0.00  0.00    +0.053 C 
ATOM      8  C   UNL A   1     -25.473  -0.738  30.682  0.00  0.00    -0.015 A 
ATOM      9  C   UNL A   1     -25.982   0.460  30.798  0.00  0.00    -0.004 A 
ATOM     10  C   UNL A   1     -25.068   1.662  30.736  0.00  0.00    -0.000 A 
ATOM     11  C   UNL A   1     -23.664   1.412  30.572  0.00  0.00    +0.000 A 
ATOM     12  C   UNL A   1     -23.206   0.141  30.523  0.00  0.00    +0.003 A 
ATOM     13  C   UNL A   1     -24.075  -0.950  30.457  0.00  0.00    +0.035 A 
ATOM     14  C   UNL A   1     -23.669  -1.745  29.601  0.00  0.00    +0.195 C 
ATOM     15  O   UNL A   1     -22.394  -1.785  29.039  0.00  0.00    -0.287 OA
ENDROOT
TORSDOF 0
ENDMDL
ENDMDL
