REMARK  Name = No_310-gen_results/8p0m/2024-11-26-14-13-15/
REMARK  1 active torsions:
REMARK  status: ('A' for Active; 'I' for Inactive)
REMARK    1  A    between atoms: C_3  and  C_7
REMARK                            x       y       z     vdW  Elec       q    Type
REMARK                         _______ _______ _______ _____ _____    ______ ____
ROOT
ATOM      1  C   UNL A   1     -28.016  -0.814  28.878  0.00  0.00    +0.000 A 
ATOM      2  C   UNL A   1     -27.064  -0.119  28.608  0.00  0.00    +0.000 A 
ATOM      3  C   UNL A   1     -25.765  -0.390  29.036  0.00  0.00    +0.000 A 
ATOM      4  C   UNL A   1     -25.530  -1.530  29.901  0.00  0.00    +0.000 A 
ATOM      5  C   UNL A   1     -26.658  -2.292  30.203  0.00  0.00    +0.000 A 
ATOM      6  C   UNL A   1     -27.855  -1.956  29.763  0.00  0.00    +0.000 A 
ENDROOT
BRANCH   3   7
ATOM      7  C   UNL A   1     -24.701   0.565  28.727  0.00  0.00    +0.000 A 
ATOM      8  C   UNL A   1     -23.456   0.318  29.249  0.00  0.00    +0.000 A 
ATOM      9  C   UNL A   1     -22.369   1.156  28.920  0.00  0.00    +0.000 A 
ATOM     10  C   UNL A   1     -22.494   2.081  27.843  0.00  0.00    +0.000 A 
ATOM     11  C   UNL A   1     -24.716   1.475  27.684  0.00  0.00    +0.000 A 
ATOM     12  C   UNL A   1     -23.678   2.220  27.264  0.00  0.00    +0.000 A 
ENDBRANCH   3   7
TORSDOF 1
