REMARK  Name = No_3100-gen_results/8p0m/2024-11-26-14-13-15/
REMARK  7 active torsions:
REMARK  status: ('A' for Active; 'I' for Inactive)
REMARK    1  A    between atoms: C_1  and  C_2
REMARK    2  A    between atoms: C_1  and  C_8
REMARK    3  A    between atoms: C_3  and  C_20
REMARK    4  A    between atoms: C_6  and  C_14
REMARK    5  A    between atoms: C_12  and  C_23
REMARK    6  A    between atoms: C_14  and  C_15
REMARK    7  A    between atoms: C_23  and  C_26
REMARK                            x       y       z     vdW  Elec       q    Type
REMARK                         _______ _______ _______ _____ _____    ______ ____
ROOT
ATOM      1  C   UNL A   1     -28.643  -0.446  30.238  0.00  0.00    -0.018 A 
ATOM      2  C   UNL A   1     -29.654  -0.503  30.538  0.00  0.00    -0.004 A 
ATOM      3  C   UNL A   1     -30.193  -0.135  31.895  0.00  0.00    -0.001 A 
ATOM      4  C   UNL A   1     -29.288   0.269  32.846  0.00  0.00    -0.004 A 
ATOM      5  C   UNL A   1     -27.930   0.256  32.509  0.00  0.00    -0.019 A 
ATOM      6  C   UNL A   1     -27.554  -0.078  31.303  0.00  0.00    -0.008 A 
ENDROOT
BRANCH   5   7
ATOM      7  C   UNL A   1     -26.927   0.654  33.520  0.00  0.00    +0.038 C 
ATOM      8  C   UNL A   1     -25.631   0.277  33.324  0.00  0.00    +0.008 C 
ATOM      9  C   UNL A   1     -27.413   0.270  34.948  0.00  0.00    +0.007 C 
ATOM     10  C   UNL A   1     -26.760  -0.598  35.635  0.00  0.00    +0.001 C 
ATOM     11  C   UNL A   1     -24.940  -0.768  34.058  0.00  0.00    +0.001 C 
ATOM     12  C   UNL A   1     -25.453  -1.060  35.265  0.00  0.00    +0.000 C 
ATOM     13  C   UNL A   1     -28.644   0.814  35.470  0.00  0.00    +0.001 C 
BRANCH   7  14
ATOM     14  C   UNL A   1     -26.954   2.308  33.529  0.00  0.00    -0.019 A 
ATOM     15  C   UNL A   1     -26.189   2.892  32.614  0.00  0.00    -0.004 A 
ATOM     16  C   UNL A   1     -26.212   4.391  32.516  0.00  0.00    -0.000 A 
ATOM     17  C   UNL A   1     -26.779   4.930  33.328  0.00  0.00    -0.000 A 
ATOM     18  C   UNL A   1     -27.595   4.425  34.392  0.00  0.00    -0.000 A 
ATOM     19  C   UNL A   1     -27.620   3.046  34.516  0.00  0.00    -0.004 A 
ENDBRANCH   7  14
ENDBRANCH   5   7
BRANCH   1  20
ATOM     20  C   UNL A   1     -28.016  -0.814  28.878  0.00  0.00    +0.053 C 
BRANCH  20  21
ATOM     21  C   UNL A   1     -27.064  -0.119  28.608  0.00  0.00    -0.012 A 
ATOM     22  C   UNL A   1     -27.001   0.691  27.491  0.00  0.00    +0.076 A 
ATOM     23  C   UNL A   1     -25.855   1.482  27.083  0.00  0.00    +0.006 A 
ATOM     24  C   UNL A   1     -24.901   1.389  27.592  0.00  0.00    -0.004 A 
ATOM     25  C   UNL A   1     -24.678   0.576  28.830  0.00  0.00    -0.019 A 
ATOM     26  C   UNL A   1     -25.770  -0.205  29.280  0.00  0.00    -0.008 A 
BRANCH  22  27
ATOM     27  C   UNL A   1     -28.277   0.803  26.698  0.00  0.00    +0.388 C 
ATOM     28  O   UNL A   1     -28.320   0.665  25.577  0.00  0.00    -0.241 OA
ATOM     29  O   UNL A   1     -29.380   1.005  27.333  0.00  0.00    -0.241 OA
ENDBRANCH  22  27
BRANCH  25  30
ATOM     30  C   UNL A   1     -23.364   0.490  29.521  0.00  0.00    +0.049 C 
ATOM     31  C   UNL A   1     -23.435   0.497  30.920  0.00  0.00    +0.009 C 
BRANCH  30  32
ATOM     32  C   UNL A   1     -22.281   0.209  28.737  0.00  0.00    +0.038 C 
ATOM     33  C   UNL A   1     -21.346   0.947  28.680  0.00  0.00    +0.275 C 
ATOM     34  F   UNL A   1     -21.462   2.173  28.820  0.00  0.00    -0.172 F 
ATOM     35  F   UNL A   1     -20.214   0.543  29.389  0.00  0.00    -0.172 F 
ENDBRANCH  30  32
ENDBRANCH  25  30
ENDBRANCH  20  21
ENDBRANCH   1  20
TORSDOF 7
