MODEL 3100
MODEL 1
REMARK VINA RESULT:    -7.943      0.000      0.000
REMARK INTER + INTRA:         -14.691
REMARK INTER:                 -11.193
REMARK INTRA:                  -3.498
REMARK UNBOUND:                -3.498
REMARK  Name = No_3100-gen_results/8p0m/2024-11-26-14-13-15/
REMARK  7 active torsions:
REMARK  status: ('A' for Active; 'I' for Inactive)
REMARK    1  A    between atoms: C_1  and  C_2
REMARK    2  A    between atoms: C_1  and  C_8
REMARK    3  A    between atoms: C_3  and  C_20
REMARK    4  A    between atoms: C_6  and  C_14
REMARK    5  A    between atoms: C_12  and  C_23
REMARK    6  A    between atoms: C_14  and  C_15
REMARK    7  A    between atoms: C_23  and  C_26
REMARK                            x       y       z     vdW  Elec       q    Type
REMARK                         _______ _______ _______ _____ _____    ______ ____
ROOT
ATOM      1  C   UNL A   1     -30.335 -13.927  11.814  0.00  0.00    -0.018 A 
ATOM      2  C   UNL A   1     -30.237 -13.544  12.794  0.00  0.00    -0.004 A 
ATOM      3  C   UNL A   1     -30.429 -12.107  13.202  0.00  0.00    -0.001 A 
ATOM      4  C   UNL A   1     -30.714 -11.201  12.210  0.00  0.00    -0.004 A 
ATOM      5  C   UNL A   1     -30.748 -11.661  10.889  0.00  0.00    -0.019 A 
ATOM      6  C   UNL A   1     -30.570 -12.929  10.629  0.00  0.00    -0.008 A 
ENDROOT
BRANCH   5   7
ATOM      7  C   UNL A   1     -31.020 -10.705   9.794  0.00  0.00    +0.038 C 
ATOM      8  C   UNL A   1     -32.033  -9.808   9.960  0.00  0.00    +0.008 C 
ATOM      9  C   UNL A   1     -31.152 -11.457   8.437  0.00  0.00    +0.007 C 
ATOM     10  C   UNL A   1     -32.271 -11.447   7.806  0.00  0.00    +0.001 C 
ATOM     11  C   UNL A   1     -33.324  -9.867   9.297  0.00  0.00    +0.001 C 
ATOM     12  C   UNL A   1     -33.352 -10.570   8.152  0.00  0.00    +0.000 C 
ATOM     13  C   UNL A   1     -30.052 -12.241   7.928  0.00  0.00    +0.001 C 
BRANCH   7  14
ATOM     14  C   UNL A   1     -29.624  -9.834   9.625  0.00  0.00    -0.019 A 
ATOM     15  C   UNL A   1     -29.788  -8.568   9.257  0.00  0.00    -0.004 A 
ATOM     16  C   UNL A   1     -28.571  -7.694   9.147  0.00  0.00    -0.000 A 
ATOM     17  C   UNL A   1     -27.577  -8.216   9.251  0.00  0.00    -0.000 A 
ATOM     18  C   UNL A   1     -27.264  -9.573   9.592  0.00  0.00    -0.000 A 
ATOM     19  C   UNL A   1     -28.354 -10.417   9.721  0.00  0.00    -0.004 A 
ENDBRANCH   7  14
ENDBRANCH   5   7
BRANCH   1  20
ATOM     20  C   UNL A   1     -30.144 -15.374  11.319  0.00  0.00    +0.053 C 
BRANCH  20  21
ATOM     21  C   UNL A   1     -30.754 -15.595  10.298  0.00  0.00    -0.012 A 
ATOM     22  C   UNL A   1     -30.147 -15.855   9.085  0.00  0.00    +0.076 A 
ATOM     23  C   UNL A   1     -30.832 -16.049   7.821  0.00  0.00    +0.006 A 
ATOM     24  C   UNL A   1     -31.900 -15.879   7.731  0.00  0.00    -0.004 A 
ATOM     25  C   UNL A   1     -32.809 -15.578   8.883  0.00  0.00    -0.019 A 
ATOM     26  C   UNL A   1     -32.193 -15.393  10.144  0.00  0.00    -0.008 A 
BRANCH  22  27
ATOM     27  C   UNL A   1     -28.651 -16.028   9.132  0.00  0.00    +0.388 C 
ATOM     28  O   UNL A   1     -28.152 -16.985   9.466  0.00  0.00    -0.241 OA
ATOM     29  O   UNL A   1     -27.907 -15.062   8.715  0.00  0.00    -0.241 OA
ENDBRANCH  22  27
BRANCH  25  30
ATOM     30  C   UNL A   1     -34.275 -15.377   8.732  0.00  0.00    +0.049 C 
ATOM     31  C   UNL A   1     -35.023 -16.558   8.647  0.00  0.00    +0.009 C 
BRANCH  30  32
ATOM     32  C   UNL A   1     -34.735 -14.102   8.900  0.00  0.00    +0.038 C 
ATOM     33  C   UNL A   1     -35.005 -13.675   9.980  0.00  0.00    +0.275 C 
ATOM     34  F   UNL A   1     -35.425 -14.402  10.892  0.00  0.00    -0.172 F 
ATOM     35  F   UNL A   1     -34.072 -12.797  10.532  0.00  0.00    -0.172 F 
ENDBRANCH  30  32
ENDBRANCH  25  30
ENDBRANCH  20  21
ENDBRANCH   1  20
TORSDOF 7
ENDMDL
ENDMDL
