MODEL 3101
MODEL 1
REMARK VINA RESULT:    -4.266      0.000      0.000
REMARK INTER + INTRA:          -4.266
REMARK INTER:                  -4.266
REMARK INTRA:                   0.000
REMARK UNBOUND:                 0.000
REMARK  Name = No_3101-gen_results/8p0m/2024-11-26-14-13-15/
REMARK  0 active torsions:
REMARK  status: ('A' for Active; 'I' for Inactive)
REMARK                            x       y       z     vdW  Elec       q    Type
REMARK                         _______ _______ _______ _____ _____    ______ ____
ROOT
ATOM      1  C   UNL A   1     -26.198  -4.730  29.654  0.00  0.00    +0.000 A 
ATOM      2  C   UNL A   1     -26.127  -3.680  29.694  0.00  0.00    +0.000 A 
ATOM      3  C   UNL A   1     -25.047  -5.371  29.019  0.00  0.00    +0.000 A 
ATOM      4  C   UNL A   1     -23.978  -4.650  28.546  0.00  0.00    +0.000 A 
ATOM      5  C   UNL A   1     -25.142  -2.675  29.291  0.00  0.00    +0.000 A 
ATOM      6  C   UNL A   1     -24.024  -3.286  28.675  0.00  0.00    +0.000 A 
ENDROOT
TORSDOF 0
ENDMDL
ENDMDL
