REMARK  Name = No_3102-gen_results/8p0m/2024-11-26-14-13-15/
REMARK  2 active torsions:
REMARK  status: ('A' for Active; 'I' for Inactive)
REMARK    1  A    between atoms: C_1  and  C_8
REMARK    2  A    between atoms: C_5  and  C_14
REMARK                            x       y       z     vdW  Elec       q    Type
REMARK                         _______ _______ _______ _____ _____    ______ ____
ROOT
ATOM      1  C   UNL A   1     -28.016  -0.814  28.878  0.00  0.00    -0.009 C 
ATOM      2  C   UNL A   1     -27.064  -0.119  28.608  0.00  0.00    -0.044 C 
ATOM      3  C   UNL A   1     -26.972   0.714  27.506  0.00  0.00    +0.022 C 
ATOM      4  C   UNL A   1     -25.821   1.491  27.116  0.00  0.00    +0.010 C 
ATOM      5  C   UNL A   1     -24.858   1.342  27.601  0.00  0.00    +0.044 C 
ATOM      6  C   UNL A   1     -24.622   0.529  28.814  0.00  0.00    +0.010 C 
ATOM      7  C   UNL A   1     -25.734  -0.181  29.191  0.00  0.00    +0.022 C 
ENDROOT
BRANCH   1   8
ATOM      8  C   UNL A   1     -28.633  -0.462  30.245  0.00  0.00    -0.001 A 
ATOM      9  C   UNL A   1     -29.671  -0.411  30.532  0.00  0.00    -0.000 A 
ATOM     10  C   UNL A   1     -30.270  -0.044  31.268  0.00  0.00    -0.000 A 
ATOM     11  C   UNL A   1     -29.539   0.399  32.548  0.00  0.00    -0.000 A 
ATOM     12  C   UNL A   1     -28.203   0.295  32.488  0.00  0.00    -0.000 A 
ATOM     13  C   UNL A   1     -27.675  -0.117  31.332  0.00  0.00    -0.000 A 
ENDBRANCH   1   8
BRANCH   5  14
ATOM     14  C   UNL A   1     -23.518   2.120  27.247  0.00  0.00    +0.095 C 
ATOM     15  N   UNL A   1     -23.542   3.216  26.802  0.00  0.00    -0.151 NA
ENDBRANCH   5  14
TORSDOF 2
