MODEL 3102
MODEL 1
REMARK VINA RESULT:    -6.874      0.000      0.000
REMARK INTER + INTRA:          -8.222
REMARK INTER:                  -7.678
REMARK INTRA:                  -0.545
REMARK UNBOUND:                -0.545
REMARK  Name = No_3102-gen_results/8p0m/2024-11-26-14-13-15/
REMARK  2 active torsions:
REMARK  status: ('A' for Active; 'I' for Inactive)
REMARK    1  A    between atoms: C_1  and  C_8
REMARK    2  A    between atoms: C_5  and  C_14
REMARK                            x       y       z     vdW  Elec       q    Type
REMARK                         _______ _______ _______ _____ _____    ______ ____
ROOT
ATOM      1  C   UNL A   1     -24.847  -1.218  29.760  0.00  0.00    -0.009 C 
ATOM      2  C   UNL A   1     -24.461  -0.571  28.814  0.00  0.00    -0.044 C 
ATOM      3  C   UNL A   1     -23.283   0.154  28.771  0.00  0.00    +0.022 C 
ATOM      4  C   UNL A   1     -22.838   0.997  27.689  0.00  0.00    +0.010 C 
ATOM      5  C   UNL A   1     -23.506   1.249  26.868  0.00  0.00    +0.044 C 
ATOM      6  C   UNL A   1     -24.829   0.637  26.616  0.00  0.00    +0.010 C 
ATOM      7  C   UNL A   1     -25.226  -0.187  27.639  0.00  0.00    +0.022 C 
ENDROOT
BRANCH   1   8
ATOM      8  C   UNL A   1     -25.018  -2.711  29.422  0.00  0.00    -0.001 A 
ATOM      9  C   UNL A   1     -25.847  -3.368  29.634  0.00  0.00    -0.000 A 
ATOM     10  C   UNL A   1     -26.082  -4.357  29.671  0.00  0.00    -0.000 A 
ATOM     11  C   UNL A   1     -25.061  -5.298  29.006  0.00  0.00    -0.000 A 
ATOM     12  C   UNL A   1     -23.971  -4.682  28.523  0.00  0.00    -0.000 A 
ATOM     13  C   UNL A   1     -23.877  -3.365  28.723  0.00  0.00    -0.000 A 
ENDBRANCH   1   8
BRANCH   5  14
ATOM     14  C   UNL A   1     -23.139   2.181  25.634  0.00  0.00    +0.095 C 
ATOM     15  N   UNL A   1     -23.603   3.264  25.521  0.00  0.00    -0.151 NA
ENDBRANCH   5  14
TORSDOF 2
ENDMDL
ENDMDL
