MODEL 3103
MODEL 1
REMARK VINA RESULT:    -3.483      0.000      0.000
REMARK INTER + INTRA:          -3.753
REMARK INTER:                  -3.686
REMARK INTRA:                  -0.066
REMARK UNBOUND:                -0.066
REMARK  Name = No_3103-gen_results/8p0m/2024-11-26-14-13-15/
REMARK  1 active torsions:
REMARK  status: ('A' for Active; 'I' for Inactive)
REMARK    1  A    between atoms: C_2  and  C_3
REMARK                            x       y       z     vdW  Elec       q    Type
REMARK                         _______ _______ _______ _____ _____    ______ ____
ROOT
ATOM      1  C   UNL A   1      -9.179  -9.283  19.736  0.00  0.00    -0.013 C 
ATOM      2  C   UNL A   1      -9.964  -9.690  18.615  0.00  0.00    -0.029 C 
ATOM      3  C   UNL A   1      -9.146 -10.368  17.588  0.00  0.00    +0.030 C 
ENDROOT
BRANCH   1   5
ATOM      4 CL   UNL A   1      -7.311 -10.019  21.007  0.00  0.00    -0.109 Cl
ATOM      5  C   UNL A   1      -8.053  -9.585  19.849  0.00  0.00    +0.120 C 
ENDBRANCH   1   5
TORSDOF 1
ENDMDL
ENDMDL
