MODEL 3104
MODEL 1
REMARK VINA RESULT:    -5.323      0.000      0.000
REMARK INTER + INTRA:          -6.078
REMARK INTER:                  -5.945
REMARK INTRA:                  -0.132
REMARK UNBOUND:                -0.132
REMARK  Name = No_3104-gen_results/8p0m/2024-11-26-14-13-15/
REMARK  2 active torsions:
REMARK  status: ('A' for Active; 'I' for Inactive)
REMARK    1  A    between atoms: C_2  and  C_8
REMARK    2  A    between atoms: C_8  and  N_9
REMARK                            x       y       z     vdW  Elec       q    Type
REMARK                         _______ _______ _______ _____ _____    ______ ____
ROOT
ATOM      1  C   UNL A   1     -24.173   0.031  27.493  0.00  0.00    -0.000 A 
ATOM      2  C   UNL A   1     -23.352  -0.013  28.153  0.00  0.00    +0.002 A 
ATOM      3  C   UNL A   1     -24.169   1.125  26.509  0.00  0.00    +0.029 A 
ATOM      4  C   UNL A   1     -23.036   1.980  26.380  0.00  0.00    +0.140 A 
ATOM      5  C   UNL A   1     -22.014   1.762  27.270  0.00  0.00    +0.029 A 
ATOM      6  C   UNL A   1     -22.081   0.759  28.170  0.00  0.00    -0.000 A 
ATOM      7  F   UNL A   1     -23.029   2.933  25.527  0.00  0.00    -0.204 F 
ENDROOT
BRANCH   2   8
ATOM      8  C   UNL A   1     -23.292  -1.181  29.248  0.00  0.00    +0.151 C 
BRANCH   8   9
ATOM      9  N   UNL A   1     -23.263  -2.353  28.899  0.00  0.00    -0.269 NA
ATOM     10  C   UNL A   1     -24.145  -3.257  29.206  0.00  0.00    +0.068 C 
ATOM     11  C   UNL A   1     -24.109  -4.594  28.610  0.00  0.00    +0.053 C 
ENDBRANCH   8   9
ENDBRANCH   2   8
TORSDOF 2
ENDMDL
ENDMDL
