MODEL 3105
MODEL 1
REMARK VINA RESULT:    -5.266      0.000      0.000
REMARK INTER + INTRA:          -5.742
REMARK INTER:                  -5.574
REMARK INTRA:                  -0.168
REMARK UNBOUND:                -0.168
REMARK  Name = No_3105-gen_results/8p0m/2024-11-26-14-13-15/
REMARK  1 active torsions:
REMARK  status: ('A' for Active; 'I' for Inactive)
REMARK    1  A    between atoms: C_2  and  C_7
REMARK                            x       y       z     vdW  Elec       q    Type
REMARK                         _______ _______ _______ _____ _____    ______ ____
ROOT
ATOM      1  C   UNL A   1     -23.923  -3.896  28.832  0.00  0.00    +0.004 A 
ATOM      2  C   UNL A   1     -24.274  -2.783  29.147  0.00  0.00    +0.071 A 
ATOM      3  C   UNL A   1     -25.518  -2.560  29.728  0.00  0.00    +0.004 A 
ATOM      4  C   UNL A   1     -26.446  -3.643  29.930  0.00  0.00    -0.000 A 
ATOM      5  C   UNL A   1     -25.968  -4.893  29.515  0.00  0.00    -0.000 A 
ATOM      6  C   UNL A   1     -24.789  -5.048  28.955  0.00  0.00    -0.000 A 
ENDROOT
BRANCH   2   7
ATOM      7  C   UNL A   1     -23.460  -1.548  28.987  0.00  0.00    +0.419 C 
ATOM      8  F   UNL A   1     -22.390  -1.641  28.927  0.00  0.00    -0.166 F 
ATOM      9  F   UNL A   1     -23.828  -0.740  30.102  0.00  0.00    -0.166 F 
ATOM     10  F   UNL A   1     -24.013  -0.795  27.903  0.00  0.00    -0.166 F 
ENDBRANCH   2   7
TORSDOF 1
ENDMDL
ENDMDL
