REMARK  Name = No_3106-gen_results/8p0m/2024-11-26-14-13-15/
REMARK  0 active torsions:
REMARK  status: ('A' for Active; 'I' for Inactive)
REMARK                            x       y       z     vdW  Elec       q    Type
REMARK                         _______ _______ _______ _____ _____    ______ ____
ROOT
ATOM      1  P   UNL A   1     -27.951  -0.579  29.040  0.00  0.00    +0.559 P 
ATOM      2  O   UNL A   1     -27.240   0.061  28.428  0.00  0.00    -0.220 OA
ATOM      3  O   UNL A   1     -29.355  -0.622  28.691  0.00  0.00    -0.113 OA
ATOM      4  O   UNL A   1     -27.875  -0.034  30.579  0.00  0.00    -0.113 OA
ATOM      5  O   UNL A   1     -27.493  -2.053  29.437  0.00  0.00    -0.113 OA
ENDROOT
TORSDOF 0
