MODEL 3106
MODEL 1
REMARK VINA RESULT:    -3.455      0.000      0.000
REMARK INTER + INTRA:          -3.455
REMARK INTER:                  -3.455
REMARK INTRA:                   0.000
REMARK UNBOUND:                 0.000
REMARK  Name = No_3106-gen_results/8p0m/2024-11-26-14-13-15/
REMARK  0 active torsions:
REMARK  status: ('A' for Active; 'I' for Inactive)
REMARK                            x       y       z     vdW  Elec       q    Type
REMARK                         _______ _______ _______ _____ _____    ______ ____
ROOT
ATOM      1  P   UNL A   1     -23.295 -15.646  14.429  0.00  0.00    +0.559 P 
ATOM      2  O   UNL A   1     -23.432 -15.068  15.397  0.00  0.00    -0.220 OA
ATOM      3  O   UNL A   1     -22.319 -16.713  14.366  0.00  0.00    -0.113 OA
ATOM      4  O   UNL A   1     -22.867 -14.561  13.285  0.00  0.00    -0.113 OA
ATOM      5  O   UNL A   1     -24.596 -16.115  13.636  0.00  0.00    -0.113 OA
ENDROOT
TORSDOF 0
ENDMDL
ENDMDL
