MODEL 3107
MODEL 1
REMARK VINA RESULT:    -7.755      0.000      0.000
REMARK INTER + INTRA:         -11.419
REMARK INTER:                 -10.475
REMARK INTRA:                  -0.943
REMARK UNBOUND:                -0.943
REMARK  Name = No_3107-gen_results/8p0m/2024-11-26-14-13-15/
REMARK  6 active torsions:
REMARK  status: ('A' for Active; 'I' for Inactive)
REMARK    1  A    between atoms: C_2  and  N_7
REMARK    2  A    between atoms: C_4  and  C_16
REMARK    3  A    between atoms: N_7  and  N_8
REMARK    4  A    between atoms: N_8  and  C_9
REMARK    5  A    between atoms: C_14  and  O_15
REMARK    6  A    between atoms: O_15  and  C_28
REMARK                            x       y       z     vdW  Elec       q    Type
REMARK                         _______ _______ _______ _____ _____    ______ ____
ROOT
ATOM      1  C   UNL A   1     -27.395  -0.325  24.133  0.00  0.00    +0.018 A 
ATOM      2  C   UNL A   1     -28.160   0.330  24.443  0.00  0.00    +0.089 A 
ATOM      3  C   UNL A   1     -26.033  -0.068  24.738  0.00  0.00    +0.001 A 
ATOM      4  C   UNL A   1     -25.901   0.902  25.754  0.00  0.00    +0.002 A 
ATOM      5  C   UNL A   1     -28.293   1.373  25.485  0.00  0.00    +0.018 A 
ATOM      6  C   UNL A   1     -27.061   1.633  26.069  0.00  0.00    +0.001 A 
ENDROOT
BRANCH   4   7
ATOM      7  C   UNL A   1     -24.638   1.166  26.356  0.00  0.00    +0.018 A 
ATOM      8  C   UNL A   1     -23.950   1.974  26.236  0.00  0.00    +0.002 A 
ATOM      9  C   UNL A   1     -24.225   0.102  27.364  0.00  0.00    +0.087 A 
ATOM     10  C   UNL A   1     -22.972   0.221  27.985  0.00  0.00    +0.053 A 
ATOM     11  C   UNL A   1     -22.589   2.229  26.725  0.00  0.00    +0.000 A 
ATOM     12  C   UNL A   1     -22.196   1.272  27.708  0.00  0.00    +0.004 A 
ATOM     13  C   UNL A   1     -22.547  -0.817  28.955  0.00  0.00    +0.174 A 
ATOM     14  N   UNL A   1     -21.298  -1.124  29.084  0.00  0.00    -0.107 NA
ATOM     15  N   UNL A   1     -23.465  -1.651  29.403  0.00  0.00    -0.193 NA
ATOM     16  C   UNL A   1     -24.699  -1.771  28.976  0.00  0.00    +0.258 A 
ATOM     17  N   UNL A   1     -25.086  -0.896  27.858  0.00  0.00    -0.211 NA
ATOM     18  N   UNL A   1     -25.515  -2.680  29.343  0.00  0.00    -0.086 NA
ENDBRANCH   4   7
BRANCH   2  19
ATOM     19  N   UNL A   1     -29.418  -0.042  23.723  0.00  0.00    -0.128 NA
BRANCH  19  20
ATOM     20  N   UNL A   1     -30.365   0.645  23.753  0.00  0.00    -0.128 NA
BRANCH  20  21
ATOM     21  C   UNL A   1     -31.117   1.062  22.906  0.00  0.00    +0.089 A 
ATOM     22  C   UNL A   1     -30.876   2.325  22.335  0.00  0.00    +0.021 A 
ATOM     23  C   UNL A   1     -32.260   0.260  22.441  0.00  0.00    +0.021 A 
ATOM     24  C   UNL A   1     -31.778   2.852  21.325  0.00  0.00    +0.039 A 
ATOM     25  C   UNL A   1     -33.100   0.865  21.421  0.00  0.00    +0.039 A 
ATOM     26  C   UNL A   1     -32.831   2.093  20.891  0.00  0.00    +0.145 A 
BRANCH  26  27
ATOM     27  O   UNL A   1     -33.655   2.555  19.940  0.00  0.00    -0.451 OA
BRANCH  27  28
ATOM     28  C   UNL A   1     -33.455   2.799  18.831  0.00  0.00    +0.175 C 
ATOM     29  C   UNL A   1     -34.174   2.569  17.918  0.00  0.00    +0.015 C 
ATOM     30  C   UNL A   1     -33.771   2.871  16.513  0.00  0.00    +0.034 C 
ENDBRANCH  27  28
ENDBRANCH  26  27
ENDBRANCH  20  21
ENDBRANCH  19  20
ENDBRANCH   2  19
TORSDOF 6
ENDMDL
ENDMDL
