REMARK  Name = No_3107-gen_results/8p0m/2024-11-26-14-13-15/
REMARK  6 active torsions:
REMARK  status: ('A' for Active; 'I' for Inactive)
REMARK    1  A    between atoms: C_2  and  N_7
REMARK    2  A    between atoms: C_4  and  C_16
REMARK    3  A    between atoms: N_7  and  N_8
REMARK    4  A    between atoms: N_8  and  C_9
REMARK    5  A    between atoms: C_14  and  O_15
REMARK    6  A    between atoms: O_15  and  C_28
REMARK                            x       y       z     vdW  Elec       q    Type
REMARK                         _______ _______ _______ _____ _____    ______ ____
ROOT
ATOM      1  C   UNL A   1     -28.016  -0.814  28.878  0.00  0.00    +0.018 A 
ATOM      2  C   UNL A   1     -28.469  -0.785  29.829  0.00  0.00    +0.089 A 
ATOM      3  C   UNL A   1     -26.504  -0.778  28.877  0.00  0.00    +0.001 A 
ATOM      4  C   UNL A   1     -25.810  -0.853  30.103  0.00  0.00    +0.002 A 
ATOM      5  C   UNL A   1     -27.991  -0.892  31.226  0.00  0.00    +0.018 A 
ATOM      6  C   UNL A   1     -26.604  -0.868  31.265  0.00  0.00    +0.001 A 
ENDROOT
BRANCH   4   7
ATOM      7  C   UNL A   1     -24.387  -0.833  30.143  0.00  0.00    +0.018 A 
ATOM      8  C   UNL A   1     -23.689  -1.315  30.792  0.00  0.00    +0.002 A 
ATOM      9  C   UNL A   1     -23.772   0.018  29.041  0.00  0.00    +0.087 A 
ATOM     10  C   UNL A   1     -22.377   0.162  29.008  0.00  0.00    +0.053 A 
ATOM     11  C   UNL A   1     -22.233  -1.227  30.961  0.00  0.00    +0.000 A 
ATOM     12  C   UNL A   1     -21.627  -0.474  29.912  0.00  0.00    +0.004 A 
ATOM     13  C   UNL A   1     -21.763   1.003  27.951  0.00  0.00    +0.174 A 
ATOM     14  N   UNL A   1     -20.673   1.657  28.183  0.00  0.00    -0.107 NA
ATOM     15  N   UNL A   1     -22.519   1.351  26.929  0.00  0.00    -0.193 NA
ATOM     16  C   UNL A   1     -23.811   1.166  26.802  0.00  0.00    +0.258 A 
ATOM     17  N   UNL A   1     -24.488   0.523  27.939  0.00  0.00    -0.211 NA
ATOM     18  N   UNL A   1     -24.528   1.636  25.858  0.00  0.00    -0.086 NA
ENDBRANCH   4   7
BRANCH   2  19
ATOM     19  N   UNL A   1     -29.954  -0.789  29.642  0.00  0.00    -0.128 NA
BRANCH  19  20
ATOM     20  N   UNL A   1     -30.468  -0.137  28.817  0.00  0.00    -0.128 NA
BRANCH  20  21
ATOM     21  C   UNL A   1     -31.151   0.857  28.848  0.00  0.00    +0.089 A 
ATOM     22  C   UNL A   1     -31.567   1.366  30.092  0.00  0.00    +0.021 A 
ATOM     23  C   UNL A   1     -31.528   1.561  27.611  0.00  0.00    +0.021 A 
ATOM     24  C   UNL A   1     -32.403   2.554  30.150  0.00  0.00    +0.039 A 
ATOM     25  C   UNL A   1     -32.356   2.744  27.770  0.00  0.00    +0.039 A 
ATOM     26  C   UNL A   1     -32.738   3.207  28.995  0.00  0.00    +0.145 A 
BRANCH  26  27
ATOM     27  O   UNL A   1     -33.485   4.319  29.035  0.00  0.00    -0.451 OA
BRANCH  27  28
ATOM     28  C   UNL A   1     -34.273   4.718  28.293  0.00  0.00    +0.175 C 
ATOM     29  C   UNL A   1     -34.374   4.430  27.149  0.00  0.00    +0.015 C 
ATOM     30  C   UNL A   1     -35.396   5.070  26.270  0.00  0.00    +0.034 C 
ENDBRANCH  27  28
ENDBRANCH  26  27
ENDBRANCH  20  21
ENDBRANCH  19  20
ENDBRANCH   2  19
TORSDOF 6
