REMARK  Name = No_3108-gen_results/8p0m/2024-11-26-14-13-15/
REMARK  0 active torsions:
REMARK  status: ('A' for Active; 'I' for Inactive)
REMARK                            x       y       z     vdW  Elec       q    Type
REMARK                         _______ _______ _______ _____ _____    ______ ____
ROOT
ATOM      1  C   UNL A   1     -28.016  -0.814  28.878  0.00  0.00    +0.003 A 
ATOM      2  C   UNL A   1     -28.469  -0.785  29.829  0.00  0.00    +0.034 A 
ATOM      3  C   UNL A   1     -27.136   0.236  28.535  0.00  0.00    -0.019 A 
ATOM      4  C   UNL A   1     -26.875   1.282  29.398  0.00  0.00    +0.031 A 
ATOM      5  C   UNL A   1     -28.361   0.199  30.924  0.00  0.00    +0.007 A 
ATOM      6  C   UNL A   1     -27.528   1.223  30.636  0.00  0.00    +0.003 A 
ATOM      7  C   UNL A   1     -26.399   0.295  27.228  0.00  0.00    +0.027 C 
ATOM      8  C   UNL A   1     -25.888   1.549  26.833  0.00  0.00    +0.012 C 
ATOM      9  C   UNL A   1     -25.518   2.496  27.768  0.00  0.00    +0.062 C 
ATOM     10  C   UNL A   1     -26.183   2.449  29.045  0.00  0.00    +0.172 C 
ATOM     11  O   UNL A   1     -25.957   3.470  29.883  0.00  0.00    -0.291 OA
ATOM     12  C   UNL A   1     -24.748   3.711  27.319  0.00  0.00    +0.008 C 
ATOM     13 BR   UNL A   1     -29.546  -2.404  30.272  0.00  0.00    -0.049 Br
ENDROOT
TORSDOF 0
