MODEL 3108
MODEL 1
REMARK VINA RESULT:    -5.587      0.000      0.000
REMARK INTER + INTRA:          -5.587
REMARK INTER:                  -5.587
REMARK INTRA:                   0.000
REMARK UNBOUND:                 0.000
REMARK  Name = No_3108-gen_results/8p0m/2024-11-26-14-13-15/
REMARK  0 active torsions:
REMARK  status: ('A' for Active; 'I' for Inactive)
REMARK                            x       y       z     vdW  Elec       q    Type
REMARK                         _______ _______ _______ _____ _____    ______ ____
ROOT
ATOM      1  C   UNL A   1     -25.007  -1.695  27.963  0.00  0.00    +0.003 A 
ATOM      2  C   UNL A   1     -24.341  -2.041  28.703  0.00  0.00    +0.034 A 
ATOM      3  C   UNL A   1     -24.740  -0.442  27.370  0.00  0.00    -0.019 A 
ATOM      4  C   UNL A   1     -23.655   0.327  27.743  0.00  0.00    +0.031 A 
ATOM      5  C   UNL A   1     -23.124  -1.430  29.274  0.00  0.00    +0.007 A 
ATOM      6  C   UNL A   1     -22.833  -0.226  28.734  0.00  0.00    +0.003 A 
ATOM      7  C   UNL A   1     -25.589   0.148  26.281  0.00  0.00    +0.027 C 
ATOM      8  C   UNL A   1     -25.478   1.537  26.060  0.00  0.00    +0.012 C 
ATOM      9  C   UNL A   1     -24.304   2.212  26.331  0.00  0.00    +0.062 C 
ATOM     10  C   UNL A   1     -23.451   1.657  27.349  0.00  0.00    +0.172 C 
ATOM     11  O   UNL A   1     -22.407   2.403  27.738  0.00  0.00    -0.291 OA
ATOM     12  C   UNL A   1     -24.144   3.631  25.849  0.00  0.00    +0.008 C 
ATOM     13 BR   UNL A   1     -24.714  -3.895  29.337  0.00  0.00    -0.049 Br
ENDROOT
TORSDOF 0
ENDMDL
ENDMDL
