MODEL 3109
MODEL 1
REMARK VINA RESULT:    -5.799      0.000      0.000
REMARK INTER + INTRA:          -6.757
REMARK INTER:                  -6.477
REMARK INTRA:                  -0.280
REMARK UNBOUND:                -0.280
REMARK  Name = No_3109-gen_results/8p0m/2024-11-26-14-13-15/
REMARK  2 active torsions:
REMARK  status: ('A' for Active; 'I' for Inactive)
REMARK    1  A    between atoms: C_1  and  C_2
REMARK    2  A    between atoms: C_5  and  C_10
REMARK                            x       y       z     vdW  Elec       q    Type
REMARK                         _______ _______ _______ _____ _____    ______ ____
ROOT
ATOM      1  C   UNL A   1     -23.213   1.875  26.376  0.00  0.00    +0.044 A 
ATOM      2  C   UNL A   1     -24.216   0.972  26.521  0.00  0.00    +0.001 A 
ATOM      3  C   UNL A   1     -24.269  -0.065  27.575  0.00  0.00    +0.004 A 
ATOM      4  C   UNL A   1     -23.162  -0.121  28.485  0.00  0.00    +0.071 A 
ATOM      5  C   UNL A   1     -22.105   0.788  28.257  0.00  0.00    +0.004 A 
ATOM      6  C   UNL A   1     -22.126   1.725  27.256  0.00  0.00    +0.001 A 
ENDROOT
BRANCH   4   7
ATOM      7  C   UNL A   1     -23.077  -1.080  29.522  0.00  0.00    +0.419 C 
ATOM      8  F   UNL A   1     -23.005  -2.185  29.252  0.00  0.00    -0.166 F 
ATOM      9  F   UNL A   1     -24.187  -0.950  30.369  0.00  0.00    -0.166 F 
ATOM     10  F   UNL A   1     -22.048  -0.704  30.362  0.00  0.00    -0.166 F 
ENDBRANCH   4   7
BRANCH   1  11
ATOM     11  C   UNL A   1     -23.182   2.717  25.508  0.00  0.00    +0.341 C 
ATOM     12  F   UNL A   1     -22.283   2.596  24.488  0.00  0.00    -0.193 F 
ATOM     13  F   UNL A   1     -23.906   3.701  25.358  0.00  0.00    -0.193 F 
ENDBRANCH   1  11
TORSDOF 2
ENDMDL
ENDMDL
