MODEL 310
MODEL 1
REMARK VINA RESULT:    -6.551      0.000      0.000
REMARK INTER + INTRA:          -7.279
REMARK INTER:                  -6.934
REMARK INTRA:                  -0.346
REMARK UNBOUND:                -0.346
REMARK  Name = No_310-gen_results/8p0m/2024-11-26-14-13-15/
REMARK  1 active torsions:
REMARK  status: ('A' for Active; 'I' for Inactive)
REMARK    1  A    between atoms: C_3  and  C_7
REMARK                            x       y       z     vdW  Elec       q    Type
REMARK                         _______ _______ _______ _____ _____    ______ ____
ROOT
ATOM      1  C   UNL A   1     -24.345  -4.919  28.753  0.00  0.00    +0.000 A 
ATOM      2  C   UNL A   1     -23.899  -3.803  28.618  0.00  0.00    +0.000 A 
ATOM      3  C   UNL A   1     -24.549  -2.653  29.066  0.00  0.00    +0.000 A 
ATOM      4  C   UNL A   1     -25.859  -2.775  29.677  0.00  0.00    +0.000 A 
ATOM      5  C   UNL A   1     -26.343  -4.077  29.795  0.00  0.00    +0.000 A 
ATOM      6  C   UNL A   1     -25.665  -5.110  29.333  0.00  0.00    +0.000 A 
ENDROOT
BRANCH   3   7
ATOM      7  C   UNL A   1     -23.963  -1.346  28.772  0.00  0.00    +0.000 A 
ATOM      8  C   UNL A   1     -22.657  -1.139  29.140  0.00  0.00    +0.000 A 
ATOM      9  C   UNL A   1     -22.010   0.071  28.810  0.00  0.00    +0.000 A 
ATOM     10  C   UNL A   1     -22.609   0.956  27.868  0.00  0.00    +0.000 A 
ATOM     11  C   UNL A   1     -24.451  -0.435  27.851  0.00  0.00    +0.000 A 
ATOM     12  C   UNL A   1     -23.827   0.677  27.425  0.00  0.00    +0.000 A 
ENDBRANCH   3   7
TORSDOF 1
ENDMDL
ENDMDL
