REMARK  Name = No_311-gen_results/8p0m/2024-11-26-14-13-15/
REMARK  4 active torsions:
REMARK  status: ('A' for Active; 'I' for Inactive)
REMARK    1  A    between atoms: C_3  and  C_8
REMARK    2  A    between atoms: C_8  and  C_12
REMARK    3  A    between atoms: C_9  and  C_10
REMARK    4  A    between atoms: C_12  and  C_13
REMARK                            x       y       z     vdW  Elec       q    Type
REMARK                         _______ _______ _______ _____ _____    ______ ____
ROOT
ATOM      1  C   UNL A   1     -24.529   0.349  28.800  0.00  0.00    -0.016 C 
ATOM      2  C   UNL A   1     -24.481   1.211  27.800  0.00  0.00    +0.001 C 
ENDROOT
BRANCH   1   5
ATOM      3  C   UNL A   1     -28.016  -0.814  28.878  0.00  0.00    +0.042 A 
ATOM      4  C   UNL A   1     -27.064  -0.119  28.608  0.00  0.00    +0.003 A 
ATOM      5  C   UNL A   1     -25.792  -0.430  29.076  0.00  0.00    -0.004 A 
ATOM      6  C   UNL A   1     -25.576  -1.565  29.936  0.00  0.00    +0.003 A 
ATOM      7  C   UNL A   1     -26.735  -2.300  30.217  0.00  0.00    +0.042 A 
ATOM      8  C   UNL A   1     -27.918  -1.954  29.763  0.00  0.00    +0.196 A 
ATOM      9  O   UNL A   1     -29.000  -2.701  30.115  0.00  0.00    -0.287 OA
ENDBRANCH   1   5
BRANCH   2  10
ATOM     10  C   UNL A   1     -23.248   1.897  27.495  0.00  0.00    +0.060 C 
ATOM     11  C   UNL A   1     -22.050   1.589  28.164  0.00  0.00    +0.279 C 
ATOM     12  F   UNL A   1     -20.955   2.209  27.913  0.00  0.00    -0.172 F 
ATOM     13  F   UNL A   1     -21.704   0.952  27.371  0.00  0.00    -0.172 F 
ENDBRANCH   2  10
BRANCH   1  14
ATOM     14  C   UNL A   1     -23.393   0.217  29.679  0.00  0.00    +0.099 C 
BRANCH  14  15
ATOM     15  C   UNL A   1     -22.133   0.803  29.251  0.00  0.00    +0.323 C 
ATOM     16  F   UNL A   1     -21.165   0.446  30.050  0.00  0.00    -0.198 F 
ATOM     17  F   UNL A   1     -22.017   0.785  30.271  0.00  0.00    -0.198 F 
ENDBRANCH  14  15
ENDBRANCH   1  14
TORSDOF 4
