MODEL 3110
MODEL 1
REMARK VINA RESULT:    -7.832      0.000      0.000
REMARK INTER + INTRA:         -10.511
REMARK INTER:                  -9.206
REMARK INTRA:                  -1.305
REMARK UNBOUND:                -1.305
REMARK  Name = No_3110-gen_results/8p0m/2024-11-26-14-13-15/
REMARK  3 active torsions:
REMARK  status: ('A' for Active; 'I' for Inactive)
REMARK    1  A    between atoms: C_2  and  C_7
REMARK    2  A    between atoms: C_4  and  C_15
REMARK    3  A    between atoms: C_8  and  C_9
REMARK                            x       y       z     vdW  Elec       q    Type
REMARK                         _______ _______ _______ _____ _____    ______ ____
ROOT
ATOM      1  C   UNL A   1     -23.534   1.326  30.224  0.00  0.00    +0.000 A 
ATOM      2  C   UNL A   1     -23.051   0.685  29.319  0.00  0.00    +0.000 A 
ATOM      3  C   UNL A   1     -23.381  -0.601  29.040  0.00  0.00    +0.000 A 
ATOM      4  C   UNL A   1     -24.342  -1.235  29.850  0.00  0.00    +0.000 A 
ATOM      5  C   UNL A   1     -24.591   0.773  31.032  0.00  0.00    +0.000 A 
ATOM      6  C   UNL A   1     -24.938  -0.526  30.811  0.00  0.00    +0.000 A 
ENDROOT
BRANCH   4   7
ATOM      7  C   UNL A   1     -24.712  -2.661  29.528  0.00  0.00    +0.000 A 
ATOM      8  C   UNL A   1     -23.796  -3.450  28.901  0.00  0.00    +0.000 A 
ATOM      9  C   UNL A   1     -24.144  -4.790  28.561  0.00  0.00    +0.000 A 
ATOM     10  C   UNL A   1     -25.264  -5.357  29.003  0.00  0.00    +0.000 A 
ATOM     11  C   UNL A   1     -26.184  -4.546  29.680  0.00  0.00    +0.000 A 
ATOM     12  C   UNL A   1     -25.917  -3.214  29.950  0.00  0.00    +0.000 A 
ENDBRANCH   4   7
BRANCH   2  13
ATOM     13  C   UNL A   1     -22.018   1.265  28.362  0.00  0.00    +0.000 C 
ATOM     14  C   UNL A   1     -22.384   1.526  27.037  0.00  0.00    +0.000 C 
BRANCH  14  15
ATOM     15  C   UNL A   1     -23.574   1.957  26.647  0.00  0.00    +0.000 A 
ATOM     16  C   UNL A   1     -24.248   1.250  25.969  0.00  0.00    +0.000 A 
ATOM     17  C   UNL A   1     -25.650   1.600  25.552  0.00  0.00    +0.000 A 
ATOM     18  C   UNL A   1     -25.998   2.936  25.819  0.00  0.00    +0.000 A 
ATOM     19  C   UNL A   1     -24.258   3.257  26.733  0.00  0.00    +0.000 A 
ATOM     20  C   UNL A   1     -25.350   3.663  26.428  0.00  0.00    +0.000 A 
ENDBRANCH  14  15
ENDBRANCH   2  13
TORSDOF 3
ENDMDL
ENDMDL
