REMARK  Name = No_3110-gen_results/8p0m/2024-11-26-14-13-15/
REMARK  3 active torsions:
REMARK  status: ('A' for Active; 'I' for Inactive)
REMARK    1  A    between atoms: C_2  and  C_7
REMARK    2  A    between atoms: C_4  and  C_15
REMARK    3  A    between atoms: C_8  and  C_9
REMARK                            x       y       z     vdW  Elec       q    Type
REMARK                         _______ _______ _______ _____ _____    ______ ____
ROOT
ATOM      1  C   UNL A   1     -28.016  -0.814  28.878  0.00  0.00    +0.000 A 
ATOM      2  C   UNL A   1     -27.064  -0.119  28.608  0.00  0.00    +0.000 A 
ATOM      3  C   UNL A   1     -26.929   1.171  29.008  0.00  0.00    +0.000 A 
ATOM      4  C   UNL A   1     -27.956   1.741  29.784  0.00  0.00    +0.000 A 
ATOM      5  C   UNL A   1     -29.057  -0.327  29.747  0.00  0.00    +0.000 A 
ATOM      6  C   UNL A   1     -28.983   0.972  30.152  0.00  0.00    +0.000 A 
ENDROOT
BRANCH   4   7
ATOM      7  C   UNL A   1     -27.794   3.171  30.234  0.00  0.00    +0.000 A 
ATOM      8  C   UNL A   1     -26.558   3.740  30.178  0.00  0.00    +0.000 A 
ATOM      9  C   UNL A   1     -26.385   5.080  30.631  0.00  0.00    +0.000 A 
ATOM     10  C   UNL A   1     -27.422   5.859  30.929  0.00  0.00    +0.000 A 
ATOM     11  C   UNL A   1     -28.694   5.274  30.948  0.00  0.00    +0.000 A 
ATOM     12  C   UNL A   1     -28.889   3.948  30.599  0.00  0.00    +0.000 A 
ENDBRANCH   4   7
BRANCH   2  13
ATOM     13  C   UNL A   1     -25.881  -0.626  27.794  0.00  0.00    +0.000 C 
ATOM     14  C   UNL A   1     -25.422   0.130  26.710  0.00  0.00    +0.000 C 
BRANCH  14  15
ATOM     15  C   UNL A   1     -25.401   1.454  26.660  0.00  0.00    +0.000 A 
ATOM     16  C   UNL A   1     -24.395   2.023  26.937  0.00  0.00    +0.000 A 
ATOM     17  C   UNL A   1     -24.233   3.514  26.820  0.00  0.00    +0.000 A 
ATOM     18  C   UNL A   1     -25.443   4.195  26.600  0.00  0.00    +0.000 A 
ATOM     19  C   UNL A   1     -26.442   2.476  26.471  0.00  0.00    +0.000 A 
ATOM     20  C   UNL A   1     -26.445   3.677  26.378  0.00  0.00    +0.000 A 
ENDBRANCH  14  15
ENDBRANCH   2  13
TORSDOF 3
