MODEL 3111
MODEL 1
REMARK VINA RESULT:    -7.802      0.000      0.000
REMARK INTER + INTRA:         -10.016
REMARK INTER:                  -9.171
REMARK INTRA:                  -0.846
REMARK UNBOUND:                -0.846
REMARK  Name = No_3111-gen_results/8p0m/2024-11-26-14-13-15/
REMARK  3 active torsions:
REMARK  status: ('A' for Active; 'I' for Inactive)
REMARK    1  A    between atoms: C_3  and  C_12
REMARK    2  A    between atoms: C_14  and  C_18
REMARK    3  A    between atoms: C_18  and  C_20
REMARK                            x       y       z     vdW  Elec       q    Type
REMARK                         _______ _______ _______ _____ _____    ______ ____
ROOT
ATOM      1  C   UNL A   1     -23.834   0.393  28.277  0.00  0.00    -0.012 A 
ATOM      2  C   UNL A   1     -22.607   0.790  27.827  0.00  0.00    -0.004 A 
ATOM      3  C   UNL A   1     -24.038  -0.662  29.087  0.00  0.00    -0.006 A 
ATOM      4  C   UNL A   1     -21.438   0.259  28.332  0.00  0.00    -0.000 A 
ATOM      5  C   UNL A   1     -21.473  -0.179  29.495  0.00  0.00    -0.000 A 
ATOM      6  C   UNL A   1     -22.771  -0.936  29.868  0.00  0.00    -0.003 A 
ENDROOT
BRANCH   1   9
ATOM      7  O   UNL A   1     -24.668   2.759  29.529  0.00  0.00    -0.273 OA
ATOM      8  C   UNL A   1     -25.203   2.175  28.579  0.00  0.00    +0.249 C 
ATOM      9  C   UNL A   1     -25.079   1.340  27.973  0.00  0.00    +0.122 C 
ATOM     10  N   UNL A   1     -26.460   2.965  28.161  0.00  0.00    -0.200 NA
ATOM     11  C   UNL A   1     -25.688   0.822  26.700  0.00  0.00    -0.012 A 
ATOM     12  C   UNL A   1     -25.398  -0.268  25.869  0.00  0.00    -0.004 A 
ATOM     13  C   UNL A   1     -26.110  -0.531  24.684  0.00  0.00    -0.000 A 
ATOM     14  C   UNL A   1     -26.935   0.514  24.257  0.00  0.00    -0.000 A 
ATOM     15  C   UNL A   1     -27.283   1.603  25.016  0.00  0.00    -0.003 A 
ATOM     16  C   UNL A   1     -26.628   1.807  26.145  0.00  0.00    -0.004 A 
ATOM     17  C   UNL A   1     -27.027   2.897  27.009  0.00  0.00    +0.141 C 
ENDBRANCH   1   9
BRANCH   3  18
ATOM     18  C   UNL A   1     -25.255  -1.046  29.727  0.00  0.00    +0.124 C 
ATOM     19 CL   UNL A   1     -26.280  -0.797  30.161  0.00  0.00    -0.105 Cl
BRANCH  18  20
ATOM     20  C   UNL A   1     -25.022  -2.676  29.517  0.00  0.00    -0.000 A 
ATOM     21  C   UNL A   1     -26.041  -3.424  29.890  0.00  0.00    +0.018 A 
ATOM     22  C   UNL A   1     -25.988  -4.813  29.495  0.00  0.00    +0.099 A 
ATOM     23  N   UNL A   1     -24.927  -5.290  28.803  0.00  0.00    -0.242 NA
ATOM     24  C   UNL A   1     -24.002  -3.329  28.753  0.00  0.00    +0.018 A 
ATOM     25  C   UNL A   1     -23.973  -4.515  28.404  0.00  0.00    +0.099 A 
ENDBRANCH  18  20
ENDBRANCH   3  18
TORSDOF 3
ENDMDL
ENDMDL
