REMARK  Name = No_3111-gen_results/8p0m/2024-11-26-14-13-15/
REMARK  3 active torsions:
REMARK  status: ('A' for Active; 'I' for Inactive)
REMARK    1  A    between atoms: C_3  and  C_12
REMARK    2  A    between atoms: C_14  and  C_18
REMARK    3  A    between atoms: C_18  and  C_20
REMARK                            x       y       z     vdW  Elec       q    Type
REMARK                         _______ _______ _______ _____ _____    ______ ____
ROOT
ATOM      1  C   UNL A   1     -26.765   0.845  27.363  0.00  0.00    -0.012 A 
ATOM      2  C   UNL A   1     -26.409   0.388  26.126  0.00  0.00    -0.004 A 
ATOM      3  C   UNL A   1     -27.532   1.929  27.578  0.00  0.00    -0.006 A 
ATOM      4  C   UNL A   1     -26.979   0.888  24.973  0.00  0.00    -0.000 A 
ATOM      5  C   UNL A   1     -28.125   1.359  25.067  0.00  0.00    -0.000 A 
ATOM      6  C   UNL A   1     -28.390   2.176  26.356  0.00  0.00    -0.003 A 
ENDROOT
BRANCH   1   9
ATOM      7  O   UNL A   1     -28.123  -1.335  28.487  0.00  0.00    -0.273 OA
ATOM      8  C   UNL A   1     -27.064  -0.824  28.869  0.00  0.00    +0.249 C 
ATOM      9  C   UNL A   1     -26.402  -0.062  28.622  0.00  0.00    +0.122 C 
ATOM     10  N   UNL A   1     -26.572  -1.585  30.117  0.00  0.00    -0.200 NA
ATOM     11  C   UNL A   1     -25.021   0.356  29.044  0.00  0.00    -0.012 A 
ATOM     12  C   UNL A   1     -24.132   1.339  28.590  0.00  0.00    -0.004 A 
ATOM     13  C   UNL A   1     -22.850   1.518  29.141  0.00  0.00    -0.000 A 
ATOM     14  C   UNL A   1     -22.425   0.479  29.975  0.00  0.00    -0.000 A 
ATOM     15  C   UNL A   1     -23.235  -0.507  30.479  0.00  0.00    -0.003 A 
ATOM     16  C   UNL A   1     -24.450  -0.630  29.974  0.00  0.00    -0.004 A 
ATOM     17  C   UNL A   1     -25.358  -1.604  30.540  0.00  0.00    +0.141 C 
ENDBRANCH   1   9
BRANCH   3  18
ATOM     18  C   UNL A   1     -28.078   2.378  28.818  0.00  0.00    +0.124 C 
ATOM     19 CL   UNL A   1     -28.640   2.187  29.792  0.00  0.00    -0.105 Cl
BRANCH  18  20
ATOM     20  C   UNL A   1     -27.296   3.842  28.801  0.00  0.00    -0.000 A 
ATOM     21  C   UNL A   1     -26.698   4.153  29.933  0.00  0.00    +0.018 A 
ATOM     22  C   UNL A   1     -25.801   5.285  29.888  0.00  0.00    +0.099 A 
ATOM     23  N   UNL A   1     -25.627   5.977  28.738  0.00  0.00    -0.242 NA
ATOM     24  C   UNL A   1     -26.968   4.652  27.667  0.00  0.00    +0.018 A 
ATOM     25  C   UNL A   1     -26.185   5.608  27.633  0.00  0.00    +0.099 A 
ENDBRANCH  18  20
ENDBRANCH   3  18
TORSDOF 3
