MODEL 3112
MODEL 1
REMARK VINA RESULT:    -4.276      0.000      0.000
REMARK INTER + INTRA:          -4.276
REMARK INTER:                  -4.276
REMARK INTRA:                   0.000
REMARK UNBOUND:                 0.000
REMARK  Name = No_3112-gen_results/8p0m/2024-11-26-14-13-15/
REMARK  0 active torsions:
REMARK  status: ('A' for Active; 'I' for Inactive)
REMARK                            x       y       z     vdW  Elec       q    Type
REMARK                         _______ _______ _______ _____ _____    ______ ____
ROOT
ATOM      1  C   UNL A   1     -26.072  -4.853  29.652  0.00  0.00    +0.000 A 
ATOM      2  C   UNL A   1     -26.209  -3.653  29.714  0.00  0.00    +0.000 A 
ATOM      3  C   UNL A   1     -25.240  -2.752  29.318  0.00  0.00    +0.000 A 
ATOM      4  C   UNL A   1     -24.032  -3.269  28.772  0.00  0.00    +0.000 A 
ATOM      5  C   UNL A   1     -23.995  -4.606  28.567  0.00  0.00    +0.000 A 
ATOM      6  C   UNL A   1     -24.988  -5.390  28.941  0.00  0.00    +0.000 A 
ENDROOT
TORSDOF 0
ENDMDL
ENDMDL
