REMARK  Name = No_3113-gen_results/8p0m/2024-11-26-14-13-15/
REMARK  3 active torsions:
REMARK  status: ('A' for Active; 'I' for Inactive)
REMARK    1  A    between atoms: C_14  and  C_15
REMARK    2  A    between atoms: C_15  and  C_17
REMARK    3  A    between atoms: C_17  and  C_18
REMARK                            x       y       z     vdW  Elec       q    Type
REMARK                         _______ _______ _______ _____ _____    ______ ____
ROOT
ATOM      1  C   UNL A   1     -28.016  -0.814  28.878  0.00  0.00    -0.000 A 
ATOM      2  C   UNL A   1     -27.064  -0.119  28.608  0.00  0.00    -0.004 A 
ATOM      3  C   UNL A   1     -25.765  -0.390  29.036  0.00  0.00    -0.000 A 
ATOM      4  C   UNL A   1     -25.530  -1.530  29.901  0.00  0.00    -0.000 A 
ATOM      5  C   UNL A   1     -26.658  -2.292  30.203  0.00  0.00    -0.000 A 
ATOM      6  C   UNL A   1     -27.855  -1.956  29.763  0.00  0.00    -0.000 A 
ATOM      7  C   UNL A   1     -24.544   0.413  28.738  0.00  0.00    -0.000 A 
ATOM      8  C   UNL A   1     -23.323   0.048  29.050  0.00  0.00    -0.000 A 
ATOM      9  C   UNL A   1     -22.200   0.841  28.719  0.00  0.00    -0.000 A 
ATOM     10  C   UNL A   1     -22.363   1.839  27.717  0.00  0.00    -0.000 A 
ATOM     11  C   UNL A   1     -24.604   1.516  27.812  0.00  0.00    -0.004 A 
ATOM     12  C   UNL A   1     -25.933   1.865  27.291  0.00  0.00    -0.026 A 
ATOM     13  C   UNL A   1     -23.521   2.225  27.331  0.00  0.00    -0.000 A 
ATOM     14  C   UNL A   1     -27.157   1.071  27.666  0.00  0.00    -0.025 A 
ATOM     15  C   UNL A   1     -26.103   3.045  26.504  0.00  0.00    +0.031 C 
ENDROOT
BRANCH  14  16
ATOM     16  C   UNL A   1     -28.405   1.411  27.098  0.00  0.00    +0.040 C 
BRANCH  16  17
ATOM     17  C   UNL A   1     -29.043   2.402  27.816  0.00  0.00    +0.083 C 
BRANCH  17  18
ATOM     18  C   UNL A   1     -28.971   2.882  28.776  0.00  0.00    -0.056 C 
ATOM     19  C   UNL A   1     -29.274   3.645  29.622  0.00  0.00    +0.106 C 
ATOM     20  F   UNL A   1     -30.306   4.347  29.338  0.00  0.00    -0.143 F 
ENDBRANCH  17  18
ENDBRANCH  16  17
ENDBRANCH  14  16
TORSDOF 3
