MODEL 3113
MODEL 1
REMARK VINA RESULT:    -6.717      0.000      0.000
REMARK INTER + INTRA:          -8.701
REMARK INTER:                  -7.895
REMARK INTRA:                  -0.806
REMARK UNBOUND:                -0.806
REMARK  Name = No_3113-gen_results/8p0m/2024-11-26-14-13-15/
REMARK  3 active torsions:
REMARK  status: ('A' for Active; 'I' for Inactive)
REMARK    1  A    between atoms: C_14  and  C_15
REMARK    2  A    between atoms: C_15  and  C_17
REMARK    3  A    between atoms: C_17  and  C_18
REMARK                            x       y       z     vdW  Elec       q    Type
REMARK                         _______ _______ _______ _____ _____    ______ ____
ROOT
ATOM      1  C   UNL A   1     -23.953  -3.433  28.536  0.00  0.00    -0.000 A 
ATOM      2  C   UNL A   1     -24.886  -2.799  28.973  0.00  0.00    -0.004 A 
ATOM      3  C   UNL A   1     -26.003  -3.382  29.570  0.00  0.00    -0.000 A 
ATOM      4  C   UNL A   1     -26.099  -4.828  29.627  0.00  0.00    -0.000 A 
ATOM      5  C   UNL A   1     -25.012  -5.519  29.093  0.00  0.00    -0.000 A 
ATOM      6  C   UNL A   1     -23.998  -4.886  28.536  0.00  0.00    -0.000 A 
ATOM      7  C   UNL A   1     -27.183  -2.668  30.138  0.00  0.00    -0.000 A 
ATOM      8  C   UNL A   1     -28.148  -3.251  30.809  0.00  0.00    -0.000 A 
ATOM      9  C   UNL A   1     -29.232  -2.517  31.345  0.00  0.00    -0.000 A 
ATOM     10  C   UNL A   1     -29.076  -1.109  31.487  0.00  0.00    -0.000 A 
ATOM     11  C   UNL A   1     -27.186  -1.231  30.242  0.00  0.00    -0.004 A 
ATOM     12  C   UNL A   1     -26.036  -0.527  29.656  0.00  0.00    -0.026 A 
ATOM     13  C   UNL A   1     -28.137  -0.471  30.894  0.00  0.00    -0.000 A 
ATOM     14  C   UNL A   1     -24.891  -1.279  29.031  0.00  0.00    -0.025 A 
ATOM     15  C   UNL A   1     -26.043   0.898  29.568  0.00  0.00    +0.031 C 
ENDROOT
BRANCH  14  16
ATOM     16  C   UNL A   1     -23.782  -0.562  28.528  0.00  0.00    +0.040 C 
BRANCH  16  17
ATOM     17  C   UNL A   1     -22.746  -0.513  29.439  0.00  0.00    +0.083 C 
BRANCH  17  18
ATOM     18  C   UNL A   1     -22.604  -0.403  30.499  0.00  0.00    -0.056 C 
ATOM     19  C   UNL A   1     -22.733  -0.685  31.637  0.00  0.00    +0.106 C 
ATOM     20  F   UNL A   1     -23.401  -1.760  31.829  0.00  0.00    -0.143 F 
ENDBRANCH  17  18
ENDBRANCH  16  17
ENDBRANCH  14  16
TORSDOF 3
ENDMDL
ENDMDL
