MODEL 3114
MODEL 1
REMARK VINA RESULT:    -6.884      0.000      0.000
REMARK INTER + INTRA:          -8.135
REMARK INTER:                  -7.689
REMARK INTRA:                  -0.447
REMARK UNBOUND:                -0.447
REMARK  Name = No_3114-gen_results/8p0m/2024-11-26-14-13-15/
REMARK  2 active torsions:
REMARK  status: ('A' for Active; 'I' for Inactive)
REMARK    1  A    between atoms: C_3  and  C_7
REMARK    2  A    between atoms: C_7  and  C_8
REMARK                            x       y       z     vdW  Elec       q    Type
REMARK                         _______ _______ _______ _____ _____    ______ ____
ROOT
ATOM      1  C   UNL A   1     -24.475  -1.494  28.912  0.00  0.00    +0.053 C 
ENDROOT
BRANCH   1   4
ATOM      2  C   UNL A   1     -22.051  -0.557  29.028  0.00  0.00    -0.004 A 
ATOM      3  C   UNL A   1     -21.431   0.217  28.670  0.00  0.00    -0.000 A 
ATOM      4  C   UNL A   1     -23.425  -0.483  28.530  0.00  0.00    -0.018 A 
ATOM      5  C   UNL A   1     -23.836   0.499  27.664  0.00  0.00    -0.004 A 
ATOM      6  C   UNL A   1     -21.600   1.156  27.847  0.00  0.00    -0.000 A 
ATOM      7  C   UNL A   1     -22.839   1.384  27.275  0.00  0.00    -0.000 A 
ENDBRANCH   1   4
BRANCH   1   8
ATOM      8  C   UNL A   1     -24.738  -2.534  28.870  0.00  0.00    -0.018 A 
ATOM      9  C   UNL A   1     -26.034  -2.873  29.565  0.00  0.00    -0.004 A 
ATOM     10  C   UNL A   1     -26.267  -4.280  29.733  0.00  0.00    -0.000 A 
ATOM     11  C   UNL A   1     -25.344  -5.165  29.269  0.00  0.00    -0.000 A 
ATOM     12  C   UNL A   1     -23.978  -3.648  28.563  0.00  0.00    -0.004 A 
ATOM     13  C   UNL A   1     -24.265  -4.922  28.684  0.00  0.00    -0.000 A 
ENDBRANCH   1   8
TORSDOF 2
ENDMDL
ENDMDL
