REMARK  Name = No_3114-gen_results/8p0m/2024-11-26-14-13-15/
REMARK  2 active torsions:
REMARK  status: ('A' for Active; 'I' for Inactive)
REMARK    1  A    between atoms: C_3  and  C_7
REMARK    2  A    between atoms: C_7  and  C_8
REMARK                            x       y       z     vdW  Elec       q    Type
REMARK                         _______ _______ _______ _____ _____    ______ ____
ROOT
ATOM      1  C   UNL A   1     -26.327   0.437  27.345  0.00  0.00    +0.053 C 
ENDROOT
BRANCH   1   4
ATOM      2  C   UNL A   1     -28.016  -0.814  28.878  0.00  0.00    -0.004 A 
ATOM      3  C   UNL A   1     -28.469  -0.785  29.829  0.00  0.00    -0.000 A 
ATOM      4  C   UNL A   1     -27.087   0.290  28.638  0.00  0.00    -0.018 A 
ATOM      5  C   UNL A   1     -26.832   1.249  29.587  0.00  0.00    -0.004 A 
ATOM      6  C   UNL A   1     -28.329  -0.040  30.836  0.00  0.00    -0.000 A 
ATOM      7  C   UNL A   1     -27.494   1.062  30.793  0.00  0.00    -0.000 A 
ENDBRANCH   1   4
BRANCH   1   8
ATOM      8  C   UNL A   1     -25.430   0.826  26.903  0.00  0.00    -0.018 A 
ATOM      9  C   UNL A   1     -24.469   1.440  27.892  0.00  0.00    -0.004 A 
ATOM     10  C   UNL A   1     -23.395   2.182  27.294  0.00  0.00    -0.000 A 
ATOM     11  C   UNL A   1     -23.324   2.269  25.938  0.00  0.00    -0.000 A 
ATOM     12  C   UNL A   1     -25.128   1.134  25.589  0.00  0.00    -0.004 A 
ATOM     13  C   UNL A   1     -24.095   1.769  25.089  0.00  0.00    -0.000 A 
ENDBRANCH   1   8
TORSDOF 2
