MODEL 3115
MODEL 1
REMARK VINA RESULT:    -6.715      0.000      0.000
REMARK INTER + INTRA:          -8.260
REMARK INTER:                  -7.893
REMARK INTRA:                  -0.367
REMARK UNBOUND:                -0.367
REMARK  Name = No_3115-gen_results/8p0m/2024-11-26-14-13-15/
REMARK  3 active torsions:
REMARK  status: ('A' for Active; 'I' for Inactive)
REMARK    1  A    between atoms: C_2  and  N_7
REMARK    2  A    between atoms: N_7  and  C_8
REMARK    3  A    between atoms: C_8  and  C_9
REMARK                            x       y       z     vdW  Elec       q    Type
REMARK                         _______ _______ _______ _____ _____    ______ ____
ROOT
ATOM      1  N   UNL A   1     -23.746  -0.645  29.099  0.00  0.00    -0.233 NA
ENDROOT
BRANCH   1   3
ATOM      2  C   UNL A   1     -22.267   0.878  28.240  0.00  0.00    +0.016 A 
ATOM      3  C   UNL A   1     -23.172   0.354  28.111  0.00  0.00    +0.066 A 
ATOM      4  C   UNL A   1     -21.908   1.842  27.188  0.00  0.00    +0.001 A 
ATOM      5  C   UNL A   1     -22.821   2.138  26.134  0.00  0.00    +0.000 A 
ATOM      6  C   UNL A   1     -24.305   0.510  27.159  0.00  0.00    +0.016 A 
ATOM      7  C   UNL A   1     -24.006   1.390  26.162  0.00  0.00    +0.001 A 
ENDBRANCH   1   3
BRANCH   1   8
ATOM      8  C   UNL A   1     -23.645  -1.902  28.903  0.00  0.00    +0.139 C 
BRANCH   8   9
ATOM      9  C   UNL A   1     -24.259  -2.750  29.004  0.00  0.00    -0.001 A 
ATOM     10  C   UNL A   1     -24.045  -4.206  28.759  0.00  0.00    -0.003 A 
ATOM     11  C   UNL A   1     -24.853  -5.297  29.062  0.00  0.00    -0.000 A 
ATOM     12  C   UNL A   1     -26.109  -4.949  29.538  0.00  0.00    -0.000 A 
ATOM     13  C   UNL A   1     -26.519  -3.705  29.898  0.00  0.00    -0.000 A 
ATOM     14  C   UNL A   1     -25.745  -2.718  29.665  0.00  0.00    -0.003 A 
ENDBRANCH   8   9
ENDBRANCH   1   8
TORSDOF 3
ENDMDL
ENDMDL
