REMARK  Name = No_3115-gen_results/8p0m/2024-11-26-14-13-15/
REMARK  3 active torsions:
REMARK  status: ('A' for Active; 'I' for Inactive)
REMARK    1  A    between atoms: C_2  and  N_7
REMARK    2  A    between atoms: N_7  and  C_8
REMARK    3  A    between atoms: C_8  and  C_9
REMARK                            x       y       z     vdW  Elec       q    Type
REMARK                         _______ _______ _______ _____ _____    ______ ____
ROOT
ATOM      1  N   UNL A   1     -29.966  -0.767  30.078  0.00  0.00    -0.233 NA
ENDROOT
BRANCH   1   3
ATOM      2  C   UNL A   1     -28.016  -0.814  28.878  0.00  0.00    +0.016 A 
ATOM      3  C   UNL A   1     -28.469  -0.785  29.829  0.00  0.00    +0.066 A 
ATOM      4  C   UNL A   1     -26.546  -0.876  28.850  0.00  0.00    +0.001 A 
ATOM      5  C   UNL A   1     -25.804  -1.032  30.057  0.00  0.00    +0.000 A 
ATOM      6  C   UNL A   1     -27.944  -0.987  31.207  0.00  0.00    +0.016 A 
ATOM      7  C   UNL A   1     -26.582  -1.039  31.223  0.00  0.00    +0.001 A 
ENDBRANCH   1   3
BRANCH   1   8
ATOM      8  C   UNL A   1     -30.626  -1.850  30.220  0.00  0.00    +0.139 C 
BRANCH   8   9
ATOM      9  C   UNL A   1     -30.420  -2.851  30.469  0.00  0.00    -0.001 A 
ATOM     10  C   UNL A   1     -31.263  -4.079  30.557  0.00  0.00    -0.003 A 
ATOM     11  C   UNL A   1     -30.898  -5.409  30.742  0.00  0.00    -0.000 A 
ATOM     12  C   UNL A   1     -29.551  -5.586  31.026  0.00  0.00    -0.000 A 
ATOM     13  C   UNL A   1     -28.579  -4.640  30.947  0.00  0.00    -0.000 A 
ATOM     14  C   UNL A   1     -28.922  -3.432  30.722  0.00  0.00    -0.003 A 
ENDBRANCH   8   9
ENDBRANCH   1   8
TORSDOF 3
