MODEL 3116
MODEL 1
REMARK VINA RESULT:    -9.127      0.000      0.000
REMARK INTER + INTRA:         -15.074
REMARK INTER:                 -12.329
REMARK INTRA:                  -2.745
REMARK UNBOUND:                -2.745
REMARK  Name = No_3116-gen_results/8p0m/2024-11-26-14-13-15/
REMARK  6 active torsions:
REMARK  status: ('A' for Active; 'I' for Inactive)
REMARK    1  A    between atoms: C_1  and  C_33
REMARK    2  A    between atoms: C_2  and  C_8
REMARK    3  A    between atoms: C_9  and  C_10
REMARK    4  A    between atoms: C_14  and  C_20
REMARK    5  A    between atoms: C_22  and  C_23
REMARK    6  A    between atoms: C_23  and  C_27
REMARK                            x       y       z     vdW  Elec       q    Type
REMARK                         _______ _______ _______ _____ _____    ______ ____
ROOT
ATOM      1  C   UNL A   1     -23.766  -1.516  28.888  0.00  0.00    +0.000 A 
ATOM      2  C   UNL A   1     -22.392  -1.471  29.302  0.00  0.00    +0.000 A 
ATOM      3  C   UNL A   1     -21.591  -0.340  29.060  0.00  0.00    -0.000 A 
ATOM      4  C   UNL A   1     -22.147   0.699  28.302  0.00  0.00    -0.000 A 
ATOM      5  C   UNL A   1     -23.450   0.601  27.888  0.00  0.00    -0.000 A 
ATOM      6  C   UNL A   1     -24.228  -0.472  28.182  0.00  0.00    -0.000 A 
ENDROOT
BRANCH   1   8
ATOM      7  C   UNL A   1     -25.485  -2.622  29.945  0.00  0.00    +0.000 A 
ATOM      8  C   UNL A   1     -24.590  -2.706  29.322  0.00  0.00    +0.000 A 
ATOM      9  C   UNL A   1     -26.355  -3.743  30.095  0.00  0.00    +0.000 A 
ATOM     10  C   UNL A   1     -25.983  -4.952  29.641  0.00  0.00    +0.000 A 
ATOM     11  C   UNL A   1     -24.941  -5.061  28.768  0.00  0.00    +0.000 A 
ATOM     12  C   UNL A   1     -24.138  -3.919  28.565  0.00  0.00    +0.000 A 
BRANCH   7  14
ATOM     13  C   UNL A   1     -26.811  -0.529  30.429  0.00  0.00    +0.081 A 
ATOM     14  C   UNL A   1     -25.965  -1.337  30.735  0.00  0.00    +0.006 A 
ATOM     15  C   UNL A   1     -25.053  -1.185  31.765  0.00  0.00    +0.001 A 
ATOM     16  C   UNL A   1     -25.143   0.008  32.541  0.00  0.00    +0.011 A 
ATOM     17  C   UNL A   1     -26.190   0.815  32.269  0.00  0.00    +0.058 A 
ATOM     18  C   UNL A   1     -27.067   0.528  31.304  0.00  0.00    +0.018 A 
ATOM     19 CL   UNL A   1     -26.324   2.197  33.248  0.00  0.00    -0.082 Cl
BRANCH  13  20
ATOM     20  C   UNL A   1     -27.845  -0.809  29.342  0.00  0.00    +0.388 C 
ATOM     21  O   UNL A   1     -27.779  -0.297  28.198  0.00  0.00    -0.241 OA
ATOM     22  O   UNL A   1     -28.985  -1.324  29.714  0.00  0.00    -0.241 OA
ENDBRANCH  13  20
ENDBRANCH   7  14
ENDBRANCH   1   8
BRANCH   5  23
ATOM     23  C   UNL A   1     -23.989   1.741  27.083  0.00  0.00    -0.000 A 
ATOM     24  C   UNL A   1     -25.270   2.008  26.985  0.00  0.00    -0.004 A 
ATOM     25  C   UNL A   1     -25.804   3.013  26.208  0.00  0.00    -0.018 A 
ATOM     26  C   UNL A   1     -23.036   2.514  26.279  0.00  0.00    -0.000 A 
ATOM     27  C   UNL A   1     -23.570   3.577  25.506  0.00  0.00    -0.000 A 
ATOM     28  C   UNL A   1     -24.890   3.757  25.481  0.00  0.00    -0.004 A 
BRANCH  25  29
ATOM     29  C   UNL A   1     -27.149   3.239  26.132  0.00  0.00    +0.053 C 
BRANCH  29  30
ATOM     30  C   UNL A   1     -27.908   3.186  25.268  0.00  0.00    -0.018 A 
ATOM     31  C   UNL A   1     -29.072   3.860  25.137  0.00  0.00    -0.004 A 
ATOM     32  C   UNL A   1     -30.124   3.393  24.381  0.00  0.00    -0.000 A 
ATOM     33  C   UNL A   1     -29.889   2.317  23.410  0.00  0.00    -0.000 A 
ATOM     34  C   UNL A   1     -28.715   1.614  23.479  0.00  0.00    -0.000 A 
ATOM     35  C   UNL A   1     -27.825   1.913  24.379  0.00  0.00    -0.004 A 
ENDBRANCH  29  30
ENDBRANCH  25  29
ENDBRANCH   5  23
TORSDOF 6
ENDMDL
ENDMDL
