REMARK  Name = No_3116-gen_results/8p0m/2024-11-26-14-13-15/
REMARK  6 active torsions:
REMARK  status: ('A' for Active; 'I' for Inactive)
REMARK    1  A    between atoms: C_1  and  C_33
REMARK    2  A    between atoms: C_2  and  C_8
REMARK    3  A    between atoms: C_9  and  C_10
REMARK    4  A    between atoms: C_14  and  C_20
REMARK    5  A    between atoms: C_22  and  C_23
REMARK    6  A    between atoms: C_23  and  C_27
REMARK                            x       y       z     vdW  Elec       q    Type
REMARK                         _______ _______ _______ _____ _____    ______ ____
ROOT
ATOM      1  C   UNL A   1     -26.035   1.637  30.641  0.00  0.00    +0.000 A 
ATOM      2  C   UNL A   1     -25.394   2.441  31.643  0.00  0.00    +0.000 A 
ATOM      3  C   UNL A   1     -26.089   3.460  32.320  0.00  0.00    -0.000 A 
ATOM      4  C   UNL A   1     -27.397   3.740  31.904  0.00  0.00    -0.000 A 
ATOM      5  C   UNL A   1     -27.961   2.978  30.913  0.00  0.00    -0.000 A 
ATOM      6  C   UNL A   1     -27.296   1.958  30.313  0.00  0.00    -0.000 A 
ENDROOT
BRANCH   1   8
ATOM      7  C   UNL A   1     -25.611  -0.135  29.236  0.00  0.00    +0.000 A 
ATOM      8  C   UNL A   1     -25.259   0.470  30.076  0.00  0.00    +0.000 A 
ATOM      9  C   UNL A   1     -24.720  -1.042  28.590  0.00  0.00    +0.000 A 
ATOM     10  C   UNL A   1     -23.516  -1.303  29.127  0.00  0.00    +0.000 A 
ATOM     11  C   UNL A   1     -23.010  -0.486  30.095  0.00  0.00    +0.000 A 
ATOM     12  C   UNL A   1     -23.881   0.464  30.667  0.00  0.00    +0.000 A 
BRANCH   7  14
ATOM     13  C   UNL A   1     -28.016  -0.814  28.878  0.00  0.00    +0.081 A 
ATOM     14  C   UNL A   1     -27.064  -0.119  28.608  0.00  0.00    +0.006 A 
ATOM     15  C   UNL A   1     -26.972   0.714  27.506  0.00  0.00    +0.001 A 
ATOM     16  C   UNL A   1     -28.105   0.774  26.642  0.00  0.00    +0.011 A 
ATOM     17  C   UNL A   1     -29.201   0.104  27.053  0.00  0.00    +0.058 A 
ATOM     18  C   UNL A   1     -29.210  -0.603  28.185  0.00  0.00    +0.018 A 
ATOM     19 CL   UNL A   1     -30.565   0.243  26.049  0.00  0.00    -0.082 Cl
BRANCH  13  20
ATOM     20  C   UNL A   1     -28.084  -1.634  30.163  0.00  0.00    +0.388 C 
ATOM     21  O   UNL A   1     -28.207  -1.108  31.295  0.00  0.00    -0.241 OA
ATOM     22  O   UNL A   1     -27.679  -2.874  30.108  0.00  0.00    -0.241 OA
ENDBRANCH  13  20
ENDBRANCH   7  14
ENDBRANCH   1   8
BRANCH   5  23
ATOM     23  C   UNL A   1     -29.361   3.323  30.512  0.00  0.00    -0.000 A 
ATOM     24  C   UNL A   1     -30.007   2.700  29.555  0.00  0.00    -0.004 A 
ATOM     25  C   UNL A   1     -31.273   3.029  29.122  0.00  0.00    -0.018 A 
ATOM     26  C   UNL A   1     -29.981   4.490  31.149  0.00  0.00    -0.000 A 
ATOM     27  C   UNL A   1     -31.300   4.814  30.739  0.00  0.00    -0.000 A 
ATOM     28  C   UNL A   1     -31.860   4.111  29.755  0.00  0.00    -0.004 A 
BRANCH  25  29
ATOM     29  C   UNL A   1     -31.895   2.354  28.110  0.00  0.00    +0.053 C 
BRANCH  29  30
ATOM     30  C   UNL A   1     -32.608   2.682  27.267  0.00  0.00    -0.018 A 
ATOM     31  C   UNL A   1     -33.006   1.973  26.188  0.00  0.00    -0.004 A 
ATOM     32  C   UNL A   1     -33.419   2.567  25.016  0.00  0.00    -0.000 A 
ATOM     33  C   UNL A   1     -33.773   3.992  25.018  0.00  0.00    -0.000 A 
ATOM     34  C   UNL A   1     -33.416   4.756  26.098  0.00  0.00    -0.000 A 
ATOM     35  C   UNL A   1     -32.792   4.217  27.104  0.00  0.00    -0.004 A 
ENDBRANCH  29  30
ENDBRANCH  25  29
ENDBRANCH   5  23
TORSDOF 6
