MODEL 3117
MODEL 1
REMARK VINA RESULT:    -4.699      0.000      0.000
REMARK INTER + INTRA:          -5.039
REMARK INTER:                  -4.973
REMARK INTRA:                  -0.066
REMARK UNBOUND:                -0.066
REMARK  Name = No_3117-gen_results/8p0m/2024-11-26-14-13-15/
REMARK  1 active torsions:
REMARK  status: ('A' for Active; 'I' for Inactive)
REMARK    1  A    between atoms: C_2  and  C_7
REMARK                            x       y       z     vdW  Elec       q    Type
REMARK                         _______ _______ _______ _____ _____    ______ ____
ROOT
ATOM      1  C   UNL A   1     -25.476  -2.583  29.649  0.00  0.00    +0.008 A 
ATOM      2  C   UNL A   1     -24.385  -2.842  29.198  0.00  0.00    +0.043 A 
ATOM      3  C   UNL A   1     -24.048  -4.141  28.833  0.00  0.00    +0.008 A 
ATOM      4  C   UNL A   1     -24.974  -5.228  29.024  0.00  0.00    +0.001 A 
ATOM      5  C   UNL A   1     -26.204  -4.843  29.573  0.00  0.00    +0.000 A 
ATOM      6  C   UNL A   1     -26.467  -3.603  29.917  0.00  0.00    +0.001 A 
ENDROOT
BRANCH   2   7
ATOM      7  C   UNL A   1     -23.298  -1.854  28.958  0.00  0.00    -0.051 C 
ATOM      8  C   UNL A   1     -22.878  -0.960  29.676  0.00  0.00    -0.009 C 
ENDBRANCH   2   7
TORSDOF 1
ENDMDL
ENDMDL
