REMARK  Name = No_3118-gen_results/8p0m/2024-11-26-14-13-15/
REMARK  2 active torsions:
REMARK  status: ('A' for Active; 'I' for Inactive)
REMARK    1  A    between atoms: C_2  and  C_7
REMARK    2  A    between atoms: C_14  and  C_16
REMARK                            x       y       z     vdW  Elec       q    Type
REMARK                         _______ _______ _______ _____ _____    ______ ____
ROOT
ATOM      1  C   UNL A   1     -30.077  -0.886  30.024  0.00  0.00    +0.249 C 
ATOM      2  O   UNL A   1     -30.682  -0.316  29.253  0.00  0.00    -0.270 OA
ATOM      3  N   UNL A   1     -30.627  -1.734  30.965  0.00  0.00    -0.276 N 
ATOM      4  C   UNL A   1     -30.075  -2.550  31.868  0.00  0.00    +0.105 C 
ATOM      5  C   UNL A   1     -32.124  -1.740  30.923  0.00  0.00    +0.094 C 
ATOM      6  C   UNL A   1     -32.617  -2.844  31.079  0.00  0.00    +0.022 C 
ATOM      7  C   UNL A   1     -30.769  -3.822  32.196  0.00  0.00    +0.123 C 
ATOM      8  C   UNL A   1     -32.134  -3.786  32.106  0.00  0.00    +0.015 C 
ENDROOT
BRANCH   1  10
ATOM      9  C   UNL A   1     -28.016  -0.814  28.878  0.00  0.00    +0.034 A 
ATOM     10  C   UNL A   1     -28.469  -0.785  29.829  0.00  0.00    +0.056 A 
ATOM     11  C   UNL A   1     -26.504  -0.778  28.877  0.00  0.00    +0.140 A 
ATOM     12  C   UNL A   1     -25.810  -0.853  30.103  0.00  0.00    +0.030 A 
ATOM     13  C   UNL A   1     -27.991  -0.892  31.226  0.00  0.00    +0.005 A 
ATOM     14  C   UNL A   1     -26.604  -0.868  31.265  0.00  0.00    +0.003 A 
ATOM     15  F   UNL A   1     -25.767  -0.690  27.782  0.00  0.00    -0.204 F 
ENDBRANCH   1  10
BRANCH   7  16
ATOM     16  C   UNL A   1     -30.038  -4.884  32.879  0.00  0.00    +0.366 C 
ATOM     17  O   UNL A   1     -29.605  -4.794  33.888  0.00  0.00    -0.246 OA
ATOM     18  O   UNL A   1     -29.930  -5.986  32.075  0.00  0.00    -0.246 OA
ENDBRANCH   7  16
TORSDOF 2
