MODEL 3118
MODEL 1
REMARK VINA RESULT:    -7.389      0.000      0.000
REMARK INTER + INTRA:          -8.421
REMARK INTER:                  -8.253
REMARK INTRA:                  -0.168
REMARK UNBOUND:                -0.168
REMARK  Name = No_3118-gen_results/8p0m/2024-11-26-14-13-15/
REMARK  2 active torsions:
REMARK  status: ('A' for Active; 'I' for Inactive)
REMARK    1  A    between atoms: C_2  and  C_7
REMARK    2  A    between atoms: C_14  and  C_16
REMARK                            x       y       z     vdW  Elec       q    Type
REMARK                         _______ _______ _______ _____ _____    ______ ____
ROOT
ATOM      1  C   UNL A   1     -23.452  -1.220  29.356  0.00  0.00    +0.249 C 
ATOM      2  O   UNL A   1     -22.518  -1.210  30.000  0.00  0.00    -0.270 OA
ATOM      3  N   UNL A   1     -23.788  -0.218  28.467  0.00  0.00    -0.276 N 
ATOM      4  C   UNL A   1     -24.773  -0.107  27.571  0.00  0.00    +0.105 C 
ATOM      5  C   UNL A   1     -22.836   0.937  28.521  0.00  0.00    +0.094 C 
ATOM      6  C   UNL A   1     -22.571   1.409  27.429  0.00  0.00    +0.022 C 
ATOM      7  C   UNL A   1     -24.507   0.626  26.307  0.00  0.00    +0.123 C 
ATOM      8  C   UNL A   1     -23.601   1.648  26.401  0.00  0.00    +0.015 C 
ENDROOT
BRANCH   1  10
ATOM      9  C   UNL A   1     -23.969  -3.479  28.913  0.00  0.00    +0.034 A 
ATOM     10  C   UNL A   1     -24.293  -2.607  29.408  0.00  0.00    +0.056 A 
ATOM     11  C   UNL A   1     -24.904  -4.664  29.006  0.00  0.00    +0.140 A 
ATOM     12  C   UNL A   1     -26.173  -4.498  29.600  0.00  0.00    +0.030 A 
ATOM     13  C   UNL A   1     -25.551  -2.169  30.054  0.00  0.00    +0.005 A 
ATOM     14  C   UNL A   1     -26.439  -3.231  30.152  0.00  0.00    +0.003 A 
ATOM     15  F   UNL A   1     -24.615  -5.871  28.549  0.00  0.00    -0.204 F 
ENDBRANCH   1  10
BRANCH   7  16
ATOM     16  C   UNL A   1     -25.410   0.457  25.174  0.00  0.00    +0.366 C 
ATOM     17  O   UNL A   1     -25.320  -0.339  24.418  0.00  0.00    -0.246 OA
ATOM     18  O   UNL A   1     -26.353   1.449  25.159  0.00  0.00    -0.246 OA
ENDBRANCH   7  16
TORSDOF 2
ENDMDL
ENDMDL
