MODEL 3119
MODEL 1
REMARK VINA RESULT:    -6.072      0.000      0.000
REMARK INTER + INTRA:          -7.639
REMARK INTER:                  -7.137
REMARK INTRA:                  -0.503
REMARK UNBOUND:                -0.503
REMARK  Name = No_3119-gen_results/8p0m/2024-11-26-14-13-15/
REMARK  3 active torsions:
REMARK  status: ('A' for Active; 'I' for Inactive)
REMARK    1  A    between atoms: C_1  and  C_2
REMARK    2  A    between atoms: C_5  and  C_9
REMARK    3  A    between atoms: N_8  and  C_13
REMARK                            x       y       z     vdW  Elec       q    Type
REMARK                         _______ _______ _______ _____ _____    ______ ____
ROOT
ATOM      1  C   UNL A   1      -8.545   0.177  36.005  0.00  0.00    +0.269 C 
ATOM      2  N   UNL A   1      -7.450   0.110  35.038  0.00  0.00    -0.175 NA
ATOM      3  O   UNL A   1      -8.055   0.439  37.167  0.00  0.00    -0.268 OA
ENDROOT
BRANCH   1   4
ATOM      4  C   UNL A   1      -9.603   0.647  35.656  0.00  0.00    +0.055 A 
ATOM      5  C   UNL A   1     -10.613   0.959  36.508  0.00  0.00    +0.005 A 
ATOM      6  C   UNL A   1     -11.912   1.536  36.096  0.00  0.00    +0.005 A 
ATOM      7  C   UNL A   1     -12.092   1.798  34.698  0.00  0.00    +0.059 A 
ATOM      8  C   UNL A   1     -10.992   1.527  33.854  0.00  0.00    +0.005 A 
ATOM      9  C   UNL A   1      -9.815   0.991  34.308  0.00  0.00    +0.005 A 
BRANCH   7  10
ATOM     10  C   UNL A   1     -13.299   2.366  34.177  0.00  0.00    +0.297 C 
ATOM     11  N   UNL A   1     -13.692   2.269  32.967  0.00  0.00    -0.102 NA
ATOM     12  O   UNL A   1     -14.113   2.868  35.052  0.00  0.00    -0.264 OA
ENDBRANCH   7  10
ENDBRANCH   1   4
BRANCH   2  13
ATOM     13  C   UNL A   1      -6.497  -0.463  35.007  0.00  0.00    +0.074 A 
ATOM     14  C   UNL A   1      -5.112   0.101  35.030  0.00  0.00    +0.017 A 
ATOM     15  C   UNL A   1      -3.909  -0.698  34.864  0.00  0.00    +0.001 A 
ATOM     16  C   UNL A   1      -4.165  -1.814  34.404  0.00  0.00    +0.000 A 
ATOM     17  C   UNL A   1      -5.350  -2.530  34.231  0.00  0.00    +0.001 A 
ATOM     18  C   UNL A   1      -6.532  -1.817  34.516  0.00  0.00    +0.017 A 
ENDBRANCH   2  13
TORSDOF 3
ENDMDL
ENDMDL
