REMARK  Name = No_3119-gen_results/8p0m/2024-11-26-14-13-15/
REMARK  3 active torsions:
REMARK  status: ('A' for Active; 'I' for Inactive)
REMARK    1  A    between atoms: C_1  and  C_2
REMARK    2  A    between atoms: C_5  and  C_9
REMARK    3  A    between atoms: N_8  and  C_13
REMARK                            x       y       z     vdW  Elec       q    Type
REMARK                         _______ _______ _______ _____ _____    ______ ____
ROOT
ATOM      1  C   UNL A   1     -28.016  -0.814  28.878  0.00  0.00    +0.269 C 
ATOM      2  N   UNL A   1     -27.982  -1.611  30.103  0.00  0.00    -0.175 NA
ATOM      3  O   UNL A   1     -29.219  -0.392  28.693  0.00  0.00    -0.268 OA
ENDROOT
BRANCH   1   4
ATOM      4  C   UNL A   1     -27.064  -0.119  28.608  0.00  0.00    +0.055 A 
ATOM      5  C   UNL A   1     -26.929   1.171  29.008  0.00  0.00    +0.005 A 
ATOM      6  C   UNL A   1     -25.770   2.034  28.688  0.00  0.00    +0.005 A 
ATOM      7  C   UNL A   1     -24.714   1.443  27.919  0.00  0.00    +0.059 A 
ATOM      8  C   UNL A   1     -24.859   0.078  27.584  0.00  0.00    +0.005 A 
ATOM      9  C   UNL A   1     -25.965  -0.661  27.916  0.00  0.00    +0.005 A 
BRANCH   7  10
ATOM     10  C   UNL A   1     -23.535   2.170  27.555  0.00  0.00    +0.297 C 
ATOM     11  N   UNL A   1     -22.464   1.649  27.099  0.00  0.00    -0.102 NA
ATOM     12  O   UNL A   1     -23.647   3.461  27.543  0.00  0.00    -0.264 OA
ENDBRANCH   7  10
ENDBRANCH   1   4
BRANCH   2  13
ATOM     13  C   UNL A   1     -28.576  -2.480  30.462  0.00  0.00    +0.074 A 
ATOM     14  C   UNL A   1     -28.420  -3.907  30.042  0.00  0.00    +0.017 A 
ATOM     15  C   UNL A   1     -29.311  -4.977  30.461  0.00  0.00    +0.001 A 
ATOM     16  C   UNL A   1     -30.361  -4.534  30.934  0.00  0.00    +0.000 A 
ATOM     17  C   UNL A   1     -30.764  -3.265  31.350  0.00  0.00    +0.001 A 
ATOM     18  C   UNL A   1     -29.854  -2.224  31.076  0.00  0.00    +0.017 A 
ENDBRANCH   2  13
TORSDOF 3
