MODEL 311
MODEL 1
REMARK VINA RESULT:    -6.517      0.000      0.000
REMARK INTER + INTRA:          -9.086
REMARK INTER:                  -8.041
REMARK INTRA:                  -1.045
REMARK UNBOUND:                -1.045
REMARK  Name = No_311-gen_results/8p0m/2024-11-26-14-13-15/
REMARK  4 active torsions:
REMARK  status: ('A' for Active; 'I' for Inactive)
REMARK    1  A    between atoms: C_3  and  C_8
REMARK    2  A    between atoms: C_8  and  C_12
REMARK    3  A    between atoms: C_9  and  C_10
REMARK    4  A    between atoms: C_12  and  C_13
REMARK                            x       y       z     vdW  Elec       q    Type
REMARK                         _______ _______ _______ _____ _____    ______ ____
ROOT
ATOM      1  C   UNL A   1     -23.678  -1.186  28.980  0.00  0.00    -0.016 C 
ATOM      2  C   UNL A   1     -24.146  -2.332  28.519  0.00  0.00    +0.001 C 
ENDROOT
BRANCH   1   5
ATOM      3  C   UNL A   1     -22.335   1.793  27.295  0.00  0.00    +0.042 A 
ATOM      4  C   UNL A   1     -22.417   0.890  28.094  0.00  0.00    +0.003 A 
ATOM      5  C   UNL A   1     -23.471  -0.016  28.049  0.00  0.00    -0.004 A 
ATOM      6  C   UNL A   1     -24.524   0.121  27.076  0.00  0.00    +0.003 A 
ATOM      7  C   UNL A   1     -24.362   1.207  26.205  0.00  0.00    +0.042 A 
ATOM      8  C   UNL A   1     -23.355   2.044  26.301  0.00  0.00    +0.196 A 
ATOM      9  O   UNL A   1     -23.293   3.096  25.439  0.00  0.00    -0.287 OA
ENDBRANCH   1   5
BRANCH   2  10
ATOM     10  C   UNL A   1     -24.412  -3.422  29.427  0.00  0.00    +0.060 C 
ATOM     11  C   UNL A   1     -24.998  -4.622  28.984  0.00  0.00    +0.279 C 
ATOM     12  F   UNL A   1     -25.256  -5.587  29.789  0.00  0.00    -0.172 F 
ATOM     13  F   UNL A   1     -24.051  -5.124  28.912  0.00  0.00    -0.172 F 
ENDBRANCH   2  10
BRANCH   1  14
ATOM     14  C   UNL A   1     -23.286  -1.085  30.365  0.00  0.00    +0.099 C 
BRANCH  14  15
ATOM     15  C   UNL A   1     -24.053  -0.196  31.223  0.00  0.00    +0.323 C 
ATOM     16  F   UNL A   1     -23.455   0.958  31.341  0.00  0.00    -0.198 F 
ATOM     17  F   UNL A   1     -23.090   0.093  31.433  0.00  0.00    -0.198 F 
ENDBRANCH  14  15
ENDBRANCH   1  14
TORSDOF 4
ENDMDL
ENDMDL
