REMARK  Name = No_312-gen_results/8p0m/2024-11-26-14-13-15/
REMARK  2 active torsions:
REMARK  status: ('A' for Active; 'I' for Inactive)
REMARK    1  A    between atoms: C_2  and  C_13
REMARK    2  A    between atoms: C_4  and  C_6
REMARK                            x       y       z     vdW  Elec       q    Type
REMARK                         _______ _______ _______ _____ _____    ______ ____
ROOT
ATOM      1  C   UNL A   1     -28.016  -0.814  28.878  0.00  0.00    +0.004 A 
ATOM      2  C   UNL A   1     -28.469  -0.785  29.829  0.00  0.00    +0.071 A 
ATOM      3  C   UNL A   1     -26.504  -0.778  28.877  0.00  0.00    -0.000 A 
ATOM      4  C   UNL A   1     -25.810  -0.853  30.103  0.00  0.00    -0.000 A 
ATOM      5  C   UNL A   1     -27.991  -0.892  31.226  0.00  0.00    +0.004 A 
ATOM      6  C   UNL A   1     -26.575  -0.890  31.266  0.00  0.00    -0.000 A 
ENDROOT
BRANCH   4   7
ATOM      7  C   UNL A   1     -24.398  -0.836  30.177  0.00  0.00    -0.000 A 
ATOM      8  C   UNL A   1     -23.771  -0.918  31.096  0.00  0.00    -0.000 A 
ATOM      9  C   UNL A   1     -22.302  -0.844  31.215  0.00  0.00    +0.000 A 
ATOM     10  C   UNL A   1     -21.683  -0.588  30.058  0.00  0.00    +0.000 A 
ATOM     11  C   UNL A   1     -23.638  -0.631  28.934  0.00  0.00    -0.000 A 
ATOM     12  C   UNL A   1     -22.346  -0.465  28.896  0.00  0.00    +0.000 A 
ENDBRANCH   4   7
BRANCH   2  13
ATOM     13  C   UNL A   1     -30.082  -0.825  30.023  0.00  0.00    +0.419 C 
ATOM     14  F   UNL A   1     -30.509  -1.904  29.995  0.00  0.00    -0.166 F 
ATOM     15  F   UNL A   1     -30.446  -0.156  31.147  0.00  0.00    -0.166 F 
ATOM     16  F   UNL A   1     -30.540  -0.135  28.983  0.00  0.00    -0.166 F 
ENDBRANCH   2  13
TORSDOF 2
