REMARK  Name = No_3120-gen_results/8p0m/2024-11-26-14-13-15/
REMARK  5 active torsions:
REMARK  status: ('A' for Active; 'I' for Inactive)
REMARK    1  A    between atoms: C_2  and  C_14
REMARK    2  A    between atoms: C_4  and  C_5
REMARK    3  A    between atoms: C_6  and  O_9
REMARK    4  A    between atoms: O_9  and  C_10
REMARK    5  A    between atoms: C_10  and  C_11
REMARK                            x       y       z     vdW  Elec       q    Type
REMARK                         _______ _______ _______ _____ _____    ______ ____
ROOT
ATOM      1  C   UNL A   1     -28.016  -0.814  28.878  0.00  0.00    +0.037 A 
ATOM      2  C   UNL A   1     -27.064  -0.119  28.608  0.00  0.00    +0.002 A 
ATOM      3  C   UNL A   1     -25.765  -0.390  29.036  0.00  0.00    -0.004 A 
ATOM      4  C   UNL A   1     -25.530  -1.530  29.901  0.00  0.00    -0.019 A 
ATOM      5  C   UNL A   1     -27.927  -1.923  29.790  0.00  0.00    +0.139 A 
ATOM      6  C   UNL A   1     -26.691  -2.281  30.295  0.00  0.00    +0.033 A 
ENDROOT
BRANCH   2   7
ATOM      7  C   UNL A   1     -27.123   1.013  27.618  0.00  0.00    -0.004 C 
ATOM      8  C   UNL A   1     -26.197   1.254  26.734  0.00  0.00    -0.026 C 
ATOM      9  C   UNL A   1     -26.148   2.429  25.908  0.00  0.00    +0.031 C 
ENDBRANCH   2   7
BRANCH   4  10
ATOM     10  C   UNL A   1     -24.324  -1.908  30.432  0.00  0.00    +0.026 C 
ATOM     11  C   UNL A   1     -23.281  -2.039  29.481  0.00  0.00    +0.005 C 
ENDBRANCH   4  10
BRANCH   5  12
ATOM     12  O   UNL A   1     -29.005  -2.657  30.199  0.00  0.00    -0.464 OA
BRANCH  12  13
ATOM     13  C   UNL A   1     -30.097  -2.047  30.705  0.00  0.00    +0.319 C 
BRANCH  13  14
ATOM     14  C   UNL A   1     -30.640  -2.781  31.703  0.00  0.00    +0.408 C 
ATOM     15  O   UNL A   1     -31.616  -2.353  32.208  0.00  0.00    -0.241 OA
ATOM     16  O   UNL A   1     -30.516  -4.066  31.710  0.00  0.00    -0.241 OA
ENDBRANCH  13  14
ENDBRANCH  12  13
ENDBRANCH   5  12
TORSDOF 5
