REMARK  Name = No_3121-gen_results/8p0m/2024-11-26-14-13-15/
REMARK  1 active torsions:
REMARK  status: ('A' for Active; 'I' for Inactive)
REMARK    1  A    between atoms: C_4  and  C_9
REMARK                            x       y       z     vdW  Elec       q    Type
REMARK                         _______ _______ _______ _____ _____    ______ ____
ROOT
ATOM      1  F   UNL A   1     -28.073  -1.254  28.532  0.00  0.00    -0.202 F 
ATOM      2  C   UNL A   1     -28.266  -0.421  29.193  0.00  0.00    +0.167 A 
ATOM      3  C   UNL A   1     -29.445   0.076  29.339  0.00  0.00    +0.036 A 
ATOM      4  C   UNL A   1     -29.707   1.174  30.228  0.00  0.00    +0.074 A 
ATOM      5  C   UNL A   1     -28.597   1.711  30.911  0.00  0.00    +0.006 A 
ATOM      6  C   UNL A   1     -27.302   1.182  30.791  0.00  0.00    +0.032 A 
ATOM      7  C   UNL A   1     -27.122   0.122  29.980  0.00  0.00    +0.167 A 
ATOM      8  F   UNL A   1     -25.958  -0.405  29.832  0.00  0.00    -0.202 F 
ENDROOT
BRANCH   4   9
ATOM      9  C   UNL A   1     -31.037   1.746  30.375  0.00  0.00    +0.419 C 
ATOM     10  F   UNL A   1     -31.911   1.019  30.053  0.00  0.00    -0.166 F 
ATOM     11  F   UNL A   1     -31.137   2.068  31.683  0.00  0.00    -0.166 F 
ATOM     12  F   UNL A   1     -31.069   2.886  29.678  0.00  0.00    -0.166 F 
ENDBRANCH   4   9
TORSDOF 1
