MODEL 3121
MODEL 1
REMARK VINA RESULT:    -5.375      0.000      0.000
REMARK INTER + INTRA:          -5.813
REMARK INTER:                  -5.689
REMARK INTRA:                  -0.124
REMARK UNBOUND:                -0.124
REMARK  Name = No_3121-gen_results/8p0m/2024-11-26-14-13-15/
REMARK  1 active torsions:
REMARK  status: ('A' for Active; 'I' for Inactive)
REMARK    1  A    between atoms: C_4  and  C_9
REMARK                            x       y       z     vdW  Elec       q    Type
REMARK                         _______ _______ _______ _____ _____    ______ ____
ROOT
ATOM      1  F   UNL A   1     -24.621  -5.461  28.789  0.00  0.00    -0.202 F 
ATOM      2  C   UNL A   1     -24.801  -4.438  29.087  0.00  0.00    +0.167 A 
ATOM      3  C   UNL A   1     -23.933  -3.507  28.891  0.00  0.00    +0.036 A 
ATOM      4  C   UNL A   1     -24.175  -2.143  29.273  0.00  0.00    +0.074 A 
ATOM      5  C   UNL A   1     -25.403  -1.875  29.910  0.00  0.00    +0.006 A 
ATOM      6  C   UNL A   1     -26.381  -2.861  30.122  0.00  0.00    +0.032 A 
ATOM      7  C   UNL A   1     -26.120  -4.114  29.701  0.00  0.00    +0.167 A 
ATOM      8  F   UNL A   1     -26.979  -5.057  29.867  0.00  0.00    -0.202 F 
ENDROOT
BRANCH   4   9
ATOM      9  C   UNL A   1     -23.183  -1.098  29.069  0.00  0.00    +0.419 C 
ATOM     10  F   UNL A   1     -22.069  -1.492  29.041  0.00  0.00    -0.166 F 
ATOM     11  F   UNL A   1     -23.518  -0.522  27.894  0.00  0.00    -0.166 F 
ATOM     12  F   UNL A   1     -23.353  -0.183  30.028  0.00  0.00    -0.166 F 
ENDBRANCH   4   9
TORSDOF 1
ENDMDL
ENDMDL
