MODEL 3122
MODEL 1
REMARK VINA RESULT:    -7.477      0.000      0.000
REMARK INTER + INTRA:         -14.456
REMARK INTER:                 -11.411
REMARK INTRA:                  -3.046
REMARK UNBOUND:                -3.046
REMARK  Name = No_3122-gen_results/8p0m/2024-11-26-14-13-15/
REMARK  9 active torsions:
REMARK  status: ('A' for Active; 'I' for Inactive)
REMARK    1  A    between atoms: C_2  and  C_8
REMARK    2  A    between atoms: C_8  and  O_10
REMARK    3  A    between atoms: O_10  and  C_12
REMARK    4  A    between atoms: C_12  and  C_13
REMARK    5  A    between atoms: C_13  and  O_15
REMARK    6  A    between atoms: O_15  and  C_17
REMARK    7  A    between atoms: C_21  and  C_23
REMARK    8  A    between atoms: C_25  and  C_30
REMARK    9  A    between atoms: C_30  and  S_32
REMARK                            x       y       z     vdW  Elec       q    Type
REMARK                         _______ _______ _______ _____ _____    ______ ____
ROOT
ATOM      1  C   UNL A   1     -31.889 -12.465  11.572  0.00  0.00    +0.149 A 
ATOM      2  C   UNL A   1     -32.991 -12.716  10.744  0.00  0.00    +0.038 A 
ATOM      3  C   UNL A   1     -33.305 -12.205   9.887  0.00  0.00    +0.003 A 
ATOM      4  C   UNL A   1     -32.856 -10.791   9.599  0.00  0.00    +0.000 A 
ATOM      5  C   UNL A   1     -31.755 -10.435  10.433  0.00  0.00    +0.003 A 
ATOM      6  C   UNL A   1     -31.292 -11.314  11.376  0.00  0.00    +0.038 A 
ENDROOT
BRANCH   5   7
ATOM      7  C   UNL A   1     -31.128  -9.099  10.231  0.00  0.00    +0.001 A 
ATOM      8  C   UNL A   1     -30.170  -8.872   9.753  0.00  0.00    +0.000 A 
ATOM      9  C   UNL A   1     -29.553  -7.544   9.585  0.00  0.00    +0.030 A 
ATOM     10  C   UNL A   1     -30.308  -6.482  10.062  0.00  0.00    +0.011 A 
ATOM     11  C   UNL A   1     -31.494  -6.700  10.654  0.00  0.00    +0.058 A 
ATOM     12  C   UNL A   1     -31.964  -7.982  10.774  0.00  0.00    +0.011 A 
ATOM     13 CL   UNL A   1     -32.451  -5.414  11.237  0.00  0.00    -0.082 Cl
BRANCH   9  14
ATOM     14  C   UNL A   1     -28.263  -7.410   8.935  0.00  0.00    +0.281 C 
ATOM     15  F   UNL A   1     -27.424  -6.837   9.578  0.00  0.00    -0.209 F 
ATOM     16  C   UNL A   1     -28.571  -6.532   7.695  0.00  0.00    +0.067 C 
BRANCH  14  17
ATOM     17  S   UNL A   1     -27.694  -8.931   8.410  0.00  0.00    +0.129 S 
ATOM     18  O   UNL A   1     -27.208  -8.854   7.274  0.00  0.00    -0.149 OA
ATOM     19  O   UNL A   1     -26.779  -9.398   9.476  0.00  0.00    -0.149 OA
ENDBRANCH  14  17
ENDBRANCH   9  14
ENDBRANCH   5   7
BRANCH   1  20
ATOM     20  O   UNL A   1     -31.434 -13.462  12.181  0.00  0.00    -0.416 OA
BRANCH  20  21
ATOM     21  C   UNL A   1     -30.191 -13.747  12.503  0.00  0.00    +0.423 C 
ATOM     22  O   UNL A   1     -29.443 -12.822  12.795  0.00  0.00    -0.237 OA
BRANCH  21  23
ATOM     23  C   UNL A   1     -29.718 -15.034  12.409  0.00  0.00    +0.425 C 
ATOM     24  O   UNL A   1     -28.989 -15.542  13.186  0.00  0.00    -0.237 OA
BRANCH  23  25
ATOM     25  O   UNL A   1     -30.132 -15.720  11.335  0.00  0.00    -0.382 OA
BRANCH  25  26
ATOM     26  C   UNL A   1     -29.534 -15.576  10.181  0.00  0.00    +0.348 C 
ATOM     27  O   UNL A   1     -28.759 -16.239   9.815  0.00  0.00    -0.244 OA
BRANCH  26  29
ATOM     28  C   UNL A   1     -29.838 -13.765   8.804  0.00  0.00    +0.020 A 
ATOM     29  C   UNL A   1     -30.227 -14.729   8.977  0.00  0.00    +0.077 A 
ATOM     30  C   UNL A   1     -30.503 -12.985   7.692  0.00  0.00    +0.085 A 
ATOM     31  C   UNL A   1     -31.656 -13.512   7.072  0.00  0.00    +0.151 A 
ATOM     32  C   UNL A   1     -31.411 -15.485   8.510  0.00  0.00    +0.009 A 
ATOM     33  C   UNL A   1     -32.052 -14.796   7.490  0.00  0.00    +0.031 A 
ATOM     34  F   UNL A   1     -32.212 -12.907   6.118  0.00  0.00    -0.203 F 
ATOM     35 CL   UNL A   1     -29.992 -11.442   7.135  0.00  0.00    -0.080 Cl
ENDBRANCH  26  29
ENDBRANCH  25  26
ENDBRANCH  23  25
ENDBRANCH  21  23
ENDBRANCH  20  21
ENDBRANCH   1  20
TORSDOF 9
ENDMDL
ENDMDL
