REMARK  Name = No_3123-gen_results/8p0m/2024-11-26-14-13-15/
REMARK  4 active torsions:
REMARK  status: ('A' for Active; 'I' for Inactive)
REMARK    1  A    between atoms: C_3  and  C_8
REMARK    2  A    between atoms: C_6  and  O_7
REMARK    3  A    between atoms: O_7  and  C_12
REMARK    4  A    between atoms: C_8  and  C_9
REMARK                            x       y       z     vdW  Elec       q    Type
REMARK                         _______ _______ _______ _____ _____    ______ ____
ROOT
ATOM      1  C   UNL A   1     -29.320  -2.769  31.440  0.00  0.00    +0.376 C 
ATOM      2  C   UNL A   1     -29.746  -4.080  31.802  0.00  0.00    +0.269 C 
ATOM      3  C   UNL A   1     -31.117  -4.260  31.595  0.00  0.00    +0.191 C 
ATOM      4  C   UNL A   1     -31.842  -3.367  31.012  0.00  0.00    +0.047 A 
ATOM      5  O   UNL A   1     -29.344  -4.295  33.191  0.00  0.00    -0.212 OA
ATOM      6  C   UNL A   1     -32.860  -3.421  30.528  0.00  0.00    +0.002 A 
ATOM      7  C   UNL A   1     -33.645  -2.320  29.858  0.00  0.00    +0.003 A 
ATOM      8  C   UNL A   1     -33.003  -1.075  29.828  0.00  0.00    +0.045 A 
ATOM      9  C   UNL A   1     -31.745  -0.950  30.382  0.00  0.00    +0.229 A 
ATOM     10  C   UNL A   1     -31.183  -1.974  30.948  0.00  0.00    +0.180 A 
ATOM     11  O   UNL A   1     -30.384  -1.833  31.774  0.00  0.00    -0.438 OA
ATOM     12  F   UNL A   1     -31.671  -4.498  32.846  0.00  0.00    -0.233 F 
ATOM     13  C   UNL A   1     -31.248  -5.635  30.787  0.00  0.00    +0.043 C 
ATOM     14  O   UNL A   1     -31.224   0.275  30.446  0.00  0.00    -0.283 OA
ENDROOT
BRANCH   1  15
ATOM     15  O   UNL A   1     -28.930  -2.730  30.115  0.00  0.00    -0.441 OA
BRANCH  15  21
ATOM     16  C   UNL A   1     -28.016  -0.814  28.878  0.00  0.00    +0.037 A 
ATOM     17  C   UNL A   1     -27.064  -0.119  28.608  0.00  0.00    -0.001 A 
ATOM     18  C   UNL A   1     -25.765  -0.390  29.036  0.00  0.00    -0.013 A 
ATOM     19  C   UNL A   1     -25.530  -1.530  29.901  0.00  0.00    -0.001 A 
ATOM     20  C   UNL A   1     -26.689  -2.289  30.181  0.00  0.00    +0.037 A 
ATOM     21  C   UNL A   1     -27.873  -1.951  29.737  0.00  0.00    +0.142 A 
BRANCH  18  22
ATOM     22  C   UNL A   1     -24.539   0.421  28.742  0.00  0.00    +0.118 C 
BRANCH  22  23
ATOM     23  C   UNL A   1     -24.091   1.393  29.598  0.00  0.00    +0.278 C 
ATOM     24  N   UNL A   1     -23.008   2.131  29.187  0.00  0.00    -0.107 NA
ATOM     25  O   UNL A   1     -24.663   1.697  30.689  0.00  0.00    -0.268 OA
ENDBRANCH  22  23
ENDBRANCH  18  22
ENDBRANCH  15  21
ENDBRANCH   1  15
TORSDOF 4
