MODEL 3123
MODEL 1
REMARK VINA RESULT:    -6.657      0.000      0.000
REMARK INTER + INTRA:          -8.887
REMARK INTER:                  -8.213
REMARK INTRA:                  -0.673
REMARK UNBOUND:                -0.673
REMARK  Name = No_3123-gen_results/8p0m/2024-11-26-14-13-15/
REMARK  4 active torsions:
REMARK  status: ('A' for Active; 'I' for Inactive)
REMARK    1  A    between atoms: C_3  and  C_8
REMARK    2  A    between atoms: C_6  and  O_7
REMARK    3  A    between atoms: O_7  and  C_12
REMARK    4  A    between atoms: C_8  and  C_9
REMARK                            x       y       z     vdW  Elec       q    Type
REMARK                         _______ _______ _______ _____ _____    ______ ____
ROOT
ATOM      1  C   UNL A   1     -29.774 -11.965  10.444  0.00  0.00    +0.376 C 
ATOM      2  C   UNL A   1     -31.054 -11.388  10.691  0.00  0.00    +0.269 C 
ATOM      3  C   UNL A   1     -31.146 -10.086  10.191  0.00  0.00    +0.191 C 
ATOM      4  C   UNL A   1     -30.210  -9.562   9.475  0.00  0.00    +0.047 A 
ATOM      5  O   UNL A   1     -31.291 -11.466  12.131  0.00  0.00    -0.212 OA
ATOM      6  C   UNL A   1     -30.200  -8.672   8.782  0.00  0.00    +0.002 A 
ATOM      7  C   UNL A   1     -29.053  -8.121   7.970  0.00  0.00    +0.003 A 
ATOM      8  C   UNL A   1     -27.852  -8.832   8.094  0.00  0.00    +0.045 A 
ATOM      9  C   UNL A   1     -27.806  -9.946   8.908  0.00  0.00    +0.229 A 
ATOM     10  C   UNL A   1     -28.863 -10.306   9.570  0.00  0.00    +0.180 A 
ATOM     11  O   UNL A   1     -28.771 -10.915  10.551  0.00  0.00    -0.438 OA
ATOM     12  F   UNL A   1     -31.345  -9.260  11.290  0.00  0.00    -0.233 F 
ATOM     13  C   UNL A   1     -32.512 -10.046   9.358  0.00  0.00    +0.043 C 
ATOM     14  O   UNL A   1     -26.617 -10.517   9.097  0.00  0.00    -0.283 OA
ENDROOT
BRANCH   1  15
ATOM     15  O   UNL A   1     -29.764 -12.634   9.235  0.00  0.00    -0.441 OA
BRANCH  15  21
ATOM     16  C   UNL A   1     -29.699 -14.982   9.956  0.00  0.00    +0.037 A 
ATOM     17  C   UNL A   1     -29.238 -16.091   9.819  0.00  0.00    -0.001 A 
ATOM     18  C   UNL A   1     -28.194 -16.389   8.945  0.00  0.00    -0.013 A 
ATOM     19  C   UNL A   1     -27.655 -15.338   8.104  0.00  0.00    -0.001 A 
ATOM     20  C   UNL A   1     -28.248 -14.072   8.312  0.00  0.00    +0.037 A 
ATOM     21  C   UNL A   1     -29.233 -13.890   9.155  0.00  0.00    +0.142 A 
BRANCH  18  22
ATOM     22  C   UNL A   1     -27.571 -17.735   8.722  0.00  0.00    +0.118 C 
BRANCH  22  23
ATOM     23  C   UNL A   1     -26.473 -18.151   9.429  0.00  0.00    +0.278 C 
ATOM     24  N   UNL A   1     -25.685 -19.111   8.843  0.00  0.00    -0.107 NA
ATOM     25  O   UNL A   1     -26.108 -17.647  10.534  0.00  0.00    -0.268 OA
ENDBRANCH  22  23
ENDBRANCH  18  22
ENDBRANCH  15  21
ENDBRANCH   1  15
TORSDOF 4
ENDMDL
ENDMDL
