MODEL 3124
MODEL 1
REMARK VINA RESULT:    -4.337      0.000      0.000
REMARK INTER + INTRA:          -4.337
REMARK INTER:                  -4.337
REMARK INTRA:                   0.000
REMARK UNBOUND:                 0.000
REMARK  Name = No_3124-gen_results/8p0m/2024-11-26-14-13-15/
REMARK  0 active torsions:
REMARK  status: ('A' for Active; 'I' for Inactive)
REMARK                            x       y       z     vdW  Elec       q    Type
REMARK                         _______ _______ _______ _____ _____    ______ ____
ROOT
ATOM      1  C   UNL A   1     -24.921  -5.351  29.008  0.00  0.00    +0.000 A 
ATOM      2  C   UNL A   1     -24.185  -4.663  28.698  0.00  0.00    +0.000 A 
ATOM      3  C   UNL A   1     -26.114  -4.713  29.577  0.00  0.00    +0.000 A 
ATOM      4  C   UNL A   1     -26.172  -3.407  29.841  0.00  0.00    +0.000 A 
ATOM      5  C   UNL A   1     -24.017  -3.243  28.890  0.00  0.00    +0.000 A 
ATOM      6  C   UNL A   1     -25.126  -2.673  29.442  0.00  0.00    +0.000 A 
ENDROOT
TORSDOF 0
ENDMDL
ENDMDL
