REMARK  Name = No_3125-gen_results/8p0m/2024-11-26-14-13-15/
REMARK  3 active torsions:
REMARK  status: ('A' for Active; 'I' for Inactive)
REMARK    1  A    between atoms: C_2  and  C_6
REMARK    2  A    between atoms: C_4  and  C_10
REMARK    3  A    between atoms: C_10  and  C_11
REMARK                            x       y       z     vdW  Elec       q    Type
REMARK                         _______ _______ _______ _____ _____    ______ ____
ROOT
ATOM      1  C   UNL A   1     -28.016  -0.814  28.878  0.00  0.00    +0.011 C 
ATOM      2  C   UNL A   1     -28.469  -0.785  29.829  0.00  0.00    +0.103 C 
ATOM      3  C   UNL A   1     -27.087   0.290  28.638  0.00  0.00    +0.001 C 
ATOM      4  C   UNL A   1     -26.024   0.364  29.253  0.00  0.00    +0.011 C 
ATOM      5  C   UNL A   1     -26.246   0.433  30.799  0.00  0.00    +0.001 C 
ATOM      6  C   UNL A   1     -27.288  -0.671  31.092  0.00  0.00    +0.011 C 
ENDROOT
BRANCH   2   7
ATOM      7  C   UNL A   1     -29.574  -1.627  30.332  0.00  0.00    +0.364 C 
ATOM      8  O   UNL A   1     -30.107  -1.362  31.453  0.00  0.00    -0.246 OA
ATOM      9  O   UNL A   1     -30.244  -2.264  29.504  0.00  0.00    -0.246 OA
ENDBRANCH   2   7
BRANCH   4  10
ATOM     10  C   UNL A   1     -24.634   0.722  28.921  0.00  0.00    +0.103 C 
ATOM     11  C   UNL A   1     -23.669  -0.433  29.358  0.00  0.00    +0.012 C 
BRANCH  10  12
ATOM     12  C   UNL A   1     -24.014   1.904  29.306  0.00  0.00    +0.364 C 
ATOM     13  O   UNL A   1     -22.798   2.169  28.938  0.00  0.00    -0.246 OA
ATOM     14  O   UNL A   1     -24.719   2.932  29.740  0.00  0.00    -0.246 OA
ENDBRANCH  10  12
ENDBRANCH   4  10
TORSDOF 3
