MODEL 3125
MODEL 1
REMARK VINA RESULT:    -5.495      0.000      0.000
REMARK INTER + INTRA:          -6.643
REMARK INTER:                  -6.458
REMARK INTRA:                  -0.184
REMARK UNBOUND:                -0.184
REMARK  Name = No_3125-gen_results/8p0m/2024-11-26-14-13-15/
REMARK  3 active torsions:
REMARK  status: ('A' for Active; 'I' for Inactive)
REMARK    1  A    between atoms: C_2  and  C_6
REMARK    2  A    between atoms: C_4  and  C_10
REMARK    3  A    between atoms: C_10  and  C_11
REMARK                            x       y       z     vdW  Elec       q    Type
REMARK                         _______ _______ _______ _____ _____    ______ ____
ROOT
ATOM      1  C   UNL A   1     -29.087 -12.127  29.615  0.00  0.00    +0.011 C 
ATOM      2  C   UNL A   1     -29.544 -11.328  29.101  0.00  0.00    +0.103 C 
ATOM      3  C   UNL A   1     -28.253 -11.699  30.738  0.00  0.00    +0.001 C 
ATOM      4  C   UNL A   1     -28.758 -11.207  31.746  0.00  0.00    +0.011 C 
ATOM      5  C   UNL A   1     -29.580  -9.917  31.419  0.00  0.00    +0.001 C 
ATOM      6  C   UNL A   1     -30.424 -10.298  30.181  0.00  0.00    +0.011 C 
ENDROOT
BRANCH   2   7
ATOM      7  C   UNL A   1     -30.295 -11.382  27.830  0.00  0.00    +0.364 C 
ATOM      8  O   UNL A   1     -29.759 -10.951  26.763  0.00  0.00    -0.246 OA
ATOM      9  O   UNL A   1     -31.208 -12.216  27.728  0.00  0.00    -0.246 OA
ENDBRANCH   2   7
BRANCH   4  10
ATOM     10  C   UNL A   1     -28.540 -11.317  33.199  0.00  0.00    +0.103 C 
ATOM     11  C   UNL A   1     -29.132 -10.059  33.923  0.00  0.00    +0.012 C 
BRANCH  10  12
ATOM     12  C   UNL A   1     -27.307 -11.554  33.793  0.00  0.00    +0.364 C 
ATOM     13  O   UNL A   1     -26.820 -10.730  34.670  0.00  0.00    -0.246 OA
ATOM     14  O   UNL A   1     -26.759 -12.755  33.767  0.00  0.00    -0.246 OA
ENDBRANCH  10  12
ENDBRANCH   4  10
TORSDOF 3
ENDMDL
ENDMDL
