MODEL 3126
MODEL 1
REMARK VINA RESULT:    -7.155      0.000      0.000
REMARK INTER + INTRA:          -9.391
REMARK INTER:                  -8.410
REMARK INTRA:                  -0.982
REMARK UNBOUND:                -0.982
REMARK  Name = No_3126-gen_results/8p0m/2024-11-26-14-13-15/
REMARK  3 active torsions:
REMARK  status: ('A' for Active; 'I' for Inactive)
REMARK    1  A    between atoms: C_3  and  C_10
REMARK    2  A    between atoms: C_5  and  C_7
REMARK    3  A    between atoms: C_11  and  C_12
REMARK                            x       y       z     vdW  Elec       q    Type
REMARK                         _______ _______ _______ _____ _____    ______ ____
ROOT
ATOM      1  C   UNL A   1     -24.453  -4.689  28.836  0.00  0.00    +0.000 A 
ATOM      2  C   UNL A   1     -24.043  -3.551  28.830  0.00  0.00    +0.000 A 
ATOM      3  C   UNL A   1     -24.774  -2.438  29.209  0.00  0.00    +0.000 A 
ATOM      4  C   UNL A   1     -26.104  -2.662  29.670  0.00  0.00    +0.007 A 
ATOM      5  C   UNL A   1     -26.481  -3.943  29.817  0.00  0.00    +0.080 A 
ATOM      6  C   UNL A   1     -25.706  -4.932  29.475  0.00  0.00    +0.007 A 
ENDROOT
BRANCH   3   7
ATOM      7  C   UNL A   1     -24.258  -1.020  28.986  0.00  0.00    -0.000 A 
ATOM      8  C   UNL A   1     -23.399  -0.499  30.044  0.00  0.00    -0.000 A 
ATOM      9  C   UNL A   1     -22.947   0.912  29.488  0.00  0.00    -0.000 A 
ATOM     10  C   UNL A   1     -24.235  -0.585  27.753  0.00  0.00    -0.000 A 
ATOM     11  C   UNL A   1     -23.045   1.461  28.237  0.00  0.00    -0.000 A 
ATOM     12  C   UNL A   1     -23.792   0.676  27.353  0.00  0.00    -0.000 A 
BRANCH   8  13
ATOM     13  C   UNL A   1     -23.213  -0.862  30.980  0.00  0.00    -0.005 C 
ATOM     14  C   UNL A   1     -24.062  -0.623  32.259  0.00  0.00    -0.026 C 
ATOM     15  C   UNL A   1     -23.820  -1.204  33.497  0.00  0.00    +0.031 C 
ENDBRANCH   8  13
ENDBRANCH   3   7
BRANCH   5  16
ATOM     16  C   UNL A   1     -27.860  -4.133  30.331  0.00  0.00    +0.388 C 
ATOM     17  O   UNL A   1     -28.761  -3.353  30.149  0.00  0.00    -0.241 OA
ATOM     18  O   UNL A   1     -28.182  -5.314  30.831  0.00  0.00    -0.241 OA
ENDBRANCH   5  16
TORSDOF 3
ENDMDL
ENDMDL
