MODEL 3127
MODEL 1
REMARK VINA RESULT:    -7.848      0.000      0.000
REMARK INTER + INTRA:          -9.873
REMARK INTER:                  -9.224
REMARK INTRA:                  -0.649
REMARK UNBOUND:                -0.649
REMARK  Name = No_3127-gen_results/8p0m/2024-11-26-14-13-15/
REMARK  3 active torsions:
REMARK  status: ('A' for Active; 'I' for Inactive)
REMARK    1  A    between atoms: C_2  and  N_7
REMARK    2  A    between atoms: N_7  and  C_8
REMARK    3  A    between atoms: N_7  and  C_14
REMARK                            x       y       z     vdW  Elec       q    Type
REMARK                         _______ _______ _______ _____ _____    ______ ____
ROOT
ATOM      1  N   UNL A   1     -23.801  -1.512  29.495  0.00  0.00    -0.251 N 
ENDROOT
BRANCH   1   3
ATOM      2  C   UNL A   1     -24.697  -0.376  27.676  0.00  0.00    +0.035 A 
ATOM      3  C   UNL A   1     -23.813  -0.520  28.488  0.00  0.00    +0.142 A 
ATOM      4  N   UNL A   1     -22.708   0.237  28.542  0.00  0.00    -0.202 NA
ATOM      5  C   UNL A   1     -22.557   1.249  27.585  0.00  0.00    +0.223 A 
ATOM      6  C   UNL A   1     -23.530   1.406  26.639  0.00  0.00    +0.050 A 
ATOM      7  C   UNL A   1     -24.481   0.613  26.723  0.00  0.00    +0.007 A 
ATOM      8  F   UNL A   1     -21.523   2.044  27.710  0.00  0.00    -0.183 F 
ENDBRANCH   1   3
BRANCH   1   9
ATOM      9  C   UNL A   1     -24.154  -2.754  29.258  0.00  0.00    +0.057 A 
ATOM     10  C   UNL A   1     -23.839  -3.694  28.782  0.00  0.00    +0.015 A 
ATOM     11  C   UNL A   1     -24.186  -4.892  28.607  0.00  0.00    +0.001 A 
ATOM     12  C   UNL A   1     -25.490  -5.208  29.168  0.00  0.00    +0.000 A 
ATOM     13  C   UNL A   1     -25.580  -3.163  29.802  0.00  0.00    +0.015 A 
ATOM     14  C   UNL A   1     -26.134  -4.301  29.642  0.00  0.00    +0.001 A 
ENDBRANCH   1   9
BRANCH   1  15
ATOM     15  C   UNL A   1     -24.313  -0.984  30.766  0.00  0.00    +0.057 A 
ATOM     16  C   UNL A   1     -23.521  -1.432  31.871  0.00  0.00    +0.015 A 
ATOM     17  C   UNL A   1     -23.902  -0.966  33.122  0.00  0.00    +0.001 A 
ATOM     18  C   UNL A   1     -25.009  -0.123  33.305  0.00  0.00    +0.000 A 
ATOM     19  C   UNL A   1     -25.718   0.261  32.191  0.00  0.00    +0.001 A 
ATOM     20  C   UNL A   1     -25.414  -0.165  30.912  0.00  0.00    +0.015 A 
ENDBRANCH   1  15
TORSDOF 3
ENDMDL
ENDMDL
