REMARK  Name = No_3127-gen_results/8p0m/2024-11-26-14-13-15/
REMARK  3 active torsions:
REMARK  status: ('A' for Active; 'I' for Inactive)
REMARK    1  A    between atoms: C_2  and  N_7
REMARK    2  A    between atoms: N_7  and  C_8
REMARK    3  A    between atoms: N_7  and  C_14
REMARK                            x       y       z     vdW  Elec       q    Type
REMARK                         _______ _______ _______ _____ _____    ______ ____
ROOT
ATOM      1  N   UNL A   1     -27.119   1.038  27.799  0.00  0.00    -0.251 N 
ENDROOT
BRANCH   1   3
ATOM      2  C   UNL A   1     -28.016  -0.814  28.878  0.00  0.00    +0.035 A 
ATOM      3  C   UNL A   1     -27.064  -0.119  28.608  0.00  0.00    +0.142 A 
ATOM      4  N   UNL A   1     -25.818  -0.343  29.049  0.00  0.00    -0.202 NA
ATOM      5  C   UNL A   1     -25.607  -1.441  29.893  0.00  0.00    +0.223 A 
ATOM      6  C   UNL A   1     -26.676  -2.219  30.236  0.00  0.00    +0.050 A 
ATOM      7  C   UNL A   1     -27.763  -1.866  29.751  0.00  0.00    +0.007 A 
ATOM      8  F   UNL A   1     -24.370  -1.706  30.235  0.00  0.00    -0.183 F 
ENDBRANCH   1   3
BRANCH   1   9
ATOM      9  C   UNL A   1     -26.096   1.851  27.668  0.00  0.00    +0.057 A 
ATOM     10  C   UNL A   1     -25.791   2.907  27.682  0.00  0.00    +0.015 A 
ATOM     11  C   UNL A   1     -24.784   3.659  27.593  0.00  0.00    +0.001 A 
ATOM     12  C   UNL A   1     -23.546   2.944  27.325  0.00  0.00    +0.000 A 
ATOM     13  C   UNL A   1     -24.720   1.151  27.334  0.00  0.00    +0.015 A 
ATOM     14  C   UNL A   1     -23.616   1.754  27.122  0.00  0.00    +0.001 A 
ENDBRANCH   1   9
BRANCH   1  15
ATOM     15  C   UNL A   1     -28.407   1.728  27.946  0.00  0.00    +0.057 A 
ATOM     16  C   UNL A   1     -28.935   2.119  26.675  0.00  0.00    +0.015 A 
ATOM     17  C   UNL A   1     -30.169   2.756  26.697  0.00  0.00    +0.001 A 
ATOM     18  C   UNL A   1     -30.854   3.024  27.892  0.00  0.00    +0.000 A 
ATOM     19  C   UNL A   1     -30.278   2.616  29.072  0.00  0.00    +0.001 A 
ATOM     20  C   UNL A   1     -29.049   1.986  29.140  0.00  0.00    +0.015 A 
ENDBRANCH   1  15
TORSDOF 3
