REMARK  Name = No_3128-gen_results/8p0m/2024-11-26-14-13-15/
REMARK  7 active torsions:
REMARK  status: ('A' for Active; 'I' for Inactive)
REMARK    1  A    between atoms: C_2  and  O_3
REMARK    2  A    between atoms: C_2  and  C_4
REMARK    3  A    between atoms: O_3  and  C_30
REMARK    4  A    between atoms: C_9  and  C_11
REMARK    5  A    between atoms: C_13  and  C_14
REMARK    6  A    between atoms: C_14  and  C_15
REMARK    7  A    between atoms: C_17  and  C_24
REMARK                            x       y       z     vdW  Elec       q    Type
REMARK                         _______ _______ _______ _____ _____    ______ ____
ROOT
ATOM      1  C   UNL A   1     -29.098   1.425  27.144  0.00  0.00    -0.000 A 
ATOM      2  C   UNL A   1     -28.106   0.980  26.692  0.00  0.00    -0.004 A 
ATOM      3  C   UNL A   1     -27.154   1.659  25.795  0.00  0.00    -0.018 A 
ATOM      4  C   UNL A   1     -29.388   2.840  26.762  0.00  0.00    -0.000 A 
ATOM      5  C   UNL A   1     -28.523   3.565  25.950  0.00  0.00    -0.000 A 
ATOM      6  C   UNL A   1     -27.409   3.020  25.500  0.00  0.00    -0.004 A 
ENDROOT
BRANCH   1  12
ATOM      7  C   UNL A   1     -29.902  -0.057  28.972  0.00  0.00    +0.076 A 
ATOM      8  C   UNL A   1     -30.776  -0.653  29.702  0.00  0.00    +0.007 A 
ATOM      9  C   UNL A   1     -32.187  -0.373  29.494  0.00  0.00    +0.012 A 
ATOM     10  C   UNL A   1     -32.495   0.579  28.517  0.00  0.00    +0.058 A 
ATOM     11  C   UNL A   1     -31.500   1.170  27.760  0.00  0.00    +0.012 A 
ATOM     12  C   UNL A   1     -30.151   0.847  27.957  0.00  0.00    +0.007 A 
ATOM     13 CL   UNL A   1     -34.129   0.977  28.281  0.00  0.00    -0.082 Cl
BRANCH   7  15
ATOM     14  O   UNL A   1     -28.123  -1.335  28.487  0.00  0.00    -0.244 OA
ATOM     15  C   UNL A   1     -28.521  -0.436  29.078  0.00  0.00    +0.346 C 
BRANCH  15  16
ATOM     16  O   UNL A   1     -27.915   0.078  30.039  0.00  0.00    -0.421 OA
BRANCH  16  17
ATOM     17  C   UNL A   1     -27.896   1.272  30.577  0.00  0.00    +0.149 A 
ATOM     18  C   UNL A   1     -26.641   1.813  30.760  0.00  0.00    +0.038 A 
ATOM     19  C   UNL A   1     -26.380   2.919  31.227  0.00  0.00    +0.003 A 
ATOM     20  C   UNL A   1     -27.343   3.777  31.686  0.00  0.00    +0.000 A 
ATOM     21  C   UNL A   1     -28.698   3.276  31.588  0.00  0.00    +0.003 A 
ATOM     22  C   UNL A   1     -28.927   2.019  31.044  0.00  0.00    +0.038 A 
ENDBRANCH  16  17
ENDBRANCH  15  16
ENDBRANCH   7  15
ENDBRANCH   1  12
BRANCH   3  23
ATOM     23  C   UNL A   1     -25.886   1.154  25.372  0.00  0.00    +0.053 C 
BRANCH  23  24
ATOM     24  C   UNL A   1     -24.961   0.960  26.281  0.00  0.00    -0.018 A 
ATOM     25  C   UNL A   1     -25.027   0.418  27.383  0.00  0.00    -0.004 A 
ATOM     26  C   UNL A   1     -23.881  -0.025  28.177  0.00  0.00    -0.000 A 
ATOM     27  C   UNL A   1     -22.728   0.713  28.039  0.00  0.00    -0.000 A 
ATOM     28  C   UNL A   1     -22.594   1.605  26.907  0.00  0.00    -0.000 A 
ATOM     29  C   UNL A   1     -23.689   1.746  26.074  0.00  0.00    -0.004 A 
BRANCH  26  30
ATOM     30  C   UNL A   1     -23.973  -0.889  29.374  0.00  0.00    -0.000 A 
ATOM     31  C   UNL A   1     -24.267  -2.134  29.145  0.00  0.00    -0.000 A 
ATOM     32  C   UNL A   1     -23.570  -0.454  30.639  0.00  0.00    -0.000 A 
ATOM     33  C   UNL A   1     -23.858  -1.172  31.799  0.00  0.00    -0.000 A 
ATOM     34  C   UNL A   1     -24.688  -2.958  30.351  0.00  0.00    -0.000 A 
ATOM     35  C   UNL A   1     -24.364  -2.412  31.658  0.00  0.00    +0.000 A 
ENDBRANCH  26  30
ENDBRANCH  23  24
ENDBRANCH   3  23
TORSDOF 7
