MODEL 312
MODEL 1
REMARK VINA RESULT:    -7.367      0.000      0.000
REMARK INTER + INTRA:          -8.828
REMARK INTER:                  -8.228
REMARK INTRA:                  -0.599
REMARK UNBOUND:                -0.599
REMARK  Name = No_312-gen_results/8p0m/2024-11-26-14-13-15/
REMARK  2 active torsions:
REMARK  status: ('A' for Active; 'I' for Inactive)
REMARK    1  A    between atoms: C_2  and  C_13
REMARK    2  A    between atoms: C_4  and  C_6
REMARK                            x       y       z     vdW  Elec       q    Type
REMARK                         _______ _______ _______ _____ _____    ______ ____
ROOT
ATOM      1  C   UNL A   1     -22.361   0.089  28.599  0.00  0.00    +0.004 A 
ATOM      2  C   UNL A   1     -22.940   0.643  27.914  0.00  0.00    +0.071 A 
ATOM      3  C   UNL A   1     -23.003  -1.177  29.120  0.00  0.00    -0.000 A 
ATOM      4  C   UNL A   1     -24.231  -1.605  28.572  0.00  0.00    -0.000 A 
ATOM      5  C   UNL A   1     -24.200   0.409  27.172  0.00  0.00    +0.004 A 
ATOM      6  C   UNL A   1     -24.820  -0.786  27.612  0.00  0.00    -0.000 A 
ENDROOT
BRANCH   4   7
ATOM      7  C   UNL A   1     -24.883  -2.784  29.002  0.00  0.00    -0.000 A 
ATOM      8  C   UNL A   1     -24.558  -3.836  28.824  0.00  0.00    -0.000 A 
ATOM      9  C   UNL A   1     -25.244  -5.086  29.206  0.00  0.00    +0.000 A 
ATOM     10  C   UNL A   1     -26.431  -4.889  29.788  0.00  0.00    +0.000 A 
ATOM     11  C   UNL A   1     -26.162  -2.651  29.716  0.00  0.00    -0.000 A 
ATOM     12  C   UNL A   1     -26.916  -3.662  30.042  0.00  0.00    +0.000 A 
ENDBRANCH   4   7
BRANCH   2  13
ATOM     13  C   UNL A   1     -22.408   2.024  27.244  0.00  0.00    +0.419 C 
ATOM     14  F   UNL A   1     -21.345   2.317  27.609  0.00  0.00    -0.166 F 
ATOM     15  F   UNL A   1     -22.488   1.962  25.890  0.00  0.00    -0.166 F 
ATOM     16  F   UNL A   1     -23.288   2.932  27.654  0.00  0.00    -0.166 F 
ENDBRANCH   2  13
TORSDOF 2
ENDMDL
ENDMDL
