REMARK  Name = No_313-gen_results/8p0m/2024-11-26-14-13-15/
REMARK  0 active torsions:
REMARK  status: ('A' for Active; 'I' for Inactive)
REMARK                            x       y       z     vdW  Elec       q    Type
REMARK                         _______ _______ _______ _____ _____    ______ ____
ROOT
ATOM      1  O   UNL A   1     -28.123  -1.335  28.487  0.00  0.00    -0.273 OA
ATOM      2  C   UNL A   1     -27.481  -0.404  28.709  0.00  0.00    +0.246 C 
ATOM      3  N   UNL A   1     -26.460  -0.110  28.005  0.00  0.00    -0.179 NA
ATOM      4  C   UNL A   1     -25.430   0.879  28.357  0.00  0.00    +0.073 A 
ATOM      5  C   UNL A   1     -24.360   1.056  27.565  0.00  0.00    +0.058 A 
ATOM      6  C   UNL A   1     -27.953   0.713  29.712  0.00  0.00    +0.095 C 
ATOM      7  C   UNL A   1     -23.151   1.561  28.081  0.00  0.00    +0.197 A 
ATOM      8  C   UNL A   1     -23.160   1.822  29.523  0.00  0.00    +0.042 A 
ATOM      9  C   UNL A   1     -24.220   1.570  30.345  0.00  0.00    +0.001 A 
ATOM     10  C   UNL A   1     -25.346   0.951  29.757  0.00  0.00    -0.003 A 
ATOM     11  C   UNL A   1     -26.711   1.073  30.566  0.00  0.00    +0.048 C 
ATOM     12  O   UNL A   1     -22.077   1.961  27.440  0.00  0.00    -0.286 OA
ATOM     13  C   UNL A   1     -26.591   0.084  31.786  0.00  0.00    +0.013 C 
ATOM     14  C   UNL A   1     -26.903   2.500  31.117  0.00  0.00    -0.022 A 
ATOM     15  C   UNL A   1     -26.878   3.498  30.444  0.00  0.00    -0.004 A 
ATOM     16  C   UNL A   1     -26.697   4.764  30.953  0.00  0.00    -0.000 A 
ATOM     17  C   UNL A   1     -26.723   4.918  32.350  0.00  0.00    -0.000 A 
ATOM     18  C   UNL A   1     -26.679   3.805  33.195  0.00  0.00    -0.005 A 
ATOM     19  C   UNL A   1     -26.704   2.524  32.577  0.00  0.00    -0.026 A 
ATOM     20  C   UNL A   1     -26.583   1.230  33.208  0.00  0.00    +0.027 C 
ENDROOT
TORSDOF 0
