REMARK  Name = No_3130-gen_results/8p0m/2024-11-26-14-13-15/
REMARK  5 active torsions:
REMARK  status: ('A' for Active; 'I' for Inactive)
REMARK    1  A    between atoms: C_3  and  C_5
REMARK    2  A    between atoms: C_5  and  C_9
REMARK    3  A    between atoms: C_9  and  C_10
REMARK    4  A    between atoms: C_10  and  C_11
REMARK    5  A    between atoms: C_10  and  C_17
REMARK                            x       y       z     vdW  Elec       q    Type
REMARK                         _______ _______ _______ _____ _____    ______ ____
ROOT
ATOM      1  C   UNL A   1     -28.371   1.962  28.410  0.00  0.00    +0.044 C 
ENDROOT
BRANCH   1   2
ATOM      2  C   UNL A   1     -27.334   2.678  28.194  0.00  0.00    -0.018 A 
ATOM      3  C   UNL A   1     -26.815   3.106  26.868  0.00  0.00    -0.004 A 
ATOM      4  C   UNL A   1     -25.479   3.502  26.689  0.00  0.00    -0.000 A 
ATOM      5  C   UNL A   1     -24.605   3.634  27.783  0.00  0.00    -0.000 A 
ATOM      6  C   UNL A   1     -25.112   3.387  29.053  0.00  0.00    -0.000 A 
ATOM      7  C   UNL A   1     -26.330   2.877  29.227  0.00  0.00    -0.004 A 
ENDBRANCH   1   2
BRANCH   1   8
ATOM      8  C   UNL A   1     -29.291   1.795  27.253  0.00  0.00    -0.027 C 
ATOM      9  C   UNL A   1     -28.922   1.289  26.137  0.00  0.00    -0.030 C 
ATOM     10  C   UNL A   1     -29.689   1.331  24.986  0.00  0.00    +0.030 C 
ENDBRANCH   1   8
BRANCH   1  11
ATOM     11  C   UNL A   1     -28.688   1.530  29.613  0.00  0.00    +0.009 C 
BRANCH  11  12
ATOM     12  C   UNL A   1     -27.864   0.818  30.281  0.00  0.00    +0.010 C 
BRANCH  12  15
ATOM     13  O   UNL A   1     -28.123  -1.335  28.487  0.00  0.00    -0.273 OA
ATOM     14  C   UNL A   1     -27.064  -0.824  28.869  0.00  0.00    +0.241 C 
ATOM     15  C   UNL A   1     -26.959   0.093  29.758  0.00  0.00    +0.078 C 
ATOM     16  N   UNL A   1     -25.801  -1.357  28.397  0.00  0.00    -0.205 NA
ATOM     17  C   UNL A   1     -24.632  -1.020  28.827  0.00  0.00    +0.115 C 
ATOM     18  C   UNL A   1     -24.455   0.030  29.660  0.00  0.00    +0.024 C 
ATOM     19  C   UNL A   1     -25.547   0.616  30.173  0.00  0.00    +0.011 C 
ENDBRANCH  12  15
ENDBRANCH  11  12
ENDBRANCH   1  11
TORSDOF 5
