MODEL 3130
MODEL 1
REMARK VINA RESULT:    -6.880      0.000      0.000
REMARK INTER + INTRA:         -10.243
REMARK INTER:                  -8.891
REMARK INTRA:                  -1.352
REMARK UNBOUND:                -1.352
REMARK  Name = No_3130-gen_results/8p0m/2024-11-26-14-13-15/
REMARK  5 active torsions:
REMARK  status: ('A' for Active; 'I' for Inactive)
REMARK    1  A    between atoms: C_3  and  C_5
REMARK    2  A    between atoms: C_5  and  C_9
REMARK    3  A    between atoms: C_9  and  C_10
REMARK    4  A    between atoms: C_10  and  C_11
REMARK    5  A    between atoms: C_10  and  C_17
REMARK                            x       y       z     vdW  Elec       q    Type
REMARK                         _______ _______ _______ _____ _____    ______ ____
ROOT
ATOM      1  C   UNL A   1     -23.823  -1.459  30.101  0.00  0.00    +0.044 C 
ENDROOT
BRANCH   1   2
ATOM      2  C   UNL A   1     -24.454  -2.469  29.636  0.00  0.00    -0.018 A 
ATOM      3  C   UNL A   1     -25.819  -2.914  30.024  0.00  0.00    -0.004 A 
ATOM      4  C   UNL A   1     -26.257  -4.232  29.807  0.00  0.00    -0.000 A 
ATOM      5  C   UNL A   1     -25.468  -5.155  29.097  0.00  0.00    -0.000 A 
ATOM      6  C   UNL A   1     -24.251  -4.715  28.590  0.00  0.00    -0.000 A 
ATOM      7  C   UNL A   1     -23.760  -3.518  28.906  0.00  0.00    -0.004 A 
ENDBRANCH   1   2
BRANCH   1   8
ATOM      8  C   UNL A   1     -24.252  -0.995  31.448  0.00  0.00    -0.027 C 
ATOM      9  C   UNL A   1     -23.570  -1.212  32.509  0.00  0.00    -0.030 C 
ATOM     10  C   UNL A   1     -24.052  -0.993  33.787  0.00  0.00    +0.030 C 
ENDBRANCH   1   8
BRANCH   1  11
ATOM     11  C   UNL A   1     -22.960  -0.777  29.377  0.00  0.00    +0.009 C 
BRANCH  11  12
ATOM     12  C   UNL A   1     -23.112   0.480  29.207  0.00  0.00    +0.010 C 
BRANCH  12  15
ATOM     13  O   UNL A   1     -21.224   1.931  27.706  0.00  0.00    -0.273 OA
ATOM     14  C   UNL A   1     -22.362   1.614  27.341  0.00  0.00    +0.241 C 
ATOM     15  C   UNL A   1     -23.243   1.036  28.070  0.00  0.00    +0.078 C 
ATOM     16  N   UNL A   1     -22.832   2.020  26.031  0.00  0.00    -0.205 NA
ATOM     17  C   UNL A   1     -24.037   1.888  25.587  0.00  0.00    +0.115 C 
ATOM     18  C   UNL A   1     -24.967   1.169  26.255  0.00  0.00    +0.024 C 
ATOM     19  C   UNL A   1     -24.660   0.734  27.486  0.00  0.00    +0.011 C 
ENDBRANCH  12  15
ENDBRANCH  11  12
ENDBRANCH   1  11
TORSDOF 5
ENDMDL
ENDMDL
