REMARK  Name = No_3131-gen_results/8p0m/2024-11-26-14-13-15/
REMARK  2 active torsions:
REMARK  status: ('A' for Active; 'I' for Inactive)
REMARK    1  A    between atoms: C_3  and  C_7
REMARK    2  A    between atoms: C_7  and  C_8
REMARK                            x       y       z     vdW  Elec       q    Type
REMARK                         _______ _______ _______ _____ _____    ______ ____
ROOT
ATOM      1  C   UNL A   1     -27.460   0.380  26.709  0.00  0.00    +0.053 C 
ENDROOT
BRANCH   1   4
ATOM      2  C   UNL A   1     -28.016  -0.814  28.878  0.00  0.00    -0.004 A 
ATOM      3  C   UNL A   1     -28.469  -0.785  29.829  0.00  0.00    -0.000 A 
ATOM      4  C   UNL A   1     -28.196   0.348  28.055  0.00  0.00    -0.018 A 
ATOM      5  C   UNL A   1     -29.019   1.350  28.378  0.00  0.00    -0.004 A 
ATOM      6  C   UNL A   1     -29.411   0.180  30.378  0.00  0.00    -0.000 A 
ATOM      7  C   UNL A   1     -29.606   1.250  29.619  0.00  0.00    -0.000 A 
ENDBRANCH   1   4
BRANCH   1   8
ATOM      8  C   UNL A   1     -26.466   1.408  26.565  0.00  0.00    -0.018 A 
ATOM      9  C   UNL A   1     -25.242   1.067  26.070  0.00  0.00    -0.004 A 
ATOM     10  C   UNL A   1     -24.163   2.001  26.126  0.00  0.00    -0.000 A 
ATOM     11  C   UNL A   1     -24.438   3.264  26.696  0.00  0.00    -0.000 A 
ATOM     12  C   UNL A   1     -25.670   3.627  27.164  0.00  0.00    -0.000 A 
ATOM     13  C   UNL A   1     -26.688   2.645  27.184  0.00  0.00    -0.004 A 
ENDBRANCH   1   8
TORSDOF 2
