MODEL 3132
MODEL 1
REMARK VINA RESULT:    -5.420      0.000      0.000
REMARK INTER + INTRA:          -6.340
REMARK INTER:                  -6.053
REMARK INTRA:                  -0.287
REMARK UNBOUND:                -0.287
REMARK  Name = No_3132-gen_results/8p0m/2024-11-26-14-13-15/
REMARK  2 active torsions:
REMARK  status: ('A' for Active; 'I' for Inactive)
REMARK    1  A    between atoms: C_3  and  C_7
REMARK    2  A    between atoms: C_8  and  C_9
REMARK                            x       y       z     vdW  Elec       q    Type
REMARK                         _______ _______ _______ _____ _____    ______ ____
ROOT
ATOM      1  C   UNL A   1     -24.540  -0.250  27.742  0.00  0.00    +0.004 C 
ATOM      2  C   UNL A   1     -24.108   0.428  27.060  0.00  0.00    +0.000 C 
ATOM      3  C   UNL A   1     -23.561  -1.033  28.588  0.00  0.00    +0.022 C 
ATOM      4  C   UNL A   1     -22.580  -0.328  29.268  0.00  0.00    +0.004 C 
ATOM      5  C   UNL A   1     -23.168   1.581  27.563  0.00  0.00    +0.000 C 
ATOM      6  C   UNL A   1     -23.052   1.534  28.845  0.00  0.00    +0.000 C 
ENDROOT
BRANCH   3   7
ATOM      7  C   UNL A   1     -23.565  -2.409  28.958  0.00  0.00    -0.026 C 
ATOM      8  C   UNL A   1     -24.221  -3.375  28.339  0.00  0.00    -0.005 C 
BRANCH   8   9
ATOM      9  C   UNL A   1     -24.204  -4.710  28.742  0.00  0.00    -0.005 C 
ATOM     10  C   UNL A   1     -25.305  -5.246  29.447  0.00  0.00    -0.026 C 
ATOM     11  C   UNL A   1     -26.427  -4.452  29.657  0.00  0.00    +0.031 C 
ENDBRANCH   8   9
ENDBRANCH   3   7
TORSDOF 2
ENDMDL
ENDMDL
