REMARK  Name = No_3132-gen_results/8p0m/2024-11-26-14-13-15/
REMARK  2 active torsions:
REMARK  status: ('A' for Active; 'I' for Inactive)
REMARK    1  A    between atoms: C_3  and  C_7
REMARK    2  A    between atoms: C_8  and  C_9
REMARK                            x       y       z     vdW  Elec       q    Type
REMARK                         _______ _______ _______ _____ _____    ______ ____
ROOT
ATOM      1  C   UNL A   1     -28.016  -0.814  28.878  0.00  0.00    +0.004 C 
ATOM      2  C   UNL A   1     -28.469  -0.785  29.829  0.00  0.00    +0.000 C 
ATOM      3  C   UNL A   1     -26.504  -0.778  28.877  0.00  0.00    +0.022 C 
ATOM      4  C   UNL A   1     -25.831  -1.681  29.685  0.00  0.00    +0.004 C 
ATOM      5  C   UNL A   1     -28.149  -1.885  30.903  0.00  0.00    +0.000 C 
ATOM      6  C   UNL A   1     -27.312  -2.741  30.428  0.00  0.00    +0.000 C 
ENDROOT
BRANCH   3   7
ATOM      7  C   UNL A   1     -25.605  -0.061  28.035  0.00  0.00    -0.026 C 
ATOM      8  C   UNL A   1     -25.936   0.627  26.957  0.00  0.00    -0.005 C 
BRANCH   8   9
ATOM      9  C   UNL A   1     -25.020   1.308  26.156  0.00  0.00    -0.005 C 
ATOM     10  C   UNL A   1     -23.685   1.465  26.592  0.00  0.00    -0.026 C 
ATOM     11  C   UNL A   1     -23.285   0.865  27.780  0.00  0.00    +0.031 C 
ENDBRANCH   8   9
ENDBRANCH   3   7
TORSDOF 2
