REMARK  Name = No_3133-gen_results/8p0m/2024-11-26-14-13-15/
REMARK  2 active torsions:
REMARK  status: ('A' for Active; 'I' for Inactive)
REMARK    1  A    between atoms: C_2  and  C_12
REMARK    2  A    between atoms: C_4  and  C_6
REMARK                            x       y       z     vdW  Elec       q    Type
REMARK                         _______ _______ _______ _____ _____    ______ ____
ROOT
ATOM      1  C   UNL A   1     -28.016  -0.814  28.878  0.00  0.00    +0.007 A 
ATOM      2  C   UNL A   1     -28.469  -0.785  29.829  0.00  0.00    +0.080 A 
ATOM      3  C   UNL A   1     -26.546  -0.876  28.850  0.00  0.00    +0.000 A 
ATOM      4  C   UNL A   1     -25.804  -1.032  30.057  0.00  0.00    -0.000 A 
ATOM      5  C   UNL A   1     -27.944  -0.987  31.207  0.00  0.00    +0.007 A 
ATOM      6  C   UNL A   1     -26.561  -1.075  31.227  0.00  0.00    +0.000 A 
ENDROOT
BRANCH   4   7
ATOM      7  C   UNL A   1     -24.401  -1.097  30.096  0.00  0.00    -0.004 C 
ATOM      8  C   UNL A   1     -23.640  -1.094  29.057  0.00  0.00    -0.021 C 
ATOM      9  C   UNL A   1     -22.183  -0.947  29.118  0.00  0.00    +0.052 C 
ATOM     10  C   UNL A   1     -23.629  -0.116  30.929  0.00  0.00    -0.004 C 
ATOM     11  C   UNL A   1     -22.016  -0.159  30.207  0.00  0.00    -0.021 C 
ENDBRANCH   4   7
BRANCH   2  12
ATOM     12  C   UNL A   1     -30.085  -0.670  29.887  0.00  0.00    +0.388 C 
ATOM     13  O   UNL A   1     -30.610   0.240  30.597  0.00  0.00    -0.241 OA
ATOM     14  O   UNL A   1     -30.735  -1.644  29.455  0.00  0.00    -0.241 OA
ENDBRANCH   2  12
TORSDOF 2
