MODEL 3134
MODEL 1
REMARK VINA RESULT:    -6.602      0.000      0.000
REMARK INTER + INTRA:          -7.413
REMARK INTER:                  -6.988
REMARK INTRA:                  -0.424
REMARK UNBOUND:                -0.424
REMARK  Name = No_3134-gen_results/8p0m/2024-11-26-14-13-15/
REMARK  1 active torsions:
REMARK  status: ('A' for Active; 'I' for Inactive)
REMARK    1  A    between atoms: C_3  and  C_7
REMARK                            x       y       z     vdW  Elec       q    Type
REMARK                         _______ _______ _______ _____ _____    ______ ____
ROOT
ATOM      1  C   UNL A   1     -24.274  -4.978  28.590  0.00  0.00    +0.000 A 
ATOM      2  C   UNL A   1     -23.854  -3.845  28.565  0.00  0.00    +0.002 A 
ATOM      3  C   UNL A   1     -24.538  -2.731  29.023  0.00  0.00    +0.028 A 
ATOM      4  C   UNL A   1     -25.827  -2.951  29.594  0.00  0.00    +0.140 A 
ATOM      5  C   UNL A   1     -26.201  -4.230  29.754  0.00  0.00    +0.030 A 
ATOM      6  C   UNL A   1     -25.469  -5.221  29.331  0.00  0.00    +0.002 A 
ATOM      7  F   UNL A   1     -26.480  -1.892  29.984  0.00  0.00    -0.204 F 
ENDROOT
BRANCH   3   8
ATOM      8  C   UNL A   1     -23.907  -1.410  28.682  0.00  0.00    +0.002 A 
ATOM      9  C   UNL A   1     -22.688  -1.128  29.182  0.00  0.00    +0.000 A 
ATOM     10  C   UNL A   1     -22.074   0.162  28.839  0.00  0.00    +0.000 A 
ATOM     11  C   UNL A   1     -22.790   1.002  27.954  0.00  0.00    +0.000 A 
ATOM     12  C   UNL A   1     -24.473  -0.480  27.781  0.00  0.00    +0.000 A 
ATOM     13  C   UNL A   1     -23.937   0.686  27.450  0.00  0.00    +0.000 A 
ENDBRANCH   3   8
TORSDOF 1
ENDMDL
ENDMDL
