REMARK  Name = No_3135-gen_results/8p0m/2024-11-26-14-13-15/
REMARK  3 active torsions:
REMARK  status: ('A' for Active; 'I' for Inactive)
REMARK    1  A    between atoms: C_3  and  C_4
REMARK    2  A    between atoms: C_5  and  C_6
REMARK    3  A    between atoms: C_10  and  C_11
REMARK                            x       y       z     vdW  Elec       q    Type
REMARK                         _______ _______ _______ _____ _____    ______ ____
ROOT
ATOM      1  C   UNL A   1     -28.016  -0.814  28.878  0.00  0.00    -0.000 A 
ATOM      2  C   UNL A   1     -28.469  -0.785  29.829  0.00  0.00    -0.000 A 
ATOM      3  C   UNL A   1     -26.504  -0.778  28.877  0.00  0.00    -0.001 A 
ATOM      4  C   UNL A   1     -27.978  -1.483  31.082  0.00  0.00    -0.000 A 
ATOM      5  C   UNL A   1     -26.587  -1.642  31.060  0.00  0.00    -0.002 A 
ATOM      6  C   UNL A   1     -25.843  -1.267  30.037  0.00  0.00    +0.013 A 
ENDROOT
BRANCH   3   7
ATOM      7  C   UNL A   1     -25.762  -0.002  27.971  0.00  0.00    -0.000 C 
ATOM      8  C   UNL A   1     -24.391   0.120  28.138  0.00  0.00    -0.000 C 
BRANCH   8   9
ATOM      9  C   UNL A   1     -23.712  -0.720  29.086  0.00  0.00    -0.000 C 
ATOM     10  C   UNL A   1     -22.295  -0.581  29.269  0.00  0.00    -0.000 C 
ENDBRANCH   8   9
ENDBRANCH   3   7
BRANCH   6  11
ATOM     11  C   UNL A   1     -24.407  -1.236  30.094  0.00  0.00    +0.220 C 
ATOM     12  F   UNL A   1     -23.838  -1.891  31.049  0.00  0.00    -0.229 F 
ENDBRANCH   6  11
TORSDOF 3
