MODEL 3135
MODEL 1
REMARK VINA RESULT:    -5.042      0.000      0.000
REMARK INTER + INTRA:          -6.538
REMARK INTER:                  -5.926
REMARK INTRA:                  -0.612
REMARK UNBOUND:                -0.612
REMARK  Name = No_3135-gen_results/8p0m/2024-11-26-14-13-15/
REMARK  3 active torsions:
REMARK  status: ('A' for Active; 'I' for Inactive)
REMARK    1  A    between atoms: C_3  and  C_4
REMARK    2  A    between atoms: C_5  and  C_6
REMARK    3  A    between atoms: C_10  and  C_11
REMARK                            x       y       z     vdW  Elec       q    Type
REMARK                         _______ _______ _______ _____ _____    ______ ____
ROOT
ATOM      1  C   UNL A   1     -23.791  -3.738  28.663  0.00  0.00    -0.000 A 
ATOM      2  C   UNL A   1     -24.286  -4.660  28.538  0.00  0.00    -0.000 A 
ATOM      3  C   UNL A   1     -24.683  -2.561  28.988  0.00  0.00    -0.001 A 
ATOM      4  C   UNL A   1     -25.464  -5.167  29.347  0.00  0.00    -0.000 A 
ATOM      5  C   UNL A   1     -26.238  -4.106  29.832  0.00  0.00    -0.002 A 
ATOM      6  C   UNL A   1     -25.918  -2.841  29.634  0.00  0.00    +0.013 A 
ENDROOT
BRANCH   3   7
ATOM      7  C   UNL A   1     -24.516  -1.296  28.400  0.00  0.00    -0.000 C 
ATOM      8  C   UNL A   1     -23.678  -0.368  29.000  0.00  0.00    -0.000 C 
BRANCH   8   9
ATOM      9  C   UNL A   1     -22.818  -0.777  30.076  0.00  0.00    -0.000 C 
ATOM     10  C   UNL A   1     -23.174  -0.457  31.429  0.00  0.00    -0.000 C 
ENDBRANCH   8   9
ENDBRANCH   3   7
BRANCH   6  11
ATOM     11  C   UNL A   1     -26.810  -1.759  29.946  0.00  0.00    +0.220 C 
ATOM     12  F   UNL A   1     -26.564  -1.077  31.013  0.00  0.00    -0.229 F 
ENDBRANCH   6  11
TORSDOF 3
ENDMDL
ENDMDL
