MODEL 3136
MODEL 1
REMARK VINA RESULT:    -7.959      0.000      0.000
REMARK INTER + INTRA:         -10.142
REMARK INTER:                  -9.355
REMARK INTRA:                  -0.787
REMARK UNBOUND:                -0.787
REMARK  Name = No_3136-gen_results/8p0m/2024-11-26-14-13-15/
REMARK  3 active torsions:
REMARK  status: ('A' for Active; 'I' for Inactive)
REMARK    1  A    between atoms: C_2  and  C_7
REMARK    2  A    between atoms: C_3  and  C_15
REMARK    3  A    between atoms: C_15  and  C_16
REMARK                            x       y       z     vdW  Elec       q    Type
REMARK                         _______ _______ _______ _____ _____    ______ ____
ROOT
ATOM      1  C   UNL A   1     -23.561   0.958  28.717  0.00  0.00    +0.001 A 
ATOM      2  C   UNL A   1     -23.208   1.540  27.912  0.00  0.00    +0.053 A 
ATOM      3  C   UNL A   1     -22.574  -0.041  29.279  0.00  0.00    -0.018 A 
ATOM      4  C   UNL A   1     -21.243  -0.037  28.810  0.00  0.00    -0.004 A 
ATOM      5  C   UNL A   1     -21.892   1.761  27.271  0.00  0.00    +0.004 A 
ATOM      6  C   UNL A   1     -20.956   0.863  27.767  0.00  0.00    -0.000 A 
ENDROOT
BRANCH   2   7
ATOM      7  C   UNL A   1     -24.230   2.619  27.304  0.00  0.00    +0.249 C 
ATOM      8  O   UNL A   1     -24.393   3.631  27.664  0.00  0.00    -0.270 OA
ATOM      9  N   UNL A   1     -25.013   2.043  26.299  0.00  0.00    -0.276 N 
ATOM     10  C   UNL A   1     -26.078   2.806  25.748  0.00  0.00    +0.095 C 
ATOM     11  C   UNL A   1     -24.817   0.707  25.753  0.00  0.00    +0.095 C 
ATOM     12  C   UNL A   1     -25.552   0.039  25.412  0.00  0.00    +0.038 C 
ATOM     13  C   UNL A   1     -27.113   1.929  25.194  0.00  0.00    +0.038 C 
ATOM     14  C   UNL A   1     -26.815   0.580  24.853  0.00  0.00    +0.083 C 
ATOM     15 CL   UNL A   1     -28.015  -0.326  24.086  0.00  0.00    -0.115 Cl
ENDBRANCH   2   7
BRANCH   3  16
ATOM     16  C   UNL A   1     -22.883  -1.048  30.318  0.00  0.00    +0.053 C 
BRANCH  16  17
ATOM     17  C   UNL A   1     -23.894  -2.038  29.915  0.00  0.00    -0.018 A 
ATOM     18  C   UNL A   1     -23.854  -2.960  29.195  0.00  0.00    -0.004 A 
ATOM     19  C   UNL A   1     -24.887  -3.826  28.900  0.00  0.00    -0.000 A 
ATOM     20  C   UNL A   1     -26.144  -3.598  29.565  0.00  0.00    -0.000 A 
ATOM     21  C   UNL A   1     -25.235  -1.878  30.595  0.00  0.00    -0.004 A 
ATOM     22  C   UNL A   1     -26.259  -2.628  30.362  0.00  0.00    -0.000 A 
ENDBRANCH  16  17
ENDBRANCH   3  16
TORSDOF 3
ENDMDL
ENDMDL
