REMARK  Name = No_3136-gen_results/8p0m/2024-11-26-14-13-15/
REMARK  3 active torsions:
REMARK  status: ('A' for Active; 'I' for Inactive)
REMARK    1  A    between atoms: C_2  and  C_7
REMARK    2  A    between atoms: C_3  and  C_15
REMARK    3  A    between atoms: C_15  and  C_16
REMARK                            x       y       z     vdW  Elec       q    Type
REMARK                         _______ _______ _______ _____ _____    ______ ____
ROOT
ATOM      1  C   UNL A   1     -28.016  -0.814  28.878  0.00  0.00    +0.001 A 
ATOM      2  C   UNL A   1     -28.469  -0.785  29.829  0.00  0.00    +0.053 A 
ATOM      3  C   UNL A   1     -26.504  -0.778  28.877  0.00  0.00    -0.018 A 
ATOM      4  C   UNL A   1     -25.810  -0.853  30.103  0.00  0.00    -0.004 A 
ATOM      5  C   UNL A   1     -27.991  -0.892  31.226  0.00  0.00    +0.004 A 
ATOM      6  C   UNL A   1     -26.604  -0.868  31.265  0.00  0.00    -0.000 A 
ENDROOT
BRANCH   2   7
ATOM      7  C   UNL A   1     -30.074  -0.836  29.861  0.00  0.00    +0.249 C 
ATOM      8  O   UNL A   1     -30.689  -1.655  30.223  0.00  0.00    -0.270 OA
ATOM      9  N   UNL A   1     -30.614   0.285  29.223  0.00  0.00    -0.276 N 
ATOM     10  C   UNL A   1     -32.020   0.338  29.021  0.00  0.00    +0.095 C 
ATOM     11  C   UNL A   1     -29.843   1.426  28.750  0.00  0.00    +0.095 C 
ATOM     12  C   UNL A   1     -30.027   2.017  27.902  0.00  0.00    +0.038 C 
ATOM     13  C   UNL A   1     -32.349   1.203  27.885  0.00  0.00    +0.038 C 
ATOM     14  C   UNL A   1     -31.422   2.178  27.422  0.00  0.00    +0.083 C 
ATOM     15 CL   UNL A   1     -31.925   3.235  26.207  0.00  0.00    -0.115 Cl
ENDBRANCH   2   7
BRANCH   3  16
ATOM     16  C   UNL A   1     -25.657  -0.680  27.668  0.00  0.00    +0.053 C 
BRANCH  16  17
ATOM     17  C   UNL A   1     -25.240   0.691  27.334  0.00  0.00    -0.018 A 
ATOM     18  C   UNL A   1     -25.734   1.735  27.522  0.00  0.00    -0.004 A 
ATOM     19  C   UNL A   1     -25.232   2.967  27.156  0.00  0.00    -0.000 A 
ATOM     20  C   UNL A   1     -23.951   2.984  26.498  0.00  0.00    -0.000 A 
ATOM     21  C   UNL A   1     -23.888   0.790  26.664  0.00  0.00    -0.004 A 
ATOM     22  C   UNL A   1     -23.354   1.897  26.270  0.00  0.00    -0.000 A 
ENDBRANCH  16  17
ENDBRANCH   3  16
TORSDOF 3
