MODEL 3138
MODEL 1
REMARK VINA RESULT:    -7.791      0.000      0.000
REMARK INTER + INTRA:         -11.872
REMARK INTER:                 -10.524
REMARK INTRA:                  -1.348
REMARK UNBOUND:                -1.348
REMARK  Name = No_3138-gen_results/8p0m/2024-11-26-14-13-15/
REMARK  6 active torsions:
REMARK  status: ('A' for Active; 'I' for Inactive)
REMARK    1  A    between atoms: C_1  and  C_2
REMARK    2  A    between atoms: C_1  and  N_8
REMARK    3  A    between atoms: C_3  and  C_18
REMARK    4  A    between atoms: C_5  and  C_10
REMARK    5  A    between atoms: N_8  and  C_9
REMARK    6  A    between atoms: N_8  and  C_20
REMARK                            x       y       z     vdW  Elec       q    Type
REMARK                         _______ _______ _______ _____ _____    ______ ____
ROOT
ATOM      1  C   UNL A   1     -22.936  -0.048  30.547  0.00  0.00    +0.122 C 
ENDROOT
BRANCH   1   2
ATOM      2  C   UNL A   1     -23.603  -0.131  31.552  0.00  0.00    +0.004 A 
ATOM      3  C   UNL A   1     -24.592   0.762  31.929  0.00  0.00    +0.078 A 
ATOM      4  C   UNL A   1     -25.346   0.733  33.160  0.00  0.00    +0.013 A 
ATOM      5  C   UNL A   1     -25.080  -0.298  34.091  0.00  0.00    +0.080 A 
ATOM      6  C   UNL A   1     -24.036  -1.222  33.742  0.00  0.00    +0.006 A 
ATOM      7  C   UNL A   1     -23.315  -1.160  32.582  0.00  0.00    -0.002 A 
BRANCH   5   8
ATOM      8  C   UNL A   1     -25.774  -0.422  35.334  0.00  0.00    +0.388 C 
ATOM      9  O   UNL A   1     -26.606   0.116  35.607  0.00  0.00    -0.241 OA
ATOM     10  O   UNL A   1     -25.334  -1.531  36.025  0.00  0.00    -0.241 OA
ENDBRANCH   5   8
BRANCH   3  11
ATOM     11  C   UNL A   1     -24.899   1.847  31.014  0.00  0.00    +0.388 C 
ATOM     12  O   UNL A   1     -24.402   3.034  31.312  0.00  0.00    -0.241 OA
ATOM     13  O   UNL A   1     -25.898   1.856  30.312  0.00  0.00    -0.241 OA
ENDBRANCH   3  11
ENDBRANCH   1   2
BRANCH   1  14
ATOM     14  N   UNL A   1     -23.389  -0.506  29.382  0.00  0.00    -0.282 N 
BRANCH  14  15
ATOM     15  C   UNL A   1     -23.387   0.231  28.174  0.00  0.00    +0.052 A 
ATOM     16  C   UNL A   1     -24.419   0.245  27.297  0.00  0.00    +0.015 A 
ATOM     17  C   UNL A   1     -24.586   0.964  26.333  0.00  0.00    +0.001 A 
ATOM     18  C   UNL A   1     -23.474   1.848  25.997  0.00  0.00    +0.000 A 
ATOM     19  C   UNL A   1     -22.373   1.912  26.783  0.00  0.00    +0.001 A 
ATOM     20  C   UNL A   1     -22.309   1.072  27.885  0.00  0.00    +0.015 A 
ENDBRANCH  14  15
BRANCH  14  21
ATOM     21  C   UNL A   1     -24.038  -1.844  29.320  0.00  0.00    +0.052 A 
ATOM     22  C   UNL A   1     -23.646  -2.849  28.841  0.00  0.00    +0.015 A 
ATOM     23  C   UNL A   1     -24.226  -4.103  29.055  0.00  0.00    +0.001 A 
ATOM     24  C   UNL A   1     -25.501  -1.910  29.606  0.00  0.00    +0.015 A 
ATOM     25  C   UNL A   1     -26.227  -3.035  29.719  0.00  0.00    +0.001 A 
ATOM     26  C   UNL A   1     -25.573  -4.232  29.405  0.00  0.00    +0.000 A 
ENDBRANCH  14  21
ENDBRANCH   1  14
TORSDOF 6
ENDMDL
ENDMDL
