REMARK  Name = No_3138-gen_results/8p0m/2024-11-26-14-13-15/
REMARK  6 active torsions:
REMARK  status: ('A' for Active; 'I' for Inactive)
REMARK    1  A    between atoms: C_1  and  C_2
REMARK    2  A    between atoms: C_1  and  N_8
REMARK    3  A    between atoms: C_3  and  C_18
REMARK    4  A    between atoms: C_5  and  C_10
REMARK    5  A    between atoms: N_8  and  C_9
REMARK    6  A    between atoms: N_8  and  C_20
REMARK                            x       y       z     vdW  Elec       q    Type
REMARK                         _______ _______ _______ _____ _____    ______ ____
ROOT
ATOM      1  C   UNL A   1     -28.016  -0.814  28.878  0.00  0.00    +0.122 C 
ENDROOT
BRANCH   1   2
ATOM      2  C   UNL A   1     -27.064  -0.119  28.608  0.00  0.00    +0.004 A 
ATOM      3  C   UNL A   1     -26.972   0.714  27.506  0.00  0.00    +0.078 A 
ATOM      4  C   UNL A   1     -25.820   1.491  27.116  0.00  0.00    +0.013 A 
ATOM      5  C   UNL A   1     -24.656   1.424  27.918  0.00  0.00    +0.080 A 
ATOM      6  C   UNL A   1     -24.711   0.542  29.051  0.00  0.00    +0.006 A 
ATOM      7  C   UNL A   1     -25.804  -0.206  29.388  0.00  0.00    -0.002 A 
BRANCH   5   8
ATOM      8  C   UNL A   1     -23.466   2.158  27.625  0.00  0.00    +0.388 C 
ATOM      9  O   UNL A   1     -22.625   1.773  27.177  0.00  0.00    -0.241 OA
ATOM     10  O   UNL A   1     -23.677   3.510  27.795  0.00  0.00    -0.241 OA
ENDBRANCH   5   8
BRANCH   3  11
ATOM     11  C   UNL A   1     -28.135   0.813  26.642  0.00  0.00    +0.388 C 
ATOM     12  O   UNL A   1     -28.395   2.002  26.130  0.00  0.00    -0.241 OA
ATOM     13  O   UNL A   1     -29.091   0.058  26.732  0.00  0.00    -0.241 OA
ENDBRANCH   3  11
ENDBRANCH   1   2
BRANCH   1  14
ATOM     14  N   UNL A   1     -28.723  -0.611  29.988  0.00  0.00    -0.282 N 
BRANCH  14  15
ATOM     15  C   UNL A   1     -29.813  -1.411  30.403  0.00  0.00    +0.052 A 
ATOM     16  C   UNL A   1     -30.616  -1.109  31.451  0.00  0.00    +0.015 A 
ATOM     17  C   UNL A   1     -31.663  -1.628  31.780  0.00  0.00    +0.001 A 
ATOM     18  C   UNL A   1     -32.050  -2.815  31.025  0.00  0.00    +0.000 A 
ATOM     19  C   UNL A   1     -31.319  -3.236  29.965  0.00  0.00    +0.001 A 
ATOM     20  C   UNL A   1     -30.161  -2.539  29.654  0.00  0.00    +0.015 A 
ENDBRANCH  14  15
BRANCH  14  21
ATOM     21  C   UNL A   1     -28.444   0.585  30.829  0.00  0.00    +0.052 A 
ATOM     22  C   UNL A   1     -27.997   0.650  31.920  0.00  0.00    +0.015 A 
ATOM     23  C   UNL A   1     -27.548   1.831  32.518  0.00  0.00    +0.001 A 
ATOM     24  C   UNL A   1     -29.076   1.873  30.421  0.00  0.00    +0.015 A 
ATOM     25  C   UNL A   1     -28.841   3.073  30.979  0.00  0.00    +0.001 A 
ATOM     26  C   UNL A   1     -28.040   3.079  32.126  0.00  0.00    +0.000 A 
ENDBRANCH  14  21
ENDBRANCH   1  14
TORSDOF 6
