REMARK  Name = No_3139-gen_results/8p0m/2024-11-26-14-13-15/
REMARK  2 active torsions:
REMARK  status: ('A' for Active; 'I' for Inactive)
REMARK    1  A    between atoms: C_3  and  C_4
REMARK    2  A    between atoms: C_16  and  C_18
REMARK                            x       y       z     vdW  Elec       q    Type
REMARK                         _______ _______ _______ _____ _____    ______ ____
ROOT
ATOM      1  C   UNL A   1     -24.546   0.349  28.823  0.00  0.00    +0.001 A 
ATOM      2  C   UNL A   1     -23.241   0.022  29.332  0.00  0.00    -0.000 A 
ATOM      3  C   UNL A   1     -22.159   0.787  28.951  0.00  0.00    +0.003 A 
ATOM      4  C   UNL A   1     -22.131   1.744  27.982  0.00  0.00    +0.037 A 
ATOM      5  C   UNL A   1     -24.517   1.371  27.793  0.00  0.00    +0.032 A 
ATOM      6  C   UNL A   1     -23.338   2.035  27.427  0.00  0.00    +0.136 A 
ATOM      7  O   UNL A   1     -23.460   2.982  26.470  0.00  0.00    -0.474 OA
ATOM      8  C   UNL A   1     -24.726   2.904  25.813  0.00  0.00    +0.229 C 
ATOM      9  C   UNL A   1     -25.553   1.750  26.916  0.00  0.00    +0.147 C 
ATOM     10 CL   UNL A   1     -26.715   2.660  27.754  0.00  0.00    -0.103 Cl
ENDROOT
BRANCH   1  13
ATOM     11  C   UNL A   1     -28.016  -0.814  28.878  0.00  0.00    +0.011 A 
ATOM     12  C   UNL A   1     -27.064  -0.119  28.608  0.00  0.00    +0.001 A 
ATOM     13  C   UNL A   1     -25.792  -0.430  29.076  0.00  0.00    -0.000 A 
ATOM     14  C   UNL A   1     -27.882  -1.899  29.863  0.00  0.00    +0.058 A 
ATOM     15  C   UNL A   1     -26.653  -2.314  30.314  0.00  0.00    +0.011 A 
ATOM     16  C   UNL A   1     -25.515  -1.561  29.979  0.00  0.00    +0.001 A 
ATOM     17 CL   UNL A   1     -29.239  -2.848  30.341  0.00  0.00    -0.082 Cl
ENDBRANCH   1  13
BRANCH   9  18
ATOM     18  C   UNL A   1     -25.994   0.717  26.013  0.00  0.00    -0.009 C 
ATOM     19  C   UNL A   1     -27.235   0.944  25.351  0.00  0.00    -0.029 C 
ATOM     20  C   UNL A   1     -28.035   2.008  25.617  0.00  0.00    +0.030 C 
ENDBRANCH   9  18
TORSDOF 2
