MODEL 313
MODEL 1
REMARK VINA RESULT:    -7.515      0.000      0.000
REMARK INTER + INTRA:          -7.515
REMARK INTER:                  -7.515
REMARK INTRA:                   0.000
REMARK UNBOUND:                 0.000
REMARK  Name = No_313-gen_results/8p0m/2024-11-26-14-13-15/
REMARK  0 active torsions:
REMARK  status: ('A' for Active; 'I' for Inactive)
REMARK                            x       y       z     vdW  Elec       q    Type
REMARK                         _______ _______ _______ _____ _____    ______ ____
ROOT
ATOM      1  O   UNL A   1      -7.607   0.750  34.185  0.00  0.00    -0.273 OA
ATOM      2  C   UNL A   1      -8.605   0.593  34.741  0.00  0.00    +0.246 C 
ATOM      3  N   UNL A   1      -9.694   1.104  34.322  0.00  0.00    -0.179 NA
ATOM      4  C   UNL A   1     -10.949   1.197  35.083  0.00  0.00    +0.073 A 
ATOM      5  C   UNL A   1     -12.017   1.820  34.559  0.00  0.00    +0.058 A 
ATOM      6  C   UNL A   1      -8.758  -0.468  35.893  0.00  0.00    +0.095 C 
ATOM      7  C   UNL A   1     -13.008   2.380  35.387  0.00  0.00    +0.197 A 
ATOM      8  C   UNL A   1     -12.748   2.262  36.825  0.00  0.00    +0.042 A 
ATOM      9  C   UNL A   1     -11.626   1.698  37.360  0.00  0.00    +0.001 A 
ATOM     10  C   UNL A   1     -10.632   1.273  36.449  0.00  0.00    -0.003 A 
ATOM     11  C   UNL A   1      -9.570   0.231  37.013  0.00  0.00    +0.048 C 
ATOM     12  O   UNL A   1     -14.187   2.861  35.064  0.00  0.00    -0.286 OA
ATOM     13  C   UNL A   1      -8.603   1.049  37.949  0.00  0.00    +0.013 C 
ATOM     14  C   UNL A   1     -10.257  -0.858  37.861  0.00  0.00    -0.022 A 
ATOM     15  C   UNL A   1     -11.161  -1.552  37.473  0.00  0.00    -0.004 A 
ATOM     16  C   UNL A   1     -11.997  -2.261  38.306  0.00  0.00    -0.000 A 
ATOM     17  C   UNL A   1     -11.665  -2.321  39.670  0.00  0.00    -0.000 A 
ATOM     18  C   UNL A   1     -10.676  -1.491  40.205  0.00  0.00    -0.005 A 
ATOM     19  C   UNL A   1      -9.965  -0.663  39.292  0.00  0.00    -0.026 A 
ATOM     20  C   UNL A   1      -8.967   0.338  39.591  0.00  0.00    +0.027 C 
ENDROOT
TORSDOF 0
ENDMDL
ENDMDL
