REMARK  Name = No_3140-gen_results/8p0m/2024-11-26-14-13-15/
REMARK  0 active torsions:
REMARK  status: ('A' for Active; 'I' for Inactive)
REMARK                            x       y       z     vdW  Elec       q    Type
REMARK                         _______ _______ _______ _____ _____    ______ ____
ROOT
ATOM      1  F   UNL A   1     -28.073  -1.254  28.532  0.00  0.00    -0.199 F 
ATOM      2  C   UNL A   1     -27.061  -0.629  28.872  0.00  0.00    +0.199 A 
ATOM      3  C   UNL A   1     -26.153  -1.156  29.454  0.00  0.00    +0.199 A 
ATOM      4  C   UNL A   1     -24.878  -0.579  29.864  0.00  0.00    +0.199 A 
ATOM      5  C   UNL A   1     -24.743   0.827  29.481  0.00  0.00    +0.199 A 
ATOM      6  C   UNL A   1     -25.788   1.393  28.763  0.00  0.00    +0.199 A 
ATOM      7  C   UNL A   1     -26.915   0.731  28.443  0.00  0.00    +0.199 A 
ATOM      8  F   UNL A   1     -23.696   1.487  29.833  0.00  0.00    -0.199 F 
ATOM      9  F   UNL A   1     -27.853   1.307  27.728  0.00  0.00    -0.199 F 
ATOM     10  F   UNL A   1     -26.163  -2.461  29.918  0.00  0.00    -0.199 F 
ATOM     11  F   UNL A   1     -25.598   2.719  28.413  0.00  0.00    -0.199 F 
ATOM     12  F   UNL A   1     -23.917  -1.145  30.594  0.00  0.00    -0.199 F 
ENDROOT
TORSDOF 0
