MODEL 3140
MODEL 1
REMARK VINA RESULT:    -5.050      0.000      0.000
REMARK INTER + INTRA:          -5.050
REMARK INTER:                  -5.050
REMARK INTRA:                   0.000
REMARK UNBOUND:                 0.000
REMARK  Name = No_3140-gen_results/8p0m/2024-11-26-14-13-15/
REMARK  0 active torsions:
REMARK  status: ('A' for Active; 'I' for Inactive)
REMARK                            x       y       z     vdW  Elec       q    Type
REMARK                         _______ _______ _______ _____ _____    ______ ____
ROOT
ATOM      1  F   UNL A   1     -11.378 -20.240  16.256  0.00  0.00    -0.199 F 
ATOM      2  C   UNL A   1     -12.016 -20.389  17.305  0.00  0.00    +0.199 A 
ATOM      3  C   UNL A   1     -11.711 -21.213  18.123  0.00  0.00    +0.199 A 
ATOM      4  C   UNL A   1     -12.315 -21.469  19.425  0.00  0.00    +0.199 A 
ATOM      5  C   UNL A   1     -13.429 -20.567  19.721  0.00  0.00    +0.199 A 
ATOM      6  C   UNL A   1     -13.723 -19.592  18.778  0.00  0.00    +0.199 A 
ATOM      7  C   UNL A   1     -13.068 -19.465  17.609  0.00  0.00    +0.199 A 
ATOM      8  F   UNL A   1     -14.101 -20.717  20.808  0.00  0.00    -0.199 F 
ATOM      9  F   UNL A   1     -13.366 -18.498  16.773  0.00  0.00    -0.199 F 
ATOM     10  F   UNL A   1     -10.713 -22.160  17.958  0.00  0.00    -0.199 F 
ATOM     11  F   UNL A   1     -14.774 -18.757  19.118  0.00  0.00    -0.199 F 
ATOM     12  F   UNL A   1     -12.031 -22.449  20.284  0.00  0.00    -0.199 F 
ENDROOT
TORSDOF 0
ENDMDL
ENDMDL
