MODEL 3141
MODEL 1
REMARK VINA RESULT:    -7.895      0.000      0.000
REMARK INTER + INTRA:         -10.678
REMARK INTER:                  -9.741
REMARK INTRA:                  -0.937
REMARK UNBOUND:                -0.937
REMARK  Name = No_3141-gen_results/8p0m/2024-11-26-14-13-15/
REMARK  4 active torsions:
REMARK  status: ('A' for Active; 'I' for Inactive)
REMARK    1  A    between atoms: C_2  and  C_4
REMARK    2  A    between atoms: C_4  and  C_6
REMARK    3  A    between atoms: C_4  and  C_12
REMARK    4  A    between atoms: C_13  and  C_14
REMARK                            x       y       z     vdW  Elec       q    Type
REMARK                         _______ _______ _______ _____ _____    ______ ____
ROOT
ATOM      1  C   UNL A   1     -23.363   0.504  27.745  0.00  0.00    -0.014 C 
ATOM      2  C   UNL A   1     -23.738  -0.269  28.785  0.00  0.00    +0.013 C 
ENDROOT
BRANCH   2   3
ATOM      3  C   UNL A   1     -25.030  -0.544  29.208  0.00  0.00    +0.070 C 
ATOM      4  C   UNL A   1     -25.308  -0.829  30.573  0.00  0.00    +0.017 C 
ATOM      5  C   UNL A   1     -26.585  -1.281  30.947  0.00  0.00    +0.001 C 
ATOM      6  C   UNL A   1     -27.047  -2.516  30.438  0.00  0.00    +0.001 C 
ATOM      7  C   UNL A   1     -26.208  -3.389  29.805  0.00  0.00    +0.015 A 
ATOM      8  C   UNL A   1     -26.272  -4.403  29.755  0.00  0.00    +0.001 A 
ATOM      9  C   UNL A   1     -25.361  -5.320  29.009  0.00  0.00    +0.000 A 
ATOM     10  C   UNL A   1     -24.159  -4.790  28.566  0.00  0.00    +0.001 A 
ATOM     11  C   UNL A   1     -23.890  -3.476  28.930  0.00  0.00    +0.017 A 
ATOM     12  C   UNL A   1     -24.895  -2.699  29.492  0.00  0.00    +0.070 A 
ATOM     13  N   UNL A   1     -24.542  -1.532  29.739  0.00  0.00    -0.212 NA
ENDBRANCH   2   3
BRANCH   1  14
ATOM     14  C   UNL A   1     -24.265   1.139  26.833  0.00  0.00    +0.121 C 
BRANCH  14  15
ATOM     15  C   UNL A   1     -24.484   2.444  26.913  0.00  0.00    -0.012 A 
ATOM     16  C   UNL A   1     -25.253   3.000  27.986  0.00  0.00    -0.004 A 
ATOM     17  C   UNL A   1     -25.648   4.384  27.920  0.00  0.00    -0.000 A 
ATOM     18  C   UNL A   1     -25.111   5.176  26.929  0.00  0.00    -0.000 A 
ATOM     19  C   UNL A   1     -24.377   4.660  25.908  0.00  0.00    -0.000 A 
ATOM     20  C   UNL A   1     -24.140   3.305  25.856  0.00  0.00    -0.004 A 
ENDBRANCH  14  15
BRANCH  14  22
ATOM     21 CL   UNL A   1     -26.375   0.882  25.700  0.00  0.00    -0.046 Cl
ATOM     22  C   UNL A   1     -25.103   0.396  25.733  0.00  0.00    +0.337 C 
ATOM     23  F   UNL A   1     -24.383   0.419  24.702  0.00  0.00    -0.186 F 
ATOM     24  F   UNL A   1     -25.121  -0.896  26.179  0.00  0.00    -0.186 F 
ENDBRANCH  14  22
ENDBRANCH   1  14
TORSDOF 4
ENDMDL
ENDMDL
