REMARK  Name = No_3141-gen_results/8p0m/2024-11-26-14-13-15/
REMARK  4 active torsions:
REMARK  status: ('A' for Active; 'I' for Inactive)
REMARK    1  A    between atoms: C_2  and  C_4
REMARK    2  A    between atoms: C_4  and  C_6
REMARK    3  A    between atoms: C_4  and  C_12
REMARK    4  A    between atoms: C_13  and  C_14
REMARK                            x       y       z     vdW  Elec       q    Type
REMARK                         _______ _______ _______ _____ _____    ______ ____
ROOT
ATOM      1  C   UNL A   1     -26.061   1.455  27.321  0.00  0.00    -0.014 C 
ATOM      2  C   UNL A   1     -26.524   1.110  26.101  0.00  0.00    +0.013 C 
ENDROOT
BRANCH   2   3
ATOM      3  C   UNL A   1     -27.323   0.022  25.780  0.00  0.00    +0.070 C 
ATOM      4  C   UNL A   1     -27.729  -0.216  24.439  0.00  0.00    +0.017 C 
ATOM      5  C   UNL A   1     -28.682  -1.212  24.163  0.00  0.00    +0.001 C 
ATOM      6  C   UNL A   1     -29.985  -1.073  24.692  0.00  0.00    +0.001 C 
ATOM      7  C   UNL A   1     -30.413   0.101  25.245  0.00  0.00    +0.015 A 
ATOM      8  C   UNL A   1     -31.359   0.471  25.288  0.00  0.00    +0.001 A 
ATOM      9  C   UNL A   1     -31.794   1.738  25.947  0.00  0.00    +0.000 A 
ATOM     10  C   UNL A   1     -30.800   2.638  26.298  0.00  0.00    +0.001 A 
ATOM     11  C   UNL A   1     -29.503   2.303  25.930  0.00  0.00    +0.017 A 
ATOM     12  C   UNL A   1     -29.230   1.025  25.460  0.00  0.00    +0.070 A 
ATOM     13  N   UNL A   1     -28.028   0.836  25.200  0.00  0.00    -0.212 NA
ENDBRANCH   2   3
BRANCH   1  14
ATOM     14  C   UNL A   1     -26.380   0.773  28.538  0.00  0.00    +0.121 C 
BRANCH  14  15
ATOM     15  C   UNL A   1     -25.413   0.272  29.294  0.00  0.00    -0.012 A 
ATOM     16  C   UNL A   1     -24.378   1.110  29.823  0.00  0.00    -0.004 A 
ATOM     17  C   UNL A   1     -23.236   0.498  30.453  0.00  0.00    -0.000 A 
ATOM     18  C   UNL A   1     -23.268  -0.856  30.703  0.00  0.00    -0.000 A 
ATOM     19  C   UNL A   1     -24.247  -1.660  30.210  0.00  0.00    -0.000 A 
ATOM     20  C   UNL A   1     -25.255  -1.117  29.447  0.00  0.00    -0.004 A 
ENDBRANCH  14  15
BRANCH  14  22
ATOM     21 CL   UNL A   1     -28.149  -0.820  28.908  0.00  0.00    -0.046 Cl
ATOM     22  C   UNL A   1     -27.834   0.496  29.060  0.00  0.00    +0.337 C 
ATOM     23  F   UNL A   1     -27.883   1.038  30.194  0.00  0.00    -0.186 F 
ATOM     24  F   UNL A   1     -28.611   1.249  28.224  0.00  0.00    -0.186 F 
ENDBRANCH  14  22
ENDBRANCH   1  14
TORSDOF 4
