REMARK  Name = No_3142-gen_results/8p0m/2024-11-26-14-13-15/
REMARK  2 active torsions:
REMARK  status: ('A' for Active; 'I' for Inactive)
REMARK    1  A    between atoms: C_4  and  C_7
REMARK    2  A    between atoms: C_7  and  C_8
REMARK                            x       y       z     vdW  Elec       q    Type
REMARK                         _______ _______ _______ _____ _____    ______ ____
ROOT
ATOM      1  C   UNL A   1     -24.389  -0.805  30.164  0.00  0.00    +0.053 C 
ENDROOT
BRANCH   1   5
ATOM      2  C   UNL A   1     -28.016  -0.814  28.878  0.00  0.00    -0.000 A 
ATOM      3  C   UNL A   1     -28.469  -0.785  29.829  0.00  0.00    -0.000 A 
ATOM      4  C   UNL A   1     -26.504  -0.778  28.877  0.00  0.00    -0.004 A 
ATOM      5  C   UNL A   1     -25.810  -0.853  30.103  0.00  0.00    -0.018 A 
ATOM      6  C   UNL A   1     -27.991  -0.892  31.226  0.00  0.00    -0.000 A 
ATOM      7  C   UNL A   1     -26.604  -0.868  31.265  0.00  0.00    -0.004 A 
ENDBRANCH   1   5
BRANCH   1   8
ATOM      8  C   UNL A   1     -23.817   0.476  29.912  0.00  0.00    -0.018 A 
ATOM      9  C   UNL A   1     -23.248   0.822  28.723  0.00  0.00    -0.004 A 
ATOM     10  C   UNL A   1     -23.568   2.047  28.066  0.00  0.00    -0.000 A 
ATOM     11  C   UNL A   1     -24.455   2.893  28.721  0.00  0.00    -0.000 A 
ATOM     12  C   UNL A   1     -24.959   2.659  29.981  0.00  0.00    -0.000 A 
ATOM     13  C   UNL A   1     -24.669   1.479  30.663  0.00  0.00    -0.004 A 
ENDBRANCH   1   8
TORSDOF 2
