MODEL 3142
MODEL 1
REMARK VINA RESULT:    -6.589      0.000      0.000
REMARK INTER + INTRA:          -7.812
REMARK INTER:                  -7.359
REMARK INTRA:                  -0.453
REMARK UNBOUND:                -0.453
REMARK  Name = No_3142-gen_results/8p0m/2024-11-26-14-13-15/
REMARK  2 active torsions:
REMARK  status: ('A' for Active; 'I' for Inactive)
REMARK    1  A    between atoms: C_4  and  C_7
REMARK    2  A    between atoms: C_7  and  C_8
REMARK                            x       y       z     vdW  Elec       q    Type
REMARK                         _______ _______ _______ _____ _____    ______ ____
ROOT
ATOM      1  C   UNL A   1     -23.831  -1.455  29.482  0.00  0.00    +0.053 C 
ENDROOT
BRANCH   1   5
ATOM      2  C   UNL A   1     -21.803   1.351  27.803  0.00  0.00    -0.000 A 
ATOM      3  C   UNL A   1     -22.552   1.632  27.117  0.00  0.00    -0.000 A 
ATOM      4  C   UNL A   1     -22.182   0.246  28.763  0.00  0.00    -0.004 A 
ATOM      5  C   UNL A   1     -23.414  -0.421  28.598  0.00  0.00    -0.018 A 
ATOM      6  C   UNL A   1     -23.872   1.092  26.721  0.00  0.00    -0.000 A 
ATOM      7  C   UNL A   1     -24.252   0.068  27.578  0.00  0.00    -0.004 A 
ENDBRANCH   1   5
BRANCH   1   8
ATOM      8  C   UNL A   1     -24.540  -2.527  28.865  0.00  0.00    -0.018 A 
ATOM      9  C   UNL A   1     -23.946  -3.688  28.468  0.00  0.00    -0.004 A 
ATOM     10  C   UNL A   1     -24.495  -4.963  28.798  0.00  0.00    -0.000 A 
ATOM     11  C   UNL A   1     -25.691  -4.963  29.505  0.00  0.00    -0.000 A 
ATOM     12  C   UNL A   1     -26.404  -3.827  29.818  0.00  0.00    -0.000 A 
ATOM     13  C   UNL A   1     -25.910  -2.561  29.510  0.00  0.00    -0.004 A 
ENDBRANCH   1   8
TORSDOF 2
ENDMDL
ENDMDL
