MODEL 3143
MODEL 1
REMARK VINA RESULT:    -6.169      0.000      0.000
REMARK INTER + INTRA:          -8.502
REMARK INTER:                  -7.612
REMARK INTRA:                  -0.890
REMARK UNBOUND:                -0.890
REMARK  Name = No_3143-gen_results/8p0m/2024-11-26-14-13-15/
REMARK  4 active torsions:
REMARK  status: ('A' for Active; 'I' for Inactive)
REMARK    1  A    between atoms: C_3  and  C_4
REMARK    2  A    between atoms: C_6  and  C_10
REMARK    3  A    between atoms: C_10  and  N_11
REMARK    4  A    between atoms: C_12  and  C_14
REMARK                            x       y       z     vdW  Elec       q    Type
REMARK                         _______ _______ _______ _____ _____    ______ ____
ROOT
ATOM      1  C   UNL A   1     -25.523  -5.174  29.403  0.00  0.00    -0.003 A 
ATOM      2  C   UNL A   1     -24.603  -4.988  28.925  0.00  0.00    -0.000 A 
ATOM      3  C   UNL A   1     -26.247  -3.957  29.772  0.00  0.00    -0.007 A 
ATOM      4  C   UNL A   1     -23.867  -3.793  28.536  0.00  0.00    +0.005 A 
ATOM      5  C   UNL A   1     -24.513  -2.623  28.880  0.00  0.00    +0.055 A 
ATOM      6  C   UNL A   1     -25.729  -2.676  29.452  0.00  0.00    +0.002 A 
ENDROOT
BRANCH   3   7
ATOM      7  C   UNL A   1     -27.606  -3.957  30.359  0.00  0.00    +0.102 C 
ATOM      8 CL   UNL A   1     -28.497  -5.027  30.729  0.00  0.00    -0.110 Cl
ATOM      9  C   UNL A   1     -28.081  -2.570  30.799  0.00  0.00    +0.022 C 
ENDBRANCH   3   7
BRANCH   5  10
ATOM     10  C   UNL A   1     -23.877  -1.298  28.617  0.00  0.00    +0.269 C 
ATOM     11  O   UNL A   1     -24.711  -0.532  27.850  0.00  0.00    -0.268 OA
BRANCH  10  12
ATOM     12  N   UNL A   1     -22.892  -0.875  28.882  0.00  0.00    -0.174 NA
ATOM     13  C   UNL A   1     -22.278  -0.764  30.091  0.00  0.00    +0.089 C 
BRANCH  13  14
ATOM     14  C   UNL A   1     -23.094  -0.316  31.133  0.00  0.00    +0.013 C 
ATOM     15  C   UNL A   1     -23.344  -1.147  32.241  0.00  0.00    -0.024 C 
ATOM     16  C   UNL A   1     -24.505  -0.746  32.972  0.00  0.00    +0.031 C 
ENDBRANCH  13  14
ENDBRANCH  10  12
ENDBRANCH   5  10
TORSDOF 4
ENDMDL
ENDMDL
