REMARK  Name = No_3144-gen_results/8p0m/2024-11-26-14-13-15/
REMARK  3 active torsions:
REMARK  status: ('A' for Active; 'I' for Inactive)
REMARK    1  A    between atoms: C_3  and  O_7
REMARK    2  A    between atoms: O_7  and  C_8
REMARK    3  A    between atoms: C_8  and  C_9
REMARK                            x       y       z     vdW  Elec       q    Type
REMARK                         _______ _______ _______ _____ _____    ______ ____
ROOT
ATOM      1  C   UNL A   1     -25.230   0.745  26.608  0.00  0.00    +0.076 A 
ATOM      2  C   UNL A   1     -24.088   1.567  26.641  0.00  0.00    +0.006 A 
ATOM      3  C   UNL A   1     -22.798   1.118  26.941  0.00  0.00    +0.002 A 
ATOM      4  C   UNL A   1     -22.666   0.113  27.916  0.00  0.00    +0.019 A 
ATOM      5  C   UNL A   1     -23.901  -0.643  28.225  0.00  0.00    +0.003 A 
ATOM      6  C   UNL A   1     -25.064  -0.386  27.551  0.00  0.00    +0.006 A 
ATOM      7  C   UNL A   1     -21.441  -0.128  28.626  0.00  0.00    +0.099 A 
ATOM      8  C   UNL A   1     -23.731  -1.765  29.119  0.00  0.00    +0.021 A 
ATOM      9  N   UNL A   1     -21.439  -1.181  29.552  0.00  0.00    -0.242 NA
ATOM     10  C   UNL A   1     -22.580  -1.878  29.820  0.00  0.00    +0.099 A 
ENDROOT
BRANCH   1  11
ATOM     11  C   UNL A   1     -26.500   1.349  26.663  0.00  0.00    +0.346 C 
ATOM     12  O   UNL A   1     -26.824   2.426  26.224  0.00  0.00    -0.244 OA
BRANCH  11  13
ATOM     13  O   UNL A   1     -27.501   0.360  26.821  0.00  0.00    -0.421 OA
BRANCH  13  16
ATOM     14  C   UNL A   1     -28.016  -0.814  28.878  0.00  0.00    +0.038 A 
ATOM     15  C   UNL A   1     -28.469  -0.785  29.829  0.00  0.00    +0.003 A 
ATOM     16  C   UNL A   1     -28.196   0.348  28.055  0.00  0.00    +0.149 A 
ATOM     17  C   UNL A   1     -29.019   1.350  28.378  0.00  0.00    +0.038 A 
ATOM     18  C   UNL A   1     -29.625   1.268  29.601  0.00  0.00    +0.003 A 
ATOM     19  C   UNL A   1     -29.379   0.147  30.392  0.00  0.00    +0.000 A 
ENDBRANCH  13  16
ENDBRANCH  11  13
ENDBRANCH   1  11
TORSDOF 3
