MODEL 3144
MODEL 1
REMARK VINA RESULT:    -7.291      0.000      0.000
REMARK INTER + INTRA:          -9.295
REMARK INTER:                  -8.570
REMARK INTRA:                  -0.726
REMARK UNBOUND:                -0.726
REMARK  Name = No_3144-gen_results/8p0m/2024-11-26-14-13-15/
REMARK  3 active torsions:
REMARK  status: ('A' for Active; 'I' for Inactive)
REMARK    1  A    between atoms: C_3  and  O_7
REMARK    2  A    between atoms: O_7  and  C_8
REMARK    3  A    between atoms: C_8  and  C_9
REMARK                            x       y       z     vdW  Elec       q    Type
REMARK                         _______ _______ _______ _____ _____    ______ ____
ROOT
ATOM      1  C   UNL A   1     -23.099   0.204  29.887  0.00  0.00    +0.076 A 
ATOM      2  C   UNL A   1     -22.085  -0.029  28.939  0.00  0.00    +0.006 A 
ATOM      3  C   UNL A   1     -21.712   0.875  27.939  0.00  0.00    +0.002 A 
ATOM      4  C   UNL A   1     -22.727   1.643  27.342  0.00  0.00    +0.019 A 
ATOM      5  C   UNL A   1     -24.000   1.717  28.095  0.00  0.00    +0.003 A 
ATOM      6  C   UNL A   1     -24.127   1.105  29.313  0.00  0.00    +0.006 A 
ATOM      7  C   UNL A   1     -22.581   2.262  26.054  0.00  0.00    +0.099 A 
ATOM      8  C   UNL A   1     -24.988   2.619  27.552  0.00  0.00    +0.021 A 
ATOM      9  N   UNL A   1     -23.661   3.025  25.588  0.00  0.00    -0.242 NA
ATOM     10  C   UNL A   1     -24.825   3.094  26.296  0.00  0.00    +0.099 A 
ENDROOT
BRANCH   1  11
ATOM     11  C   UNL A   1     -23.633  -0.891  30.591  0.00  0.00    +0.346 C 
ATOM     12  O   UNL A   1     -23.394  -1.225  31.726  0.00  0.00    -0.244 OA
BRANCH  11  13
ATOM     13  O   UNL A   1     -24.873  -1.273  30.025  0.00  0.00    -0.421 OA
BRANCH  13  16
ATOM     14  C   UNL A   1     -23.960  -3.236  28.936  0.00  0.00    +0.038 A 
ATOM     15  C   UNL A   1     -24.039  -4.271  28.756  0.00  0.00    +0.003 A 
ATOM     16  C   UNL A   1     -25.027  -2.640  29.688  0.00  0.00    +0.149 A 
ATOM     17  C   UNL A   1     -26.146  -3.296  30.012  0.00  0.00    +0.038 A 
ATOM     18  C   UNL A   1     -26.194  -4.619  29.672  0.00  0.00    +0.003 A 
ATOM     19  C   UNL A   1     -25.111  -5.171  28.989  0.00  0.00    +0.000 A 
ENDBRANCH  13  16
ENDBRANCH  11  13
ENDBRANCH   1  11
TORSDOF 3
ENDMDL
ENDMDL
