REMARK  Name = No_3145-gen_results/8p0m/2024-11-26-14-13-15/
REMARK  8 active torsions:
REMARK  status: ('A' for Active; 'I' for Inactive)
REMARK    1  A    between atoms: C_2  and  C_7
REMARK    2  A    between atoms: C_4  and  C_15
REMARK    3  A    between atoms: C_16  and  C_17
REMARK    4  A    between atoms: C_18  and  C_19
REMARK    5  A    between atoms: C_20  and  C_21
REMARK    6  A    between atoms: C_21  and  C_22
REMARK    7  A    between atoms: C_22  and  C_23
REMARK    8  A    between atoms: C_23  and  C_24
REMARK                            x       y       z     vdW  Elec       q    Type
REMARK                         _______ _______ _______ _____ _____    ______ ____
ROOT
ATOM      1  C   UNL A   1     -24.371  -1.193  30.068  0.00  0.00    -0.022 C 
ATOM      2  C   UNL A   1     -23.646  -1.302  29.051  0.00  0.00    -0.004 C 
ATOM      3  C   UNL A   1     -23.771  -1.074  31.442  0.00  0.00    +0.031 C 
ENDROOT
BRANCH   1   7
ATOM      4  C   UNL A   1     -28.016  -0.814  28.878  0.00  0.00    +0.004 A 
ATOM      5  C   UNL A   1     -28.469  -0.785  29.829  0.00  0.00    +0.054 A 
ATOM      6  C   UNL A   1     -26.546  -0.876  28.850  0.00  0.00    -0.000 A 
ATOM      7  C   UNL A   1     -25.804  -1.032  30.057  0.00  0.00    -0.004 A 
ATOM      8  C   UNL A   1     -27.944  -0.987  31.207  0.00  0.00    +0.004 A 
ATOM      9  C   UNL A   1     -26.582  -1.039  31.223  0.00  0.00    -0.000 A 
BRANCH   5  10
ATOM     10  C   UNL A   1     -30.061  -0.737  29.902  0.00  0.00    +0.249 C 
ATOM     11  O   UNL A   1     -30.725  -1.554  30.270  0.00  0.00    -0.270 OA
ATOM     12  N   UNL A   1     -30.556   0.424  29.312  0.00  0.00    -0.276 N 
ATOM     13  C   UNL A   1     -31.965   0.564  29.163  0.00  0.00    +0.094 C 
ATOM     14  C   UNL A   1     -32.334   1.559  28.757  0.00  0.00    +0.022 C 
ATOM     15  C   UNL A   1     -31.438   2.638  28.268  0.00  0.00    +0.004 C 
ATOM     16  C   UNL A   1     -30.045   2.423  28.360  0.00  0.00    +0.022 C 
ATOM     17  C   UNL A   1     -29.599   1.375  28.916  0.00  0.00    +0.094 C 
ENDBRANCH   5  10
ENDBRANCH   1   7
BRANCH   2  18
ATOM     18  C   UNL A   1     -22.173  -1.213  29.097  0.00  0.00    -0.000 C 
ATOM     19  C   UNL A   1     -21.641   0.056  29.163  0.00  0.00    -0.000 C 
BRANCH  19  20
ATOM     20  C   UNL A   1     -22.466   1.209  29.039  0.00  0.00    -0.005 C 
ATOM     21  C   UNL A   1     -23.334   1.381  27.906  0.00  0.00    -0.026 C 
BRANCH  21  22
ATOM     22  C   UNL A   1     -23.916   2.708  27.712  0.00  0.00    +0.022 C 
ATOM     23  C   UNL A   1     -24.052   3.152  26.375  0.00  0.00    +0.005 C 
BRANCH  22  24
ATOM     24  C   UNL A   1     -24.440   3.298  28.800  0.00  0.00    +0.009 C 
BRANCH  24  25
ATOM     25  C   UNL A   1     -25.502   2.848  29.320  0.00  0.00    +0.027 C 
BRANCH  25  26
ATOM     26  C   UNL A   1     -26.053   3.453  30.567  0.00  0.00    -0.022 A 
ATOM     27  C   UNL A   1     -26.740   2.753  31.437  0.00  0.00    -0.004 A 
ATOM     28  C   UNL A   1     -26.809   3.104  32.786  0.00  0.00    -0.000 A 
ATOM     29  C   UNL A   1     -26.422   4.423  33.140  0.00  0.00    -0.000 A 
ATOM     30  C   UNL A   1     -25.746   5.221  32.208  0.00  0.00    -0.000 A 
ATOM     31  C   UNL A   1     -25.473   4.677  30.913  0.00  0.00    -0.004 A 
ENDBRANCH  25  26
ENDBRANCH  24  25
ENDBRANCH  22  24
ENDBRANCH  21  22
ENDBRANCH  19  20
ENDBRANCH   2  18
TORSDOF 8
