MODEL 3145
MODEL 1
REMARK VINA RESULT:    -8.749      0.000      0.000
REMARK INTER + INTRA:         -14.325
REMARK INTER:                 -12.840
REMARK INTRA:                  -1.485
REMARK UNBOUND:                -1.485
REMARK  Name = No_3145-gen_results/8p0m/2024-11-26-14-13-15/
REMARK  8 active torsions:
REMARK  status: ('A' for Active; 'I' for Inactive)
REMARK    1  A    between atoms: C_2  and  C_7
REMARK    2  A    between atoms: C_4  and  C_15
REMARK    3  A    between atoms: C_16  and  C_17
REMARK    4  A    between atoms: C_18  and  C_19
REMARK    5  A    between atoms: C_20  and  C_21
REMARK    6  A    between atoms: C_21  and  C_22
REMARK    7  A    between atoms: C_22  and  C_23
REMARK    8  A    between atoms: C_23  and  C_24
REMARK                            x       y       z     vdW  Elec       q    Type
REMARK                         _______ _______ _______ _____ _____    ______ ____
ROOT
ATOM      1  C   UNL A   1     -23.815   1.400  26.355  0.00  0.00    -0.022 C 
ATOM      2  C   UNL A   1     -23.278   1.038  27.428  0.00  0.00    -0.004 C 
ATOM      3  C   UNL A   1     -23.045   2.174  25.321  0.00  0.00    +0.031 C 
ENDROOT
BRANCH   1   7
ATOM      4  C   UNL A   1     -26.747   0.105  24.215  0.00  0.00    +0.004 A 
ATOM      5  C   UNL A   1     -27.506   0.225  24.936  0.00  0.00    +0.054 A 
ATOM      6  C   UNL A   1     -25.403   0.572  24.591  0.00  0.00    -0.000 A 
ATOM      7  C   UNL A   1     -25.137   1.025  25.917  0.00  0.00    -0.004 A 
ATOM      8  C   UNL A   1     -27.486   0.605  26.375  0.00  0.00    +0.004 A 
ATOM      9  C   UNL A   1     -26.257   1.053  26.759  0.00  0.00    -0.000 A 
BRANCH   5  10
ATOM     10  C   UNL A   1     -28.973  -0.286  24.574  0.00  0.00    +0.249 C 
ATOM     11  O   UNL A   1     -29.375  -1.309  24.761  0.00  0.00    -0.270 OA
ATOM     12  N   UNL A   1     -29.676   0.677  23.854  0.00  0.00    -0.276 N 
ATOM     13  C   UNL A   1     -30.953   0.334  23.326  0.00  0.00    +0.094 C 
ATOM     14  C   UNL A   1     -31.532   1.170  22.820  0.00  0.00    +0.022 C 
ATOM     15  C   UNL A   1     -30.983   2.529  22.575  0.00  0.00    +0.004 C 
ATOM     16  C   UNL A   1     -29.679   2.801  23.045  0.00  0.00    +0.022 C 
ATOM     17  C   UNL A   1     -29.051   1.929  23.717  0.00  0.00    +0.094 C 
ENDBRANCH   5  10
ENDBRANCH   1   7
BRANCH   2  18
ATOM     18  C   UNL A   1     -21.844   1.236  27.719  0.00  0.00    -0.000 C 
ATOM     19  C   UNL A   1     -21.304   0.432  28.698  0.00  0.00    -0.000 C 
BRANCH  19  20
ATOM     20  C   UNL A   1     -22.124  -0.429  29.481  0.00  0.00    -0.005 C 
ATOM     21  C   UNL A   1     -23.067   0.104  30.426  0.00  0.00    -0.026 C 
BRANCH  21  22
ATOM     22  C   UNL A   1     -23.648  -0.835  31.385  0.00  0.00    +0.022 C 
ATOM     23  C   UNL A   1     -22.834  -1.206  32.482  0.00  0.00    +0.005 C 
BRANCH  22  24
ATOM     24  C   UNL A   1     -24.956  -1.107  31.241  0.00  0.00    +0.009 C 
BRANCH  24  25
ATOM     25  C   UNL A   1     -25.442  -1.308  30.090  0.00  0.00    +0.027 C 
BRANCH  25  26
ATOM     26  C   UNL A   1     -25.367  -2.657  29.458  0.00  0.00    -0.022 A 
ATOM     27  C   UNL A   1     -24.342  -3.030  28.730  0.00  0.00    -0.004 A 
ATOM     28  C   UNL A   1     -23.987  -4.371  28.577  0.00  0.00    -0.000 A 
ATOM     29  C   UNL A   1     -24.956  -5.348  28.925  0.00  0.00    -0.000 A 
ATOM     30  C   UNL A   1     -26.096  -4.969  29.644  0.00  0.00    -0.000 A 
ATOM     31  C   UNL A   1     -26.253  -3.592  30.001  0.00  0.00    -0.004 A 
ENDBRANCH  25  26
ENDBRANCH  24  25
ENDBRANCH  22  24
ENDBRANCH  21  22
ENDBRANCH  19  20
ENDBRANCH   2  18
TORSDOF 8
ENDMDL
ENDMDL
