REMARK  Name = No_3146-gen_results/8p0m/2024-11-26-14-13-15/
REMARK  8 active torsions:
REMARK  status: ('A' for Active; 'I' for Inactive)
REMARK    1  A    between atoms: C_5  and  C_18
REMARK    2  A    between atoms: C_10  and  C_21
REMARK    3  A    between atoms: C_11  and  C_15
REMARK    4  A    between atoms: C_21  and  O_23
REMARK    5  A    between atoms: O_23  and  C_24
REMARK    6  A    between atoms: C_24  and  C_26
REMARK    7  A    between atoms: C_27  and  C_28
REMARK    8  A    between atoms: C_30  and  C_34
REMARK                            x       y       z     vdW  Elec       q    Type
REMARK                         _______ _______ _______ _____ _____    ______ ____
ROOT
ATOM      1  C   UNL A   1     -28.016  -0.814  28.878  0.00  0.00    +0.000 A 
ATOM      2  C   UNL A   1     -27.064  -0.119  28.608  0.00  0.00    +0.006 A 
ATOM      3  C   UNL A   1     -26.972   0.714  27.506  0.00  0.00    +0.000 A 
ATOM      4  C   UNL A   1     -28.105   0.774  26.642  0.00  0.00    +0.007 A 
ATOM      5  C   UNL A   1     -29.204   0.118  27.048  0.00  0.00    +0.080 A 
ATOM      6  C   UNL A   1     -29.213  -0.609  28.128  0.00  0.00    +0.007 A 
ATOM      7  C   UNL A   1     -25.711   1.452  27.138  0.00  0.00    +0.000 A 
ATOM      8  C   UNL A   1     -24.605   0.925  27.690  0.00  0.00    +0.007 A 
ATOM      9  C   UNL A   1     -24.623   0.060  28.823  0.00  0.00    +0.007 A 
ATOM     10  C   UNL A   1     -25.727  -0.473  29.241  0.00  0.00    +0.076 A 
ATOM     11  C   UNL A   1     -23.272   1.677  27.438  0.00  0.00    +0.080 A 
ATOM     12  C   UNL A   1     -23.229   2.847  26.715  0.00  0.00    +0.007 A 
ATOM     13  C   UNL A   1     -24.530   3.239  26.017  0.00  0.00    +0.000 A 
ATOM     14  C   UNL A   1     -25.714   2.525  26.300  0.00  0.00    +0.000 A 
ENDROOT
BRANCH  11  15
ATOM     15  C   UNL A   1     -22.006   1.299  28.097  0.00  0.00    +0.388 C 
ATOM     16  O   UNL A   1     -21.934   0.279  28.848  0.00  0.00    -0.241 OA
ATOM     17  O   UNL A   1     -20.963   1.967  27.745  0.00  0.00    -0.241 OA
ENDBRANCH  11  15
BRANCH   5  18
ATOM     18  C   UNL A   1     -30.417   0.312  26.222  0.00  0.00    +0.388 C 
ATOM     19  O   UNL A   1     -30.567  -0.451  25.245  0.00  0.00    -0.241 OA
ATOM     20  O   UNL A   1     -31.325   1.155  26.508  0.00  0.00    -0.241 OA
ENDBRANCH   5  18
BRANCH  10  21
ATOM     21  C   UNL A   1     -25.764  -1.509  30.312  0.00  0.00    +0.341 C 
ATOM     22  O   UNL A   1     -26.233  -1.311  31.347  0.00  0.00    -0.245 OA
BRANCH  21  23
ATOM     23  O   UNL A   1     -25.284  -2.674  29.919  0.00  0.00    -0.445 OA
BRANCH  23  24
ATOM     24  C   UNL A   1     -26.104  -3.769  29.550  0.00  0.00    +0.191 C 
ATOM     25  C   UNL A   1     -25.369  -4.980  29.310  0.00  0.00    +0.052 C 
BRANCH  24  26
ATOM     26  C   UNL A   1     -27.411  -3.839  29.993  0.00  0.00    +0.017 C 
ATOM     27  C   UNL A   1     -28.166  -5.036  29.924  0.00  0.00    -0.001 C 
BRANCH  27  28
ATOM     28  C   UNL A   1     -29.497  -4.918  30.430  0.00  0.00    -0.000 A 
ATOM     29  C   UNL A   1     -30.433  -5.824  30.064  0.00  0.00    -0.000 A 
ATOM     30  C   UNL A   1     -31.822  -5.723  30.479  0.00  0.00    -0.000 A 
ATOM     31  C   UNL A   1     -32.182  -4.652  31.332  0.00  0.00    -0.000 A 
ATOM     32  C   UNL A   1     -31.225  -3.774  31.763  0.00  0.00    -0.000 A 
ATOM     33  C   UNL A   1     -29.920  -3.848  31.340  0.00  0.00    -0.000 A 
BRANCH  30  34
ATOM     34  C   UNL A   1     -32.763  -6.628  30.003  0.00  0.00    -0.000 C 
ATOM     35  C   UNL A   1     -32.526  -7.404  29.159  0.00  0.00    +0.000 C 
ENDBRANCH  30  34
ENDBRANCH  27  28
ENDBRANCH  24  26
ENDBRANCH  23  24
ENDBRANCH  21  23
ENDBRANCH  10  21
TORSDOF 8
