MODEL 3146
MODEL 1
REMARK VINA RESULT:    -8.023      0.000      0.000
REMARK INTER + INTRA:         -14.517
REMARK INTER:                 -11.776
REMARK INTRA:                  -2.742
REMARK UNBOUND:                -2.742
REMARK  Name = No_3146-gen_results/8p0m/2024-11-26-14-13-15/
REMARK  8 active torsions:
REMARK  status: ('A' for Active; 'I' for Inactive)
REMARK    1  A    between atoms: C_5  and  C_18
REMARK    2  A    between atoms: C_10  and  C_21
REMARK    3  A    between atoms: C_11  and  C_15
REMARK    4  A    between atoms: C_21  and  O_23
REMARK    5  A    between atoms: O_23  and  C_24
REMARK    6  A    between atoms: C_24  and  C_26
REMARK    7  A    between atoms: C_27  and  C_28
REMARK    8  A    between atoms: C_30  and  C_34
REMARK                            x       y       z     vdW  Elec       q    Type
REMARK                         _______ _______ _______ _____ _____    ______ ____
ROOT
ATOM      1  C   UNL A   1     -23.954   0.595  30.828  0.00  0.00    +0.000 A 
ATOM      2  C   UNL A   1     -24.519  -0.470  30.743  0.00  0.00    +0.006 A 
ATOM      3  C   UNL A   1     -24.156  -1.500  29.892  0.00  0.00    +0.000 A 
ATOM      4  C   UNL A   1     -23.006  -1.290  29.075  0.00  0.00    +0.007 A 
ATOM      5  C   UNL A   1     -22.306  -0.167  29.301  0.00  0.00    +0.080 A 
ATOM      6  C   UNL A   1     -22.700   0.730  30.159  0.00  0.00    +0.007 A 
ATOM      7  C   UNL A   1     -24.975  -2.753  29.722  0.00  0.00    +0.000 A 
ATOM      8  C   UNL A   1     -26.252  -2.612  30.118  0.00  0.00    +0.007 A 
ATOM      9  C   UNL A   1     -26.698  -1.577  30.991  0.00  0.00    +0.007 A 
ATOM     10  C   UNL A   1     -25.947  -0.558  31.261  0.00  0.00    +0.076 A 
ATOM     11  C   UNL A   1     -27.144  -3.879  30.064  0.00  0.00    +0.080 A 
ATOM     12  C   UNL A   1     -26.643  -5.098  29.666  0.00  0.00    +0.007 A 
ATOM     13  C   UNL A   1     -25.227  -5.074  29.095  0.00  0.00    +0.000 A 
ATOM     14  C   UNL A   1     -24.459  -3.893  29.188  0.00  0.00    +0.000 A 
ENDROOT
BRANCH  11  15
ATOM     15  C   UNL A   1     -28.519  -3.911  30.601  0.00  0.00    +0.388 C 
ATOM     16  O   UNL A   1     -28.790  -4.518  31.681  0.00  0.00    -0.241 OA
ATOM     17  O   UNL A   1     -29.379  -3.166  29.998  0.00  0.00    -0.241 OA
ENDBRANCH  11  15
BRANCH   5  18
ATOM     18  C   UNL A   1     -21.034  -0.035  28.556  0.00  0.00    +0.388 C 
ATOM     19  O   UNL A   1     -20.245  -1.001  28.602  0.00  0.00    -0.241 OA
ATOM     20  O   UNL A   1     -20.757   0.970  27.827  0.00  0.00    -0.241 OA
ENDBRANCH   5  18
BRANCH  10  21
ATOM     21  C   UNL A   1     -26.437   0.621  32.030  0.00  0.00    +0.341 C 
ATOM     22  O   UNL A   1     -25.900   1.010  32.974  0.00  0.00    -0.245 OA
BRANCH  21  23
ATOM     23  O   UNL A   1     -27.482   1.202  31.472  0.00  0.00    -0.445 OA
BRANCH  23  24
ATOM     24  C   UNL A   1     -27.376   2.221  30.493  0.00  0.00    +0.191 C 
ATOM     25  C   UNL A   1     -27.373   3.548  31.044  0.00  0.00    +0.052 C 
BRANCH  24  26
ATOM     26  C   UNL A   1     -26.721   1.974  29.302  0.00  0.00    +0.017 C 
ATOM     27  C   UNL A   1     -25.516   2.635  28.954  0.00  0.00    -0.001 C 
BRANCH  27  28
ATOM     28  C   UNL A   1     -24.983   2.251  27.686  0.00  0.00    -0.000 A 
ATOM     29  C   UNL A   1     -25.550   1.226  27.006  0.00  0.00    -0.000 A 
ATOM     30  C   UNL A   1     -25.015   0.734  25.748  0.00  0.00    -0.000 A 
ATOM     31  C   UNL A   1     -23.882   1.389  25.208  0.00  0.00    -0.000 A 
ATOM     32  C   UNL A   1     -23.349   2.471  25.855  0.00  0.00    -0.000 A 
ATOM     33  C   UNL A   1     -23.832   2.912  27.063  0.00  0.00    -0.000 A 
BRANCH  30  34
ATOM     34  C   UNL A   1     -25.579  -0.379  25.135  0.00  0.00    -0.000 C 
ATOM     35  C   UNL A   1     -26.619  -0.348  24.598  0.00  0.00    +0.000 C 
ENDBRANCH  30  34
ENDBRANCH  27  28
ENDBRANCH  24  26
ENDBRANCH  23  24
ENDBRANCH  21  23
ENDBRANCH  10  21
TORSDOF 8
ENDMDL
ENDMDL
