MODEL 3147
MODEL 1
REMARK VINA RESULT:    -6.761      0.000      0.000
REMARK INTER + INTRA:          -8.019
REMARK INTER:                  -7.552
REMARK INTRA:                  -0.467
REMARK UNBOUND:                -0.467
REMARK  Name = No_3147-gen_results/8p0m/2024-11-26-14-13-15/
REMARK  2 active torsions:
REMARK  status: ('A' for Active; 'I' for Inactive)
REMARK    1  A    between atoms: C_2  and  C_7
REMARK    2  A    between atoms: C_4  and  C_10
REMARK                            x       y       z     vdW  Elec       q    Type
REMARK                         _______ _______ _______ _____ _____    ______ ____
ROOT
ATOM      1  C   UNL A   1     -24.251   0.580  27.473  0.00  0.00    +0.006 A 
ATOM      2  C   UNL A   1     -23.276   0.783  27.815  0.00  0.00    +0.068 A 
ATOM      3  C   UNL A   1     -24.781  -0.765  27.753  0.00  0.00    +0.000 A 
ATOM      4  C   UNL A   1     -24.049  -1.675  28.571  0.00  0.00    +0.000 A 
ATOM      5  C   UNL A   1     -22.345   0.050  28.716  0.00  0.00    +0.006 A 
ATOM      6  C   UNL A   1     -22.797  -1.206  28.991  0.00  0.00    +0.000 A 
ENDROOT
BRANCH   4   7
ATOM      7  C   UNL A   1     -24.530  -2.990  28.864  0.00  0.00    +0.000 A 
ATOM      8  C   UNL A   1     -24.165  -3.941  28.777  0.00  0.00    +0.000 A 
ATOM      9  C   UNL A   1     -25.950  -2.931  29.509  0.00  0.00    +0.000 A 
ATOM     10  C   UNL A   1     -26.551  -4.160  29.883  0.00  0.00    +0.000 A 
ATOM     11  C   UNL A   1     -24.640  -5.269  28.998  0.00  0.00    +0.000 A 
ATOM     12  C   UNL A   1     -25.926  -5.314  29.619  0.00  0.00    +0.000 A 
ENDBRANCH   4   7
BRANCH   2  13
ATOM     13  C   UNL A   1     -22.673   2.235  27.547  0.00  0.00    +0.333 C 
ATOM     14  O   UNL A   1     -23.261   3.161  27.342  0.00  0.00    -0.254 OA
ATOM     15  F   UNL A   1     -21.383   2.198  27.440  0.00  0.00    -0.159 F 
ENDBRANCH   2  13
TORSDOF 2
ENDMDL
ENDMDL
