REMARK  Name = No_3147-gen_results/8p0m/2024-11-26-14-13-15/
REMARK  2 active torsions:
REMARK  status: ('A' for Active; 'I' for Inactive)
REMARK    1  A    between atoms: C_2  and  C_7
REMARK    2  A    between atoms: C_4  and  C_10
REMARK                            x       y       z     vdW  Elec       q    Type
REMARK                         _______ _______ _______ _____ _____    ______ ____
ROOT
ATOM      1  C   UNL A   1     -28.016  -0.814  28.878  0.00  0.00    +0.006 A 
ATOM      2  C   UNL A   1     -28.469  -0.785  29.829  0.00  0.00    +0.068 A 
ATOM      3  C   UNL A   1     -26.546  -0.876  28.850  0.00  0.00    +0.000 A 
ATOM      4  C   UNL A   1     -25.804  -1.032  30.057  0.00  0.00    +0.000 A 
ATOM      5  C   UNL A   1     -27.944  -0.987  31.207  0.00  0.00    +0.006 A 
ATOM      6  C   UNL A   1     -26.582  -1.039  31.223  0.00  0.00    +0.000 A 
ENDROOT
BRANCH   4   7
ATOM      7  C   UNL A   1     -24.375  -1.094  30.070  0.00  0.00    +0.000 A 
ATOM      8  C   UNL A   1     -23.671  -1.717  30.472  0.00  0.00    +0.000 A 
ATOM      9  C   UNL A   1     -23.762   0.065  29.224  0.00  0.00    +0.000 A 
ATOM     10  C   UNL A   1     -22.348   0.121  29.118  0.00  0.00    +0.000 A 
ATOM     11  C   UNL A   1     -22.247  -1.771  30.558  0.00  0.00    +0.000 A 
ATOM     12  C   UNL A   1     -21.595  -0.762  29.784  0.00  0.00    +0.000 A 
ENDBRANCH   4   7
BRANCH   2  13
ATOM     13  C   UNL A   1     -30.061  -0.737  29.902  0.00  0.00    +0.333 C 
ATOM     14  O   UNL A   1     -30.725  -1.554  30.270  0.00  0.00    -0.254 OA
ATOM     15  F   UNL A   1     -30.527   0.328  29.330  0.00  0.00    -0.159 F 
ENDBRANCH   2  13
TORSDOF 2
