MODEL 3148
MODEL 1
REMARK VINA RESULT:    -3.335      0.000      0.000
REMARK INTER + INTRA:          -3.335
REMARK INTER:                  -3.335
REMARK INTRA:                   0.000
REMARK UNBOUND:                 0.000
REMARK  Name = No_3148-gen_results/8p0m/2024-11-26-14-13-15/
REMARK  0 active torsions:
REMARK  status: ('A' for Active; 'I' for Inactive)
REMARK                            x       y       z     vdW  Elec       q    Type
REMARK                         _______ _______ _______ _____ _____    ______ ____
ROOT
ATOM      1  P   UNL A   1      -9.760  -9.830  18.058  0.00  0.00    +0.559 P 
ATOM      2  O   UNL A   1      -9.180 -10.682  18.534  0.00  0.00    -0.220 OA
ATOM      3  O   UNL A   1      -8.746  -8.875  17.355  0.00  0.00    -0.113 OA
ATOM      4  O   UNL A   1     -10.580  -8.988  19.012  0.00  0.00    -0.113 OA
ATOM      5  O   UNL A   1     -10.775 -10.311  16.888  0.00  0.00    -0.113 OA
ENDROOT
TORSDOF 0
ENDMDL
ENDMDL
