REMARK  Name = No_3149-gen_results/8p0m/2024-11-26-14-13-15/
REMARK  2 active torsions:
REMARK  status: ('A' for Active; 'I' for Inactive)
REMARK    1  A    between atoms: C_5  and  C_8
REMARK    2  A    between atoms: C_8  and  C_9
REMARK                            x       y       z     vdW  Elec       q    Type
REMARK                         _______ _______ _______ _____ _____    ______ ____
ROOT
ATOM      1  C   UNL A   1     -29.994  -0.025  31.766  0.00  0.00    +0.045 C 
ATOM      2  C   UNL A   1     -31.382  -0.598  31.539  0.00  0.00    +0.009 C 
ENDROOT
BRANCH   1   7
ATOM      3  C   UNL A   1     -28.016  -0.814  28.878  0.00  0.00    +0.029 A 
ATOM      4  C   UNL A   1     -28.469  -0.785  29.829  0.00  0.00    -0.002 A 
ATOM      5  C   UNL A   1     -28.196   0.348  28.055  0.00  0.00    +0.140 A 
ATOM      6  C   UNL A   1     -29.019   1.350  28.378  0.00  0.00    +0.029 A 
ATOM      7  C   UNL A   1     -29.411   0.180  30.378  0.00  0.00    -0.018 A 
ATOM      8  C   UNL A   1     -29.606   1.250  29.619  0.00  0.00    -0.002 A 
ATOM      9  F   UNL A   1     -27.670   0.442  26.779  0.00  0.00    -0.204 F 
ENDBRANCH   1   7
BRANCH   1  10
ATOM     10  C   UNL A   1     -29.894   0.951  32.589  0.00  0.00    -0.018 A 
ATOM     11  C   UNL A   1     -30.601   0.877  33.882  0.00  0.00    -0.004 A 
ATOM     12  C   UNL A   1     -30.513   1.930  34.832  0.00  0.00    -0.000 A 
ATOM     13  C   UNL A   1     -29.748   3.062  34.462  0.00  0.00    -0.000 A 
ATOM     14  C   UNL A   1     -29.059   3.150  33.266  0.00  0.00    -0.000 A 
ATOM     15  C   UNL A   1     -29.089   2.099  32.360  0.00  0.00    -0.004 A 
ENDBRANCH   1  10
TORSDOF 2
