MODEL 3149
MODEL 1
REMARK VINA RESULT:    -7.050      0.000      0.000
REMARK INTER + INTRA:          -8.551
REMARK INTER:                  -7.874
REMARK INTRA:                  -0.677
REMARK UNBOUND:                -0.677
REMARK  Name = No_3149-gen_results/8p0m/2024-11-26-14-13-15/
REMARK  2 active torsions:
REMARK  status: ('A' for Active; 'I' for Inactive)
REMARK    1  A    between atoms: C_5  and  C_8
REMARK    2  A    between atoms: C_8  and  C_9
REMARK                            x       y       z     vdW  Elec       q    Type
REMARK                         _______ _______ _______ _____ _____    ______ ____
ROOT
ATOM      1  C   UNL A   1     -24.439  -1.347  30.034  0.00  0.00    +0.045 C 
ATOM      2  C   UNL A   1     -23.675  -1.141  31.330  0.00  0.00    +0.009 C 
ENDROOT
BRANCH   1   7
ATOM      3  C   UNL A   1     -21.724   0.461  28.540  0.00  0.00    +0.029 A 
ATOM      4  C   UNL A   1     -22.350  -0.103  29.173  0.00  0.00    -0.002 A 
ATOM      5  C   UNL A   1     -22.369   1.145  27.456  0.00  0.00    +0.140 A 
ATOM      6  C   UNL A   1     -23.655   0.965  27.143  0.00  0.00    +0.029 A 
ATOM      7  C   UNL A   1     -23.755  -0.451  29.016  0.00  0.00    -0.018 A 
ATOM      8  C   UNL A   1     -24.361   0.156  28.004  0.00  0.00    -0.002 A 
ATOM      9  F   UNL A   1     -21.669   1.909  26.540  0.00  0.00    -0.204 F 
ENDBRANCH   1   7
BRANCH   1  10
ATOM     10  C   UNL A   1     -24.673  -2.556  29.681  0.00  0.00    -0.018 A 
ATOM     11  C   UNL A   1     -25.956  -3.180  30.055  0.00  0.00    -0.004 A 
ATOM     12  C   UNL A   1     -26.265  -4.515  29.678  0.00  0.00    -0.000 A 
ATOM     13  C   UNL A   1     -25.270  -5.223  28.963  0.00  0.00    -0.000 A 
ATOM     14  C   UNL A   1     -24.067  -4.658  28.582  0.00  0.00    -0.000 A 
ATOM     15  C   UNL A   1     -23.784  -3.335  28.892  0.00  0.00    -0.004 A 
ENDBRANCH   1  10
TORSDOF 2
ENDMDL
ENDMDL
