MODEL 314
MODEL 1
REMARK VINA RESULT:    -5.180      0.000      0.000
REMARK INTER + INTRA:          -5.704
REMARK INTER:                  -5.483
REMARK INTRA:                  -0.220
REMARK UNBOUND:                -0.220
REMARK  Name = No_314-gen_results/8p0m/2024-11-26-14-13-15/
REMARK  1 active torsions:
REMARK  status: ('A' for Active; 'I' for Inactive)
REMARK    1  A    between atoms: C_3  and  C_4
REMARK                            x       y       z     vdW  Elec       q    Type
REMARK                         _______ _______ _______ _____ _____    ______ ____
ROOT
ATOM      1  C   UNL A   1     -25.842  -2.633  29.817  0.00  0.00    +0.004 A 
ATOM      2  C   UNL A   1     -26.377  -3.537  29.899  0.00  0.00    -0.000 A 
ATOM      3  C   UNL A   1     -24.552  -2.680  29.245  0.00  0.00    +0.071 A 
ATOM      4  C   UNL A   1     -26.017  -4.917  29.527  0.00  0.00    -0.000 A 
ATOM      5  C   UNL A   1     -24.750  -5.041  28.957  0.00  0.00    -0.000 A 
ATOM      6  C   UNL A   1     -24.001  -3.926  28.757  0.00  0.00    +0.004 A 
ENDROOT
BRANCH   3   7
ATOM      7  C   UNL A   1     -23.713  -1.487  28.958  0.00  0.00    +0.419 C 
ATOM      8  F   UNL A   1     -22.603  -1.850  28.889  0.00  0.00    -0.166 F 
ATOM      9  F   UNL A   1     -23.786  -0.678  30.047  0.00  0.00    -0.166 F 
ATOM     10  F   UNL A   1     -24.127  -0.806  27.862  0.00  0.00    -0.166 F 
ENDBRANCH   3   7
TORSDOF 1
ENDMDL
ENDMDL
