REMARK  Name = No_315-gen_results/8p0m/2024-11-26-14-13-15/
REMARK  1 active torsions:
REMARK  status: ('A' for Active; 'I' for Inactive)
REMARK    1  A    between atoms: C_2  and  C_4
REMARK                            x       y       z     vdW  Elec       q    Type
REMARK                         _______ _______ _______ _____ _____    ______ ____
ROOT
ATOM      1  F   UNL A   1     -28.073  -1.254  28.532  0.00  0.00    -0.193 F 
ATOM      2  C   UNL A   1     -27.061  -0.629  28.872  0.00  0.00    +0.341 C 
ATOM      3  F   UNL A   1     -26.127  -1.078  29.200  0.00  0.00    -0.193 F 
ENDROOT
BRANCH   2   4
ATOM      4  C   UNL A   1     -27.397   0.496  29.872  0.00  0.00    +0.040 C 
ATOM      5  C   UNL A   1     -26.740   1.326  30.160  0.00  0.00    -0.025 C 
ATOM      6  C   UNL A   1     -25.194   0.941  30.148  0.00  0.00    +0.030 C 
ENDBRANCH   2   4
TORSDOF 1
