MODEL 3150
MODEL 1
REMARK VINA RESULT:    -5.117      0.000      0.000
REMARK INTER + INTRA:          -7.207
REMARK INTER:                  -6.613
REMARK INTRA:                  -0.594
REMARK UNBOUND:                -0.594
REMARK  Name = No_3150-gen_results/8p0m/2024-11-26-14-13-15/
REMARK  5 active torsions:
REMARK  status: ('A' for Active; 'I' for Inactive)
REMARK    1  A    between atoms: C_2  and  C_3
REMARK    2  A    between atoms: C_3  and  C_5
REMARK    3  A    between atoms: C_6  and  C_7
REMARK    4  A    between atoms: C_9  and  C_10
REMARK    5  A    between atoms: C_11  and  C_12
REMARK                            x       y       z     vdW  Elec       q    Type
REMARK                         _______ _______ _______ _____ _____    ______ ____
ROOT
ATOM      1  C   UNL A   1     -28.631 -13.066  31.927  0.00  0.00    -0.017 C 
ATOM      2  C   UNL A   1     -29.222 -12.729  30.715  0.00  0.00    -0.004 C 
ENDROOT
BRANCH   2   3
ATOM      3  C   UNL A   1     -28.812 -11.632  30.051  0.00  0.00    -0.000 C 
ATOM      4  C   UNL A   1     -29.770 -10.863  29.307  0.00  0.00    -0.000 C 
BRANCH   4   5
ATOM      5  C   UNL A   1     -29.849 -11.125  28.182  0.00  0.00    -0.000 C 
ATOM      6  C   UNL A   1     -30.607 -10.731  27.209  0.00  0.00    -0.000 C 
BRANCH   6   7
ATOM      7  C   UNL A   1     -31.319  -9.497  27.662  0.00  0.00    -0.005 C 
ATOM      8  C   UNL A   1     -31.362  -8.526  26.969  0.00  0.00    -0.026 C 
ATOM      9  C   UNL A   1     -31.467  -7.103  26.962  0.00  0.00    +0.031 C 
ENDBRANCH   6   7
ENDBRANCH   4   5
ENDBRANCH   2   3
BRANCH   1  10
ATOM     10  C   UNL A   1     -27.432 -12.506  32.387  0.00  0.00    +0.113 C 
BRANCH  10  12
ATOM     11  O   UNL A   1     -27.256 -12.273  34.580  0.00  0.00    -0.273 OA
ATOM     12  C   UNL A   1     -27.462 -11.778  33.559  0.00  0.00    +0.246 C 
ATOM     13  N   UNL A   1     -28.015 -10.435  33.426  0.00  0.00    -0.203 NA
ATOM     14  C   UNL A   1     -28.012  -9.644  34.594  0.00  0.00    +0.139 C 
ENDBRANCH  10  12
ENDBRANCH   1  10
TORSDOF 5
ENDMDL
ENDMDL
