MODEL 3151
MODEL 1
REMARK VINA RESULT:    -7.099      0.000      0.000
REMARK INTER + INTRA:          -8.500
REMARK INTER:                  -7.929
REMARK INTRA:                  -0.571
REMARK UNBOUND:                -0.571
REMARK  Name = No_3151-gen_results/8p0m/2024-11-26-14-13-15/
REMARK  2 active torsions:
REMARK  status: ('A' for Active; 'I' for Inactive)
REMARK    1  A    between atoms: C_3  and  C_4
REMARK    2  A    between atoms: C_4  and  C_5
REMARK                            x       y       z     vdW  Elec       q    Type
REMARK                         _______ _______ _______ _____ _____    ______ ____
ROOT
ATOM      1  C   UNL A   1     -23.753  -1.616  29.771  0.00  0.00    +0.045 C 
ATOM      2  C   UNL A   1     -24.863  -1.153  30.653  0.00  0.00    +0.009 C 
ENDROOT
BRANCH   1   5
ATOM      3  C   UNL A   1     -20.961   0.272  28.418  0.00  0.00    -0.000 A 
ATOM      4  C   UNL A   1     -21.601  -0.546  29.038  0.00  0.00    -0.004 A 
ATOM      5  C   UNL A   1     -22.956  -0.621  29.021  0.00  0.00    -0.018 A 
ATOM      6  C   UNL A   1     -21.661   1.231  27.543  0.00  0.00    -0.000 A 
ATOM      7  C   UNL A   1     -22.988   1.244  27.490  0.00  0.00    -0.000 A 
ATOM      8  C   UNL A   1     -23.698   0.300  28.217  0.00  0.00    -0.004 A 
ENDBRANCH   1   5
BRANCH   1   9
ATOM      9  C   UNL A   1     -24.468  -2.590  28.999  0.00  0.00    -0.018 A 
ATOM     10  C   UNL A   1     -23.851  -3.776  28.572  0.00  0.00    -0.004 A 
ATOM     11  C   UNL A   1     -24.271  -4.881  28.636  0.00  0.00    -0.000 A 
ATOM     12  C   UNL A   1     -25.469  -5.192  29.348  0.00  0.00    -0.000 A 
ATOM     13  C   UNL A   1     -26.343  -4.084  29.655  0.00  0.00    -0.000 A 
ATOM     14  C   UNL A   1     -25.680  -3.033  30.001  0.00  0.00    -0.004 A 
ENDBRANCH   1   9
TORSDOF 2
ENDMDL
ENDMDL
