MODEL 3152
MODEL 1
REMARK VINA RESULT:    -7.436      0.000      0.000
REMARK INTER + INTRA:          -9.595
REMARK INTER:                  -8.740
REMARK INTRA:                  -0.855
REMARK UNBOUND:                -0.855
REMARK  Name = No_3152-gen_results/8p0m/2024-11-26-14-13-15/
REMARK  3 active torsions:
REMARK  status: ('A' for Active; 'I' for Inactive)
REMARK    1  A    between atoms: C_1  and  C_3
REMARK    2  A    between atoms: C_3  and  C_4
REMARK    3  A    between atoms: C_4  and  C_12
REMARK                            x       y       z     vdW  Elec       q    Type
REMARK                         _______ _______ _______ _____ _____    ______ ____
ROOT
ATOM      1  C   UNL A   1     -23.343  -1.670  29.030  0.00  0.00    +0.177 C 
ATOM      2  O   UNL A   1     -22.097  -1.674  28.951  0.00  0.00    -0.291 OA
ENDROOT
BRANCH   1   3
ATOM      3  C   UNL A   1     -24.167  -2.824  29.256  0.00  0.00    +0.036 A 
ATOM      4  C   UNL A   1     -23.860  -3.714  28.784  0.00  0.00    +0.003 A 
ATOM      5  C   UNL A   1     -24.726  -5.027  28.834  0.00  0.00    +0.001 A 
ATOM      6  C   UNL A   1     -25.895  -4.890  29.576  0.00  0.00    +0.011 A 
ATOM      7  C   UNL A   1     -26.398  -3.664  29.880  0.00  0.00    +0.058 A 
ATOM      8  C   UNL A   1     -25.612  -2.558  29.584  0.00  0.00    +0.014 A 
ATOM      9 CL   UNL A   1     -27.978  -3.534  30.476  0.00  0.00    -0.082 Cl
ENDBRANCH   1   3
BRANCH   1  10
ATOM     10  C   UNL A   1     -23.884  -0.306  29.196  0.00  0.00    +0.084 C 
ATOM     11  C   UNL A   1     -23.350   0.592  30.048  0.00  0.00    +0.013 C 
BRANCH  10  12
ATOM     12  C   UNL A   1     -23.956   0.459  27.870  0.00  0.00    -0.015 A 
ATOM     13  C   UNL A   1     -24.636   0.118  26.871  0.00  0.00    -0.004 A 
ATOM     14  C   UNL A   1     -24.642   0.929  25.675  0.00  0.00    -0.000 A 
ATOM     15  C   UNL A   1     -23.655   1.882  25.529  0.00  0.00    -0.000 A 
ATOM     16  C   UNL A   1     -22.796   2.172  26.489  0.00  0.00    -0.000 A 
ATOM     17  C   UNL A   1     -22.888   1.468  27.684  0.00  0.00    -0.004 A 
ENDBRANCH  10  12
ENDBRANCH   1  10
TORSDOF 3
ENDMDL
ENDMDL
