REMARK  Name = No_3152-gen_results/8p0m/2024-11-26-14-13-15/
REMARK  3 active torsions:
REMARK  status: ('A' for Active; 'I' for Inactive)
REMARK    1  A    between atoms: C_1  and  C_3
REMARK    2  A    between atoms: C_3  and  C_4
REMARK    3  A    between atoms: C_4  and  C_12
REMARK                            x       y       z     vdW  Elec       q    Type
REMARK                         _______ _______ _______ _____ _____    ______ ____
ROOT
ATOM      1  C   UNL A   1     -28.196   0.348  28.055  0.00  0.00    +0.177 C 
ATOM      2  O   UNL A   1     -29.139   1.161  28.145  0.00  0.00    -0.291 OA
ENDROOT
BRANCH   1   3
ATOM      3  C   UNL A   1     -28.016  -0.814  28.878  0.00  0.00    +0.036 A 
ATOM      4  C   UNL A   1     -28.469  -0.785  29.829  0.00  0.00    +0.003 A 
ATOM      5  C   UNL A   1     -28.256  -1.927  30.890  0.00  0.00    +0.001 A 
ATOM      6  C   UNL A   1     -27.449  -2.964  30.432  0.00  0.00    +0.011 A 
ATOM      7  C   UNL A   1     -26.641  -2.804  29.351  0.00  0.00    +0.058 A 
ATOM      8  C   UNL A   1     -26.783  -1.636  28.612  0.00  0.00    +0.014 A 
ATOM      9 CL   UNL A   1     -25.435  -3.950  29.032  0.00  0.00    -0.082 Cl
ENDBRANCH   1   3
BRANCH   1  10
ATOM     10  C   UNL A   1     -27.442   0.510  26.795  0.00  0.00    +0.084 C 
ATOM     11  C   UNL A   1     -27.843   1.333  25.806  0.00  0.00    +0.013 C 
BRANCH  10  12
ATOM     12  C   UNL A   1     -25.986   0.924  27.035  0.00  0.00    -0.015 A 
ATOM     13  C   UNL A   1     -25.197   1.349  26.155  0.00  0.00    -0.004 A 
ATOM     14  C   UNL A   1     -23.846   1.728  26.500  0.00  0.00    -0.000 A 
ATOM     15  C   UNL A   1     -23.344   1.312  27.716  0.00  0.00    -0.000 A 
ATOM     16  C   UNL A   1     -24.085   0.705  28.625  0.00  0.00    -0.000 A 
ATOM     17  C   UNL A   1     -25.420   0.463  28.324  0.00  0.00    -0.004 A 
ENDBRANCH  10  12
ENDBRANCH   1  10
TORSDOF 3
