MODEL 3153
MODEL 1
REMARK VINA RESULT:    -5.845      0.000      0.000
REMARK INTER + INTRA:          -6.804
REMARK INTER:                  -6.528
REMARK INTRA:                  -0.276
REMARK UNBOUND:                -0.276
REMARK  Name = No_3153-gen_results/8p0m/2024-11-26-14-13-15/
REMARK  2 active torsions:
REMARK  status: ('A' for Active; 'I' for Inactive)
REMARK    1  A    between atoms: C_2  and  C_11
REMARK    2  A    between atoms: C_3  and  C_7
REMARK                            x       y       z     vdW  Elec       q    Type
REMARK                         _______ _______ _______ _____ _____    ______ ____
ROOT
ATOM      1  C   UNL A   1     -28.437 -11.825  31.230  0.00  0.00    +0.010 A 
ATOM      2  C   UNL A   1     -28.303 -11.523  32.230  0.00  0.00    +0.080 A 
ATOM      3  C   UNL A   1     -29.326 -11.074  30.428  0.00  0.00    +0.072 A 
ATOM      4  C   UNL A   1     -30.015  -9.985  30.925  0.00  0.00    +0.004 A 
ATOM      5  C   UNL A   1     -29.775  -9.654  32.248  0.00  0.00    +0.000 A 
ATOM      6  C   UNL A   1     -28.871 -10.393  32.981  0.00  0.00    +0.007 A 
ENDROOT
BRANCH   3   7
ATOM      7  C   UNL A   1     -29.592 -11.379  28.985  0.00  0.00    +0.419 C 
ATOM      8  F   UNL A   1     -28.580 -11.708  28.420  0.00  0.00    -0.166 F 
ATOM      9  F   UNL A   1     -30.108 -10.313  28.281  0.00  0.00    -0.166 F 
ATOM     10  F   UNL A   1     -30.589 -12.329  28.856  0.00  0.00    -0.166 F 
ENDBRANCH   3   7
BRANCH   2  11
ATOM     11  C   UNL A   1     -27.198 -12.259  33.161  0.00  0.00    +0.388 C 
ATOM     12  O   UNL A   1     -26.381 -12.966  32.601  0.00  0.00    -0.241 OA
ATOM     13  O   UNL A   1     -27.340 -12.223  34.364  0.00  0.00    -0.241 OA
ENDBRANCH   2  11
TORSDOF 2
ENDMDL
ENDMDL
