REMARK  Name = No_3154-gen_results/8p0m/2024-11-26-14-13-15/
REMARK  1 active torsions:
REMARK  status: ('A' for Active; 'I' for Inactive)
REMARK    1  A    between atoms: C_4  and  C_8
REMARK                            x       y       z     vdW  Elec       q    Type
REMARK                         _______ _______ _______ _____ _____    ______ ____
ROOT
ATOM      1  C   UNL A   1     -28.016  -0.814  28.878  0.00  0.00    +0.041 A 
ATOM      2  C   UNL A   1     -28.469  -0.785  29.829  0.00  0.00    +0.060 A 
ATOM      3  C   UNL A   1     -26.504  -0.778  28.877  0.00  0.00    +0.141 A 
ATOM      4  C   UNL A   1     -25.810  -0.853  30.103  0.00  0.00    +0.028 A 
ATOM      5  C   UNL A   1     -27.991  -0.892  31.226  0.00  0.00    +0.011 A 
ATOM      6  C   UNL A   1     -26.604  -0.868  31.265  0.00  0.00    +0.003 A 
ATOM      7 CL   UNL A   1     -30.294  -0.838  29.835  0.00  0.00    -0.082 Cl
ATOM      8  F   UNL A   1     -25.860  -0.780  27.735  0.00  0.00    -0.204 F 
ENDROOT
BRANCH   4   9
ATOM      9  C   UNL A   1     -24.390  -0.716  29.939  0.00  0.00    +0.002 A 
ATOM     10  C   UNL A   1     -23.808   0.617  30.235  0.00  0.00    +0.002 A 
ATOM     11  C   UNL A   1     -22.524   0.885  29.715  0.00  0.00    +0.018 A 
ATOM     12  C   UNL A   1     -21.791  -0.092  29.013  0.00  0.00    +0.089 A 
ATOM     13  N   UNL A   1     -20.628   0.247  28.551  0.00  0.00    -0.128 NA
ATOM     14  C   UNL A   1     -22.347  -1.418  28.859  0.00  0.00    +0.018 A 
ATOM     15  C   UNL A   1     -23.694  -1.677  29.238  0.00  0.00    +0.002 A 
ENDBRANCH   4   9
TORSDOF 1
