MODEL 3154
MODEL 1
REMARK VINA RESULT:    -6.036      0.000      0.000
REMARK INTER + INTRA:          -6.702
REMARK INTER:                  -6.389
REMARK INTRA:                  -0.313
REMARK UNBOUND:                -0.313
REMARK  Name = No_3154-gen_results/8p0m/2024-11-26-14-13-15/
REMARK  1 active torsions:
REMARK  status: ('A' for Active; 'I' for Inactive)
REMARK    1  A    between atoms: C_4  and  C_8
REMARK                            x       y       z     vdW  Elec       q    Type
REMARK                         _______ _______ _______ _____ _____    ______ ____
ROOT
ATOM      1  C   UNL A   1     -24.234   1.005  26.015  0.00  0.00    +0.041 A 
ATOM      2  C   UNL A   1     -23.375   1.527  26.333  0.00  0.00    +0.060 A 
ATOM      3  C   UNL A   1     -24.691  -0.110  26.928  0.00  0.00    +0.141 A 
ATOM      4  C   UNL A   1     -24.055  -0.287  28.175  0.00  0.00    +0.028 A 
ATOM      5  C   UNL A   1     -22.565   1.565  27.571  0.00  0.00    +0.011 A 
ATOM      6  C   UNL A   1     -22.960   0.557  28.439  0.00  0.00    +0.003 A 
ATOM      7 CL   UNL A   1     -22.825   2.881  25.238  0.00  0.00    -0.082 Cl
ATOM      8  F   UNL A   1     -25.734  -0.830  26.594  0.00  0.00    -0.204 F 
ENDROOT
BRANCH   4   9
ATOM      9  C   UNL A   1     -24.543  -1.439  28.881  0.00  0.00    +0.002 A 
ATOM     10  C   UNL A   1     -23.844  -2.724  28.626  0.00  0.00    +0.002 A 
ATOM     11  C   UNL A   1     -24.529  -3.906  28.982  0.00  0.00    +0.018 A 
ATOM     12  C   UNL A   1     -25.783  -3.871  29.621  0.00  0.00    +0.089 A 
ATOM     13  N   UNL A   1     -26.351  -5.005  29.892  0.00  0.00    -0.128 NA
ATOM     14  C   UNL A   1     -26.367  -2.593  29.963  0.00  0.00    +0.018 A 
ATOM     15  C   UNL A   1     -25.778  -1.388  29.489  0.00  0.00    +0.002 A 
ENDBRANCH   4   9
TORSDOF 1
ENDMDL
ENDMDL
