MODEL 3155
MODEL 1
REMARK VINA RESULT:    -6.566      0.000      0.000
REMARK INTER + INTRA:          -7.760
REMARK INTER:                  -7.334
REMARK INTRA:                  -0.426
REMARK UNBOUND:                -0.426
REMARK  Name = No_3155-gen_results/8p0m/2024-11-26-14-13-15/
REMARK  2 active torsions:
REMARK  status: ('A' for Active; 'I' for Inactive)
REMARK    1  A    between atoms: C_3  and  C_7
REMARK    2  A    between atoms: C_6  and  C_13
REMARK                            x       y       z     vdW  Elec       q    Type
REMARK                         _______ _______ _______ _____ _____    ______ ____
ROOT
ATOM      1  C   UNL A   1     -29.404 -10.166  32.423  0.00  0.00    +0.007 A 
ATOM      2  C   UNL A   1     -29.751 -10.118  31.265  0.00  0.00    +0.000 A 
ATOM      3  C   UNL A   1     -29.290 -10.994  30.284  0.00  0.00    +0.000 A 
ATOM      4  C   UNL A   1     -28.294 -11.988  30.636  0.00  0.00    +0.000 A 
ATOM      5  C   UNL A   1     -27.907 -11.996  31.976  0.00  0.00    +0.007 A 
ATOM      6  C   UNL A   1     -28.388 -11.121  32.837  0.00  0.00    +0.080 A 
ENDROOT
BRANCH   3   7
ATOM      7  C   UNL A   1     -29.672 -11.005  28.836  0.00  0.00    +0.000 A 
ATOM      8  C   UNL A   1     -30.689 -10.322  28.392  0.00  0.00    +0.000 A 
ATOM      9  C   UNL A   1     -31.099 -10.408  27.027  0.00  0.00    +0.000 A 
ATOM     10  C   UNL A   1     -30.566 -11.328  26.156  0.00  0.00    +0.000 A 
ATOM     11  C   UNL A   1     -29.052 -11.973  27.918  0.00  0.00    +0.000 A 
ATOM     12  C   UNL A   1     -29.511 -12.081  26.584  0.00  0.00    +0.000 A 
ENDBRANCH   3   7
BRANCH   6  13
ATOM     13  C   UNL A   1     -27.869 -11.170  34.234  0.00  0.00    +0.388 C 
ATOM     14  O   UNL A   1     -27.948 -10.342  34.938  0.00  0.00    -0.241 OA
ATOM     15  O   UNL A   1     -27.244 -12.316  34.556  0.00  0.00    -0.241 OA
ENDBRANCH   6  13
TORSDOF 2
ENDMDL
ENDMDL
