MODEL 3156
MODEL 1
REMARK VINA RESULT:    -8.111      0.000      0.000
REMARK INTER + INTRA:         -10.582
REMARK INTER:                 -10.008
REMARK INTRA:                  -0.574
REMARK UNBOUND:                -0.574
REMARK  Name = No_3156-gen_results/8p0m/2024-11-26-14-13-15/
REMARK  4 active torsions:
REMARK  status: ('A' for Active; 'I' for Inactive)
REMARK    1  A    between atoms: C_2  and  N_7
REMARK    2  A    between atoms: C_3  and  C_17
REMARK    3  A    between atoms: C_17  and  C_18
REMARK    4  A    between atoms: C_18  and  C_19
REMARK                            x       y       z     vdW  Elec       q    Type
REMARK                         _______ _______ _______ _____ _____    ______ ____
ROOT
ATOM      1  C   UNL A   1     -23.830   0.122  28.118  0.00  0.00    +0.011 A 
ATOM      2  C   UNL A   1     -23.522  -0.481  28.926  0.00  0.00    +0.051 A 
ATOM      3  C   UNL A   1     -22.747   0.971  27.491  0.00  0.00    -0.021 A 
ATOM      4  C   UNL A   1     -21.410   0.807  27.911  0.00  0.00    -0.004 A 
ATOM      5  C   UNL A   1     -22.221  -0.854  29.524  0.00  0.00    +0.015 A 
ATOM      6  C   UNL A   1     -21.199  -0.097  28.969  0.00  0.00    +0.001 A 
ENDROOT
BRANCH   2   7
ATOM      7  N   UNL A   1     -24.718  -1.217  29.444  0.00  0.00    -0.287 N 
ATOM      8  C   UNL A   1     -24.849  -2.531  29.200  0.00  0.00    +0.048 A 
ATOM      9  C   UNL A   1     -25.995  -3.118  29.743  0.00  0.00    -0.009 A 
ATOM     10  C   UNL A   1     -26.191  -4.515  29.701  0.00  0.00    -0.003 A 
ATOM     11  C   UNL A   1     -25.149  -5.244  29.007  0.00  0.00    -0.000 A 
ATOM     12  C   UNL A   1     -24.047  -4.632  28.504  0.00  0.00    +0.001 A 
ATOM     13  C   UNL A   1     -23.842  -3.264  28.598  0.00  0.00    +0.015 A 
ATOM     14  C   UNL A   1     -25.819  -0.425  29.827  0.00  0.00    +0.096 C 
ATOM     15  C   UNL A   1     -26.940  -1.052  30.267  0.00  0.00    +0.026 C 
ATOM     16  C   UNL A   1     -27.017  -2.312  30.245  0.00  0.00    +0.029 C 
ENDBRANCH   2   7
BRANCH   3  17
ATOM     17  C   UNL A   1     -22.973   1.943  26.404  0.00  0.00    +0.031 C 
BRANCH  17  18
ATOM     18  C   UNL A   1     -24.380   1.997  25.974  0.00  0.00    +0.026 C 
ATOM     19  C   UNL A   1     -24.896   1.017  25.101  0.00  0.00    +0.005 C 
BRANCH  18  20
ATOM     20  C   UNL A   1     -24.831   3.279  25.844  0.00  0.00    -0.031 C 
ATOM     21  C   UNL A   1     -24.846   4.137  27.014  0.00  0.00    -0.030 C 
ATOM     22  C   UNL A   1     -25.235   5.512  26.919  0.00  0.00    +0.030 C 
ENDBRANCH  18  20
ENDBRANCH  17  18
ENDBRANCH   3  17
TORSDOF 4
ENDMDL
ENDMDL
