REMARK  Name = No_3157-gen_results/8p0m/2024-11-26-14-13-15/
REMARK  5 active torsions:
REMARK  status: ('A' for Active; 'I' for Inactive)
REMARK    1  A    between atoms: C_2  and  C_10
REMARK    2  A    between atoms: N_16  and  C_17
REMARK    3  A    between atoms: C_17  and  C_18
REMARK    4  A    between atoms: C_19  and  C_20
REMARK    5  A    between atoms: C_21  and  C_22
REMARK                            x       y       z     vdW  Elec       q    Type
REMARK                         _______ _______ _______ _____ _____    ______ ____
ROOT
ATOM      1  C   UNL A   1     -28.016  -0.814  28.878  0.00  0.00    +0.004 A 
ATOM      2  C   UNL A   1     -27.064  -0.119  28.608  0.00  0.00    +0.073 A 
ATOM      3  C   UNL A   1     -26.972   0.714  27.506  0.00  0.00    +0.019 A 
ATOM      4  C   UNL A   1     -28.105   0.774  26.642  0.00  0.00    +0.054 A 
ATOM      5  C   UNL A   1     -29.201   0.104  27.053  0.00  0.00    +0.067 A 
ATOM      6  C   UNL A   1     -29.210  -0.603  28.185  0.00  0.00    +0.006 A 
ATOM      7  C   UNL A   1     -30.285   0.274  26.012  0.00  0.00    +0.252 C 
ATOM      8  N   UNL A   1     -30.156   0.497  24.855  0.00  0.00    -0.257 N 
ATOM      9  O   UNL A   1     -31.478  -0.088  26.459  0.00  0.00    -0.270 OA
ATOM     10  C   UNL A   1     -31.215   0.505  23.806  0.00  0.00    +0.117 C 
ATOM     11  C   UNL A   1     -28.876   0.920  24.151  0.00  0.00    +0.191 C 
ATOM     12  N   UNL A   1     -27.852   1.266  25.397  0.00  0.00    -0.286 N 
ENDROOT
BRANCH   2  13
ATOM     13  C   UNL A   1     -25.713  -0.220  29.446  0.00  0.00    +0.419 C 
ATOM     14  F   UNL A   1     -24.755  -0.643  28.787  0.00  0.00    -0.166 F 
ATOM     15  F   UNL A   1     -25.871  -1.077  30.506  0.00  0.00    -0.166 F 
ATOM     16  F   UNL A   1     -25.389   0.934  29.964  0.00  0.00    -0.166 F 
ENDBRANCH   2  13
BRANCH  12  17
ATOM     17  C   UNL A   1     -26.679   1.987  25.024  0.00  0.00    +0.119 C 
BRANCH  17  18
ATOM     18  C   UNL A   1     -25.454   1.169  25.316  0.00  0.00    -0.005 C 
ATOM     19  C   UNL A   1     -24.325   1.895  25.738  0.00  0.00    -0.003 C 
BRANCH  19  20
ATOM     20  C   UNL A   1     -23.443   1.877  26.610  0.00  0.00    +0.001 C 
ATOM     21  C   UNL A   1     -23.762   1.788  28.002  0.00  0.00    +0.022 C 
BRANCH  21  22
ATOM     22  C   UNL A   1     -22.679   1.836  28.998  0.00  0.00    +0.122 C 
ATOM     23  N   UNL A   1     -21.481   1.675  28.470  0.00  0.00    -0.146 NA
ENDBRANCH  21  22
ENDBRANCH  19  20
ENDBRANCH  17  18
ENDBRANCH  12  17
TORSDOF 5
