REMARK  Name = No_3158-gen_results/8p0m/2024-11-26-14-13-15/
REMARK  5 active torsions:
REMARK  status: ('A' for Active; 'I' for Inactive)
REMARK    1  A    between atoms: C_2  and  C_10
REMARK    2  A    between atoms: C_5  and  C_6
REMARK    3  A    between atoms: N_8  and  C_15
REMARK    4  A    between atoms: C_16  and  C_17
REMARK    5  A    between atoms: C_18  and  C_19
REMARK                            x       y       z     vdW  Elec       q    Type
REMARK                         _______ _______ _______ _____ _____    ______ ____
ROOT
ATOM      1  C   UNL A   1     -28.016  -0.814  28.878  0.00  0.00    +0.004 A 
ATOM      2  C   UNL A   1     -27.064  -0.119  28.608  0.00  0.00    +0.071 A 
ATOM      3  C   UNL A   1     -27.001   0.691  27.491  0.00  0.00    +0.004 A 
ATOM      4  C   UNL A   1     -28.137   0.736  26.635  0.00  0.00    +0.004 A 
ATOM      5  C   UNL A   1     -29.236   0.076  27.069  0.00  0.00    +0.054 A 
ATOM      6  C   UNL A   1     -29.180  -0.642  28.183  0.00  0.00    +0.004 A 
ENDROOT
BRANCH   5   7
ATOM      7  C   UNL A   1     -30.381   0.205  26.266  0.00  0.00    +0.253 C 
ATOM      8  N   UNL A   1     -30.365   0.017  24.997  0.00  0.00    -0.252 N 
ATOM      9  O   UNL A   1     -31.553   0.268  26.801  0.00  0.00    -0.270 OA
ATOM     10  C   UNL A   1     -29.139  -0.238  24.240  0.00  0.00    +0.120 C 
BRANCH   8  11
ATOM     11  C   UNL A   1     -31.517   0.077  24.096  0.00  0.00    +0.068 C 
ATOM     12  C   UNL A   1     -32.148   1.102  24.102  0.00  0.00    +0.016 C 
BRANCH  12  13
ATOM     13  C   UNL A   1     -33.358   1.374  23.408  0.00  0.00    +0.001 C 
ATOM     14  C   UNL A   1     -34.024   2.616  23.363  0.00  0.00    +0.000 C 
BRANCH  14  15
ATOM     15  C   UNL A   1     -33.467   3.538  24.097  0.00  0.00    +0.000 C 
ATOM     16  C   UNL A   1     -32.294   3.487  24.844  0.00  0.00    +0.000 C 
ENDBRANCH  14  15
ENDBRANCH  12  13
ENDBRANCH   8  11
ENDBRANCH   5   7
BRANCH   2  17
ATOM     17  C   UNL A   1     -25.695  -0.210  29.415  0.00  0.00    +0.419 C 
ATOM     18  F   UNL A   1     -24.733  -0.456  28.743  0.00  0.00    -0.166 F 
ATOM     19  F   UNL A   1     -25.808  -1.176  30.395  0.00  0.00    -0.166 F 
ATOM     20  F   UNL A   1     -25.506   0.938  30.068  0.00  0.00    -0.166 F 
ENDBRANCH   2  17
TORSDOF 5
