MODEL 3158
MODEL 1
REMARK VINA RESULT:    -6.186      0.000      0.000
REMARK INTER + INTRA:          -8.433
REMARK INTER:                  -7.995
REMARK INTRA:                  -0.438
REMARK UNBOUND:                -0.438
REMARK  Name = No_3158-gen_results/8p0m/2024-11-26-14-13-15/
REMARK  5 active torsions:
REMARK  status: ('A' for Active; 'I' for Inactive)
REMARK    1  A    between atoms: C_2  and  C_10
REMARK    2  A    between atoms: C_5  and  C_6
REMARK    3  A    between atoms: N_8  and  C_15
REMARK    4  A    between atoms: C_16  and  C_17
REMARK    5  A    between atoms: C_18  and  C_19
REMARK                            x       y       z     vdW  Elec       q    Type
REMARK                         _______ _______ _______ _____ _____    ______ ____
ROOT
ATOM      1  C   UNL A   1     -29.610   0.169  23.592  0.00  0.00    +0.004 A 
ATOM      2  C   UNL A   1     -29.805   1.336  23.342  0.00  0.00    +0.071 A 
ATOM      3  C   UNL A   1     -28.954   2.353  23.728  0.00  0.00    +0.004 A 
ATOM      4  C   UNL A   1     -27.764   1.998  24.424  0.00  0.00    +0.004 A 
ATOM      5  C   UNL A   1     -27.508   0.673  24.529  0.00  0.00    +0.054 A 
ATOM      6  C   UNL A   1     -28.393  -0.209  24.084  0.00  0.00    +0.004 A 
ENDROOT
BRANCH   5   7
ATOM      7  C   UNL A   1     -26.285   0.335  25.132  0.00  0.00    +0.253 C 
ATOM      8  N   UNL A   1     -26.163   0.141  26.394  0.00  0.00    -0.252 N 
ATOM      9  O   UNL A   1     -25.284  -0.046  24.414  0.00  0.00    -0.270 OA
ATOM     10  C   UNL A   1     -27.250   0.361  27.348  0.00  0.00    +0.120 C 
BRANCH   8  11
ATOM     11  C   UNL A   1     -24.944  -0.266  27.096  0.00  0.00    +0.068 C 
ATOM     12  C   UNL A   1     -25.085  -1.034  28.012  0.00  0.00    +0.016 C 
BRANCH  12  13
ATOM     13  C   UNL A   1     -24.087  -1.495  28.912  0.00  0.00    +0.001 C 
ATOM     14  C   UNL A   1     -23.842  -2.840  29.256  0.00  0.00    +0.000 C 
BRANCH  14  15
ATOM     15  C   UNL A   1     -24.681  -3.681  28.720  0.00  0.00    +0.000 C 
ATOM     16  C   UNL A   1     -24.922  -5.015  29.035  0.00  0.00    +0.000 C 
ENDBRANCH  14  15
ENDBRANCH  12  13
ENDBRANCH   8  11
ENDBRANCH   5   7
BRANCH   2  17
ATOM     17  C   UNL A   1     -31.170   1.847  22.704  0.00  0.00    +0.419 C 
ATOM     18  F   UNL A   1     -31.898   2.417  23.467  0.00  0.00    -0.166 F 
ATOM     19  F   UNL A   1     -31.851   0.773  22.165  0.00  0.00    -0.166 F 
ATOM     20  F   UNL A   1     -30.888   2.643  21.671  0.00  0.00    -0.166 F 
ENDBRANCH   2  17
TORSDOF 5
ENDMDL
ENDMDL
