MODEL 3159
MODEL 1
REMARK VINA RESULT:    -5.000      0.000      0.000
REMARK INTER + INTRA:          -5.000
REMARK INTER:                  -5.000
REMARK INTRA:                   0.000
REMARK UNBOUND:                 0.000
REMARK  Name = No_3159-gen_results/8p0m/2024-11-26-14-13-15/
REMARK  0 active torsions:
REMARK  status: ('A' for Active; 'I' for Inactive)
REMARK                            x       y       z     vdW  Elec       q    Type
REMARK                         _______ _______ _______ _____ _____    ______ ____
ROOT
ATOM      1  C   UNL A   1     -10.417  -9.329  19.061  0.00  0.00    +0.042 A 
ATOM      2  C   UNL A   1      -9.606  -9.168  19.943  0.00  0.00    +0.003 A 
ATOM      3  C   UNL A   1      -8.354  -9.771  19.887  0.00  0.00    +0.000 A 
ATOM      4  C   UNL A   1      -8.001 -10.645  18.798  0.00  0.00    +0.003 A 
ATOM      5  C   UNL A   1      -9.006 -10.795  17.834  0.00  0.00    +0.042 A 
ATOM      6  C   UNL A   1     -10.180 -10.216  17.942  0.00  0.00    +0.196 A 
ATOM      7  O   UNL A   1     -11.116 -10.444  16.980  0.00  0.00    -0.287 OA
ENDROOT
TORSDOF 0
ENDMDL
ENDMDL
