MODEL 315
MODEL 1
REMARK VINA RESULT:    -4.007      0.000      0.000
REMARK INTER + INTRA:          -4.378
REMARK INTER:                  -4.242
REMARK INTRA:                  -0.136
REMARK UNBOUND:                -0.136
REMARK  Name = No_315-gen_results/8p0m/2024-11-26-14-13-15/
REMARK  1 active torsions:
REMARK  status: ('A' for Active; 'I' for Inactive)
REMARK    1  A    between atoms: C_2  and  C_4
REMARK                            x       y       z     vdW  Elec       q    Type
REMARK                         _______ _______ _______ _____ _____    ______ ____
ROOT
ATOM      1  F   UNL A   1      -7.347 -10.360  20.815  0.00  0.00    -0.193 F 
ATOM      2  C   UNL A   1      -7.646  -9.437  20.048  0.00  0.00    +0.341 C 
ATOM      3  F   UNL A   1      -7.079  -8.518  19.921  0.00  0.00    -0.193 F 
ENDROOT
BRANCH   2   4
ATOM      4  C   UNL A   1      -9.128  -9.036  20.192  0.00  0.00    +0.040 C 
ATOM      5  C   UNL A   1      -9.967  -9.430  19.604  0.00  0.00    -0.025 C 
ATOM      6  C   UNL A   1      -9.565  -9.818  18.112  0.00  0.00    +0.030 C 
ENDBRANCH   2   4
TORSDOF 1
ENDMDL
ENDMDL
