REMARK  Name = No_3160-gen_results/8p0m/2024-11-26-14-13-15/
REMARK  6 active torsions:
REMARK  status: ('A' for Active; 'I' for Inactive)
REMARK    1  A    between atoms: C_2  and  C_3
REMARK    2  A    between atoms: C_3  and  C_5
REMARK    3  A    between atoms: C_3  and  C_22
REMARK    4  A    between atoms: N_4  and  C_11
REMARK    5  A    between atoms: N_4  and  C_19
REMARK    6  A    between atoms: C_19  and  C_20
REMARK                            x       y       z     vdW  Elec       q    Type
REMARK                         _______ _______ _______ _____ _____    ______ ____
ROOT
ATOM      1  C   UNL A   1     -26.380  -0.087  27.939  0.00  0.00    +0.121 C 
ENDROOT
BRANCH   1   2
ATOM      2  C   UNL A   1     -25.124  -0.532  28.371  0.00  0.00    -0.009 A 
ATOM      3  C   UNL A   1     -24.802  -1.710  28.792  0.00  0.00    -0.003 A 
ATOM      4  C   UNL A   1     -23.471  -2.142  29.141  0.00  0.00    +0.001 A 
ATOM      5  C   UNL A   1     -22.476  -1.215  28.974  0.00  0.00    +0.011 A 
ATOM      6  C   UNL A   1     -22.675   0.094  28.506  0.00  0.00    +0.057 A 
ATOM      7  C   UNL A   1     -24.034   0.446  28.200  0.00  0.00    +0.008 A 
ATOM      8 CL   UNL A   1     -21.373   1.137  28.359  0.00  0.00    -0.082 Cl
ENDBRANCH   1   2
BRANCH   1   9
ATOM      9  C   UNL A   1     -26.565   0.294  26.553  0.00  0.00    -0.010 A 
ATOM     10  C   UNL A   1     -27.814   0.661  26.060  0.00  0.00    -0.004 A 
ATOM     11  C   UNL A   1     -28.013   1.030  24.773  0.00  0.00    -0.000 A 
ATOM     12  C   UNL A   1     -25.541   0.319  25.626  0.00  0.00    -0.004 A 
ATOM     13  C   UNL A   1     -25.653   0.460  24.276  0.00  0.00    -0.000 A 
ATOM     14  C   UNL A   1     -26.935   0.856  23.901  0.00  0.00    -0.000 A 
ENDBRANCH   1   9
BRANCH   1  16
ATOM     15  O   UNL A   1     -28.123  -1.335  28.487  0.00  0.00    -0.274 OA
ATOM     16  C   UNL A   1     -27.481  -0.404  28.709  0.00  0.00    +0.237 C 
ATOM     17  N   UNL A   1     -27.899   0.646  29.632  0.00  0.00    -0.257 N 
BRANCH  17  18
ATOM     18  C   UNL A   1     -27.280   1.903  29.849  0.00  0.00    +0.055 A 
ATOM     19  C   UNL A   1     -27.404   2.296  30.950  0.00  0.00    +0.015 A 
ATOM     20  C   UNL A   1     -26.690   3.570  31.379  0.00  0.00    +0.002 A 
ATOM     21  C   UNL A   1     -25.970   4.269  30.370  0.00  0.00    +0.011 A 
ATOM     22  C   UNL A   1     -25.876   3.684  29.106  0.00  0.00    +0.059 A 
ATOM     23  C   UNL A   1     -26.495   2.464  28.858  0.00  0.00    +0.026 A 
ATOM     24 CL   UNL A   1     -24.925   4.476  27.924  0.00  0.00    -0.082 Cl
ENDBRANCH  17  18
BRANCH  17  25
ATOM     25  C   UNL A   1     -29.265   0.457  30.083  0.00  0.00    +0.116 C 
BRANCH  25  26
ATOM     26  C   UNL A   1     -30.277   0.832  29.227  0.00  0.00    +0.117 C 
ATOM     27 CL   UNL A   1     -31.392   1.107  29.360  0.00  0.00    -0.112 Cl
ENDBRANCH  25  26
ENDBRANCH  17  25
ENDBRANCH   1  16
TORSDOF 6
