MODEL 3160
MODEL 1
REMARK VINA RESULT:    -7.359      0.000      0.000
REMARK INTER + INTRA:         -11.598
REMARK INTER:                  -9.940
REMARK INTRA:                  -1.658
REMARK UNBOUND:                -1.658
REMARK  Name = No_3160-gen_results/8p0m/2024-11-26-14-13-15/
REMARK  6 active torsions:
REMARK  status: ('A' for Active; 'I' for Inactive)
REMARK    1  A    between atoms: C_2  and  C_3
REMARK    2  A    between atoms: C_3  and  C_5
REMARK    3  A    between atoms: C_3  and  C_22
REMARK    4  A    between atoms: N_4  and  C_11
REMARK    5  A    between atoms: N_4  and  C_19
REMARK    6  A    between atoms: C_19  and  C_20
REMARK                            x       y       z     vdW  Elec       q    Type
REMARK                         _______ _______ _______ _____ _____    ______ ____
ROOT
ATOM      1  C   UNL A   1     -24.090  -1.004  30.149  0.00  0.00    +0.121 C 
ENDROOT
BRANCH   1   2
ATOM      2  C   UNL A   1     -24.431  -2.270  29.656  0.00  0.00    -0.009 A 
ATOM      3  C   UNL A   1     -23.690  -3.084  28.981  0.00  0.00    -0.003 A 
ATOM      4  C   UNL A   1     -24.061  -4.417  28.573  0.00  0.00    +0.001 A 
ATOM      5  C   UNL A   1     -25.300  -4.844  28.975  0.00  0.00    +0.011 A 
ATOM      6  C   UNL A   1     -26.202  -4.077  29.730  0.00  0.00    +0.057 A 
ATOM      7  C   UNL A   1     -25.759  -2.755  30.076  0.00  0.00    +0.008 A 
ATOM      8 CL   UNL A   1     -27.695  -4.713  30.147  0.00  0.00    -0.082 Cl
ENDBRANCH   1   2
BRANCH   1   9
ATOM      9  C   UNL A   1     -24.496  -0.626  31.488  0.00  0.00    -0.010 A 
ATOM     10  C   UNL A   1     -23.891  -1.176  32.614  0.00  0.00    -0.004 A 
ATOM     11  C   UNL A   1     -24.243  -0.834  33.875  0.00  0.00    -0.000 A 
ATOM     12  C   UNL A   1     -25.497   0.289  31.751  0.00  0.00    -0.004 A 
ATOM     13  C   UNL A   1     -26.081   0.550  32.954  0.00  0.00    -0.000 A 
ATOM     14  C   UNL A   1     -25.376  -0.026  34.008  0.00  0.00    -0.000 A 
ENDBRANCH   1   9
BRANCH   1  16
ATOM     15  O   UNL A   1     -21.999  -0.299  29.991  0.00  0.00    -0.274 OA
ATOM     16  C   UNL A   1     -23.057  -0.325  29.535  0.00  0.00    +0.237 C 
ATOM     17  N   UNL A   1     -23.468   0.542  28.436  0.00  0.00    -0.257 N 
BRANCH  17  18
ATOM     18  C   UNL A   1     -24.776   0.717  27.916  0.00  0.00    +0.055 A 
ATOM     19  C   UNL A   1     -25.401   1.525  28.498  0.00  0.00    +0.015 A 
ATOM     20  C   UNL A   1     -26.778   1.922  27.987  0.00  0.00    +0.002 A 
ATOM     21  C   UNL A   1     -27.271   1.209  26.858  0.00  0.00    +0.011 A 
ATOM     22  C   UNL A   1     -26.420   0.291  26.239  0.00  0.00    +0.059 A 
ATOM     23  C   UNL A   1     -25.142   0.080  26.744  0.00  0.00    +0.026 A 
ATOM     24 CL   UNL A   1     -26.977  -0.491  24.822  0.00  0.00    -0.082 Cl
ENDBRANCH  17  18
BRANCH  17  25
ATOM     25  C   UNL A   1     -22.457   1.533  28.121  0.00  0.00    +0.116 C 
BRANCH  25  26
ATOM     26  C   UNL A   1     -22.066   1.651  26.806  0.00  0.00    +0.117 C 
ATOM     27 CL   UNL A   1     -22.432   2.273  25.903  0.00  0.00    -0.112 Cl
ENDBRANCH  25  26
ENDBRANCH  17  25
ENDBRANCH   1  16
TORSDOF 6
ENDMDL
ENDMDL
