REMARK  Name = No_3161-gen_results/8p0m/2024-11-26-14-13-15/
REMARK  2 active torsions:
REMARK  status: ('A' for Active; 'I' for Inactive)
REMARK    1  A    between atoms: C_2  and  N_7
REMARK    2  A    between atoms: C_8  and  C_9
REMARK                            x       y       z     vdW  Elec       q    Type
REMARK                         _______ _______ _______ _____ _____    ______ ____
ROOT
ATOM      1  C   UNL A   1     -28.016  -0.814  28.878  0.00  0.00    +0.039 A 
ATOM      2  C   UNL A   1     -27.064  -0.119  28.608  0.00  0.00    +0.162 A 
ATOM      3  N   UNL A   1     -25.818  -0.343  29.049  0.00  0.00    -0.225 NA
ATOM      4  C   UNL A   1     -25.555  -1.473  29.730  0.00  0.00    +0.101 A 
ATOM      5  C   UNL A   1     -26.621  -2.299  30.105  0.00  0.00    +0.021 A 
ATOM      6  C   UNL A   1     -27.835  -1.970  29.676  0.00  0.00    +0.005 A 
ENDROOT
BRANCH   2   7
ATOM      7  N   UNL A   1     -27.368   1.062  27.934  0.00  0.00    -0.225 NA
ATOM      8  C   UNL A   1     -28.106   1.258  26.983  0.00  0.00    +0.100 C 
BRANCH   8   9
ATOM      9  C   UNL A   1     -28.228   2.517  26.233  0.00  0.00    +0.016 C 
ATOM     10  C   UNL A   1     -27.368   3.583  26.648  0.00  0.00    -0.024 C 
ATOM     11  C   UNL A   1     -26.404   3.368  27.600  0.00  0.00    +0.031 C 
ENDBRANCH   8   9
ENDBRANCH   2   7
TORSDOF 2
