REMARK  Name = No_3162-gen_results/8p0m/2024-11-26-14-13-15/
REMARK  2 active torsions:
REMARK  status: ('A' for Active; 'I' for Inactive)
REMARK    1  A    between atoms: N_3  and  C_6
REMARK    2  A    between atoms: C_6  and  C_7
REMARK                            x       y       z     vdW  Elec       q    Type
REMARK                         _______ _______ _______ _____ _____    ______ ____
ROOT
ATOM      1  C   UNL A   1     -26.396  -0.358  30.173  0.00  0.00    +0.123 C 
ENDROOT
BRANCH   1   2
ATOM      2  C   UNL A   1     -25.502   0.589  29.724  0.00  0.00    -0.002 A 
ATOM      3  C   UNL A   1     -25.441   1.069  28.514  0.00  0.00    -0.003 A 
ATOM      4  C   UNL A   1     -24.433   1.975  28.116  0.00  0.00    -0.000 A 
ATOM      5  C   UNL A   1     -23.230   2.041  28.863  0.00  0.00    -0.000 A 
ATOM      6  C   UNL A   1     -23.197   1.440  30.099  0.00  0.00    -0.000 A 
ATOM      7  C   UNL A   1     -24.285   0.686  30.632  0.00  0.00    -0.003 A 
ENDBRANCH   1   2
BRANCH   1  10
ATOM      8  O   UNL A   1     -28.123  -1.335  28.487  0.00  0.00    -0.236 OA
ATOM      9  C   UNL A   1     -28.521  -0.436  29.078  0.00  0.00    +0.394 C 
ATOM     10  N   UNL A   1     -27.786   0.161  30.015  0.00  0.00    -0.247 N 
ATOM     11  F   UNL A   1     -29.757  -0.261  29.168  0.00  0.00    -0.143 F 
ATOM     12  C   UNL A   1     -28.127   1.032  30.952  0.00  0.00    +0.118 C 
ENDBRANCH   1  10
TORSDOF 2
