MODEL 3162
MODEL 1
REMARK VINA RESULT:    -5.382      0.000      0.000
REMARK INTER + INTRA:          -6.109
REMARK INTER:                  -6.011
REMARK INTRA:                  -0.099
REMARK UNBOUND:                -0.099
REMARK  Name = No_3162-gen_results/8p0m/2024-11-26-14-13-15/
REMARK  2 active torsions:
REMARK  status: ('A' for Active; 'I' for Inactive)
REMARK    1  A    between atoms: N_3  and  C_6
REMARK    2  A    between atoms: C_6  and  C_7
REMARK                            x       y       z     vdW  Elec       q    Type
REMARK                         _______ _______ _______ _____ _____    ______ ____
ROOT
ATOM      1  C   UNL A   1     -24.956  -1.168  29.080  0.00  0.00    +0.123 C 
ENDROOT
BRANCH   1   2
ATOM      2  C   UNL A   1     -24.825  -2.537  29.165  0.00  0.00    -0.002 A 
ATOM      3  C   UNL A   1     -24.006  -3.271  28.466  0.00  0.00    -0.003 A 
ATOM      4  C   UNL A   1     -24.000  -4.681  28.555  0.00  0.00    -0.000 A 
ATOM      5  C   UNL A   1     -25.149  -5.346  29.049  0.00  0.00    -0.000 A 
ATOM      6  C   UNL A   1     -26.111  -4.599  29.687  0.00  0.00    -0.000 A 
ATOM      7  C   UNL A   1     -26.047  -3.178  29.805  0.00  0.00    -0.003 A 
ENDBRANCH   1   2
BRANCH   1  10
ATOM      8  O   UNL A   1     -23.795   0.291  27.263  0.00  0.00    -0.236 OA
ATOM      9  C   UNL A   1     -23.161   0.150  28.208  0.00  0.00    +0.394 C 
ATOM     10  N   UNL A   1     -23.617  -0.532  29.257  0.00  0.00    -0.247 N 
ATOM     11  F   UNL A   1     -22.235   0.957  28.450  0.00  0.00    -0.143 F 
ATOM     12  C   UNL A   1     -23.163  -0.610  30.498  0.00  0.00    +0.118 C 
ENDBRANCH   1  10
TORSDOF 2
ENDMDL
ENDMDL
