MODEL 3163
MODEL 1
REMARK VINA RESULT:    -7.357      0.000      0.000
REMARK INTER + INTRA:          -9.600
REMARK INTER:                  -9.077
REMARK INTRA:                  -0.523
REMARK UNBOUND:                -0.523
REMARK  Name = No_3163-gen_results/8p0m/2024-11-26-14-13-15/
REMARK  4 active torsions:
REMARK  status: ('A' for Active; 'I' for Inactive)
REMARK    1  A    between atoms: C_2  and  C_7
REMARK    2  A    between atoms: C_3  and  O_22
REMARK    3  A    between atoms: C_11  and  C_19
REMARK    4  A    between atoms: O_22  and  C_23
REMARK                            x       y       z     vdW  Elec       q    Type
REMARK                         _______ _______ _______ _____ _____    ______ ____
ROOT
ATOM      1  C   UNL A   1     -27.680  -0.133  28.892  0.00  0.00    +0.266 C 
ATOM      2  N   UNL A   1     -26.787  -0.595  29.577  0.00  0.00    -0.186 N 
ATOM      3  C   UNL A   1     -25.624  -0.292  29.551  0.00  0.00    +0.132 C 
ATOM      4  O   UNL A   1     -28.926  -0.356  28.922  0.00  0.00    -0.268 OA
ATOM      5  C   UNL A   1     -24.580  -1.245  29.137  0.00  0.00    +0.136 C 
ATOM      6  C   UNL A   1     -24.746  -2.381  29.298  0.00  0.00    +0.006 A 
ATOM      7  C   UNL A   1     -23.832  -3.446  28.748  0.00  0.00    -0.002 A 
ATOM      8  C   UNL A   1     -24.122  -4.731  28.708  0.00  0.00    -0.000 A 
ATOM      9  C   UNL A   1     -25.339  -5.206  29.183  0.00  0.00    +0.001 A 
ATOM     10  C   UNL A   1     -26.257  -4.304  29.656  0.00  0.00    +0.018 A 
ATOM     11  C   UNL A   1     -25.995  -2.929  29.614  0.00  0.00    +0.084 A 
ATOM     12  N   UNL A   1     -26.913  -1.864  29.844  0.00  0.00    -0.145 NA
ENDROOT
BRANCH   1  14
ATOM     13  C   UNL A   1     -27.447   0.245  26.647  0.00  0.00    +0.042 A 
ATOM     14  C   UNL A   1     -27.350   0.717  27.584  0.00  0.00    +0.058 A 
ATOM     15  C   UNL A   1     -27.117   1.056  25.464  0.00  0.00    +0.146 A 
ATOM     16  C   UNL A   1     -26.560   2.360  25.611  0.00  0.00    +0.037 A 
ATOM     17  C   UNL A   1     -26.752   2.013  28.008  0.00  0.00    +0.005 A 
ATOM     18  C   UNL A   1     -26.442   2.797  26.937  0.00  0.00    +0.003 A 
BRANCH  15  19
ATOM     19  O   UNL A   1     -27.292   0.608  24.185  0.00  0.00    -0.451 OA
BRANCH  19  20
ATOM     20  C   UNL A   1     -28.544   0.804  23.653  0.00  0.00    +0.175 C 
ATOM     21  C   UNL A   1     -29.517  -0.156  23.701  0.00  0.00    +0.015 C 
ATOM     22  C   UNL A   1     -28.869  -1.508  23.365  0.00  0.00    +0.034 C 
ENDBRANCH  19  20
ENDBRANCH  15  19
ENDBRANCH   1  14
BRANCH   5  23
ATOM     23  C   UNL A   1     -23.189  -0.622  28.832  0.00  0.00    +0.316 C 
ATOM     24  O   UNL A   1     -22.406  -0.605  29.755  0.00  0.00    -0.259 OA
ATOM     25  F   UNL A   1     -22.964  -0.088  27.756  0.00  0.00    -0.163 F 
ENDBRANCH   5  23
TORSDOF 4
ENDMDL
ENDMDL
