REMARK  Name = No_3163-gen_results/8p0m/2024-11-26-14-13-15/
REMARK  4 active torsions:
REMARK  status: ('A' for Active; 'I' for Inactive)
REMARK    1  A    between atoms: C_2  and  C_7
REMARK    2  A    between atoms: C_3  and  O_22
REMARK    3  A    between atoms: C_11  and  C_19
REMARK    4  A    between atoms: O_22  and  C_23
REMARK                            x       y       z     vdW  Elec       q    Type
REMARK                         _______ _______ _______ _____ _____    ______ ____
ROOT
ATOM      1  C   UNL A   1     -30.061  -0.737  29.902  0.00  0.00    +0.266 C 
ATOM      2  N   UNL A   1     -30.696  -1.697  30.294  0.00  0.00    -0.186 N 
ATOM      3  C   UNL A   1     -30.273  -2.649  30.895  0.00  0.00    +0.132 C 
ATOM      4  O   UNL A   1     -30.457   0.323  29.333  0.00  0.00    -0.268 OA
ATOM      5  C   UNL A   1     -30.293  -4.004  30.319  0.00  0.00    +0.136 C 
ATOM      6  C   UNL A   1     -31.110  -4.286  29.547  0.00  0.00    +0.006 A 
ATOM      7  C   UNL A   1     -31.113  -5.574  28.764  0.00  0.00    -0.002 A 
ATOM      8  C   UNL A   1     -31.881  -5.812  27.720  0.00  0.00    -0.000 A 
ATOM      9  C   UNL A   1     -32.770  -4.851  27.251  0.00  0.00    +0.001 A 
ATOM     10  C   UNL A   1     -32.802  -3.628  27.869  0.00  0.00    +0.018 A 
ATOM     11  C   UNL A   1     -31.922  -3.334  28.918  0.00  0.00    +0.084 A 
ATOM     12  N   UNL A   1     -31.667  -2.061  29.505  0.00  0.00    -0.145 NA
ENDROOT
BRANCH   1  14
ATOM     13  C   UNL A   1     -28.016  -0.814  28.878  0.00  0.00    +0.042 A 
ATOM     14  C   UNL A   1     -28.469  -0.785  29.829  0.00  0.00    +0.058 A 
ATOM     15  C   UNL A   1     -26.546  -0.876  28.850  0.00  0.00    +0.146 A 
ATOM     16  C   UNL A   1     -25.804  -1.032  30.057  0.00  0.00    +0.037 A 
ATOM     17  C   UNL A   1     -27.944  -0.987  31.207  0.00  0.00    +0.005 A 
ATOM     18  C   UNL A   1     -26.582  -1.039  31.223  0.00  0.00    +0.003 A 
BRANCH  15  19
ATOM     19  O   UNL A   1     -25.822  -0.818  27.693  0.00  0.00    -0.451 OA
BRANCH  19  20
ATOM     20  C   UNL A   1     -24.595  -0.205  27.789  0.00  0.00    +0.175 C 
ATOM     21  C   UNL A   1     -23.672  -0.562  28.733  0.00  0.00    +0.015 C 
ATOM     22  C   UNL A   1     -24.407  -0.762  30.067  0.00  0.00    +0.034 C 
ENDBRANCH  19  20
ENDBRANCH  15  19
ENDBRANCH   1  14
BRANCH   5  23
ATOM     23  C   UNL A   1     -29.419  -5.057  31.057  0.00  0.00    +0.316 C 
ATOM     24  O   UNL A   1     -28.226  -4.973  30.872  0.00  0.00    -0.259 OA
ATOM     25  F   UNL A   1     -29.934  -5.969  31.686  0.00  0.00    -0.163 F 
ENDBRANCH   5  23
TORSDOF 4
