REMARK  Name = No_3164-gen_results/8p0m/2024-11-26-14-13-15/
REMARK  8 active torsions:
REMARK  status: ('A' for Active; 'I' for Inactive)
REMARK    1  A    between atoms: C_3  and  C_12
REMARK    2  A    between atoms: C_6  and  C_18
REMARK    3  A    between atoms: C_8  and  C_15
REMARK    4  A    between atoms: C_15  and  O_17
REMARK    5  A    between atoms: O_17  and  C_21
REMARK    6  A    between atoms: C_21  and  C_22
REMARK    7  A    between atoms: C_23  and  C_24
REMARK    8  A    between atoms: C_25  and  C_26
REMARK                            x       y       z     vdW  Elec       q    Type
REMARK                         _______ _______ _______ _____ _____    ______ ____
ROOT
ATOM      1  C   UNL A   1     -28.016  -0.814  28.878  0.00  0.00    +0.007 A 
ATOM      2  C   UNL A   1     -27.064  -0.119  28.608  0.00  0.00    +0.007 A 
ATOM      3  C   UNL A   1     -26.972   0.714  27.506  0.00  0.00    +0.081 A 
ATOM      4  C   UNL A   1     -25.821   1.491  27.116  0.00  0.00    +0.018 A 
ATOM      5  C   UNL A   1     -24.656   1.424  27.918  0.00  0.00    +0.064 A 
ATOM      6  C   UNL A   1     -24.685   0.590  29.066  0.00  0.00    +0.090 A 
ATOM      7  C   UNL A   1     -25.810  -0.127  29.334  0.00  0.00    +0.007 A 
ATOM      8  C   UNL A   1     -28.044  -1.573  30.169  0.00  0.00    +0.076 A 
ATOM      9  C   UNL A   1     -26.817  -1.760  30.870  0.00  0.00    +0.006 A 
ATOM     10  C   UNL A   1     -25.748  -0.992  30.538  0.00  0.00    +0.000 A 
ATOM     11 CL   UNL A   1     -23.273   2.367  27.530  0.00  0.00    -0.082 Cl
ENDROOT
BRANCH   3  12
ATOM     12  C   UNL A   1     -28.085   0.816  26.511  0.00  0.00    +0.388 C 
ATOM     13  O   UNL A   1     -27.949   0.875  25.344  0.00  0.00    -0.241 OA
ATOM     14  O   UNL A   1     -29.258   0.752  27.013  0.00  0.00    -0.241 OA
ENDBRANCH   3  12
BRANCH   6  15
ATOM     15  C   UNL A   1     -23.434   0.556  29.870  0.00  0.00    +0.389 C 
ATOM     16  O   UNL A   1     -23.232   1.081  30.766  0.00  0.00    -0.240 OA
ATOM     17  O   UNL A   1     -22.505  -0.290  29.350  0.00  0.00    -0.240 OA
ENDBRANCH   6  15
BRANCH   8  18
ATOM     18  C   UNL A   1     -29.210  -2.421  30.520  0.00  0.00    +0.342 C 
ATOM     19  O   UNL A   1     -29.142  -3.574  30.709  0.00  0.00    -0.245 OA
BRANCH  18  20
ATOM     20  O   UNL A   1     -30.418  -1.889  30.237  0.00  0.00    -0.440 OA
BRANCH  20  21
ATOM     21  C   UNL A   1     -31.439  -2.247  30.951  0.00  0.00    +0.235 C 
BRANCH  21  22
ATOM     22  C   UNL A   1     -31.627  -1.748  32.116  0.00  0.00    +0.021 C 
ATOM     23  C   UNL A   1     -31.200  -0.447  32.270  0.00  0.00    -0.001 C 
BRANCH  23  24
ATOM     24  C   UNL A   1     -31.346   0.534  31.358  0.00  0.00    -0.000 C 
ATOM     25  C   UNL A   1     -30.792   1.830  31.532  0.00  0.00    -0.000 C 
BRANCH  25  26
ATOM     26  C   UNL A   1     -30.166   2.116  32.736  0.00  0.00    -0.000 C 
ATOM     27  C   UNL A   1     -30.067   1.210  33.748  0.00  0.00    -0.000 C 
ENDBRANCH  25  26
ENDBRANCH  23  24
ENDBRANCH  21  22
ENDBRANCH  20  21
ENDBRANCH  18  20
ENDBRANCH   8  18
TORSDOF 8
