MODEL 3164
MODEL 1
REMARK VINA RESULT:    -5.947      0.000      0.000
REMARK INTER + INTRA:         -11.427
REMARK INTER:                  -8.729
REMARK INTRA:                  -2.698
REMARK UNBOUND:                -2.698
REMARK  Name = No_3164-gen_results/8p0m/2024-11-26-14-13-15/
REMARK  8 active torsions:
REMARK  status: ('A' for Active; 'I' for Inactive)
REMARK    1  A    between atoms: C_3  and  C_12
REMARK    2  A    between atoms: C_6  and  C_18
REMARK    3  A    between atoms: C_8  and  C_15
REMARK    4  A    between atoms: C_15  and  O_17
REMARK    5  A    between atoms: O_17  and  C_21
REMARK    6  A    between atoms: C_21  and  C_22
REMARK    7  A    between atoms: C_23  and  C_24
REMARK    8  A    between atoms: C_25  and  C_26
REMARK                            x       y       z     vdW  Elec       q    Type
REMARK                         _______ _______ _______ _____ _____    ______ ____
ROOT
ATOM      1  C   UNL A   1     -28.990 -15.759  10.257  0.00  0.00    +0.007 A 
ATOM      2  C   UNL A   1     -29.231 -16.167   9.145  0.00  0.00    +0.007 A 
ATOM      3  C   UNL A   1     -28.299 -16.703   8.273  0.00  0.00    +0.081 A 
ATOM      4  C   UNL A   1     -28.543 -17.123   6.914  0.00  0.00    +0.018 A 
ATOM      5  C   UNL A   1     -29.852 -16.994   6.390  0.00  0.00    +0.064 A 
ATOM      6  C   UNL A   1     -30.857 -16.454   7.235  0.00  0.00    +0.090 A 
ATOM      7  C   UNL A   1     -30.521 -16.060   8.493  0.00  0.00    +0.007 A 
ATOM      8  C   UNL A   1     -30.109 -15.322  11.151  0.00  0.00    +0.076 A 
ATOM      9  C   UNL A   1     -31.377 -15.043  10.561  0.00  0.00    +0.006 A 
ATOM     10  C   UNL A   1     -31.625 -15.484   9.301  0.00  0.00    +0.000 A 
ATOM     11 CL   UNL A   1     -30.211 -17.525   4.796  0.00  0.00    -0.082 Cl
ENDROOT
BRANCH   3  12
ATOM     12  C   UNL A   1     -26.855 -16.813   8.647  0.00  0.00    +0.388 C 
ATOM     13  O   UNL A   1     -26.414 -17.557   9.444  0.00  0.00    -0.241 OA
ATOM     14  O   UNL A   1     -26.068 -16.073   7.963  0.00  0.00    -0.241 OA
ENDBRANCH   3  12
BRANCH   6  15
ATOM     15  C   UNL A   1     -32.212 -16.340   6.633  0.00  0.00    +0.389 C 
ATOM     16  O   UNL A   1     -32.612 -15.516   6.102  0.00  0.00    -0.240 OA
ATOM     17  O   UNL A   1     -32.950 -17.470   6.795  0.00  0.00    -0.240 OA
ENDBRANCH   6  15
BRANCH   8  18
ATOM     18  C   UNL A   1     -29.830 -14.829  12.523  0.00  0.00    +0.342 C 
ATOM     19  O   UNL A   1     -29.195 -15.418  13.309  0.00  0.00    -0.245 OA
BRANCH  18  20
ATOM     20  O   UNL A   1     -30.654 -13.856  12.966  0.00  0.00    -0.440 OA
BRANCH  20  21
ATOM     21  C   UNL A   1     -30.270 -12.621  12.868  0.00  0.00    +0.235 C 
BRANCH  21  22
ATOM     22  C   UNL A   1     -30.847 -11.822  12.050  0.00  0.00    +0.021 C 
ATOM     23  C   UNL A   1     -30.016 -11.243  11.116  0.00  0.00    -0.001 C 
BRANCH  23  24
ATOM     24  C   UNL A   1     -29.019 -11.872  10.464  0.00  0.00    -0.000 C 
ATOM     25  C   UNL A   1     -29.121 -12.264   9.103  0.00  0.00    -0.000 C 
BRANCH  25  26
ATOM     26  C   UNL A   1     -30.336 -12.079   8.460  0.00  0.00    -0.000 C 
ATOM     27  C   UNL A   1     -30.598 -12.583   7.222  0.00  0.00    -0.000 C 
ENDBRANCH  25  26
ENDBRANCH  23  24
ENDBRANCH  21  22
ENDBRANCH  20  21
ENDBRANCH  18  20
ENDBRANCH   8  18
TORSDOF 8
ENDMDL
ENDMDL
