REMARK  Name = No_3165-gen_results/8p0m/2024-11-26-14-13-15/
REMARK  2 active torsions:
REMARK  status: ('A' for Active; 'I' for Inactive)
REMARK    1  A    between atoms: C_2  and  C_5
REMARK    2  A    between atoms: C_3  and  C_10
REMARK                            x       y       z     vdW  Elec       q    Type
REMARK                         _______ _______ _______ _____ _____    ______ ____
ROOT
ATOM      1  C   UNL A   1     -27.436   0.501  26.755  0.00  0.00    +0.143 C 
ATOM      2  C   UNL A   1     -27.977   0.949  25.651  0.00  0.00    +0.325 C 
ATOM      3  C   UNL A   1     -25.980   0.626  26.851  0.00  0.00    -0.008 A 
ATOM      4  C   UNL A   1     -25.175   0.152  27.872  0.00  0.00    -0.001 A 
ATOM      5  C   UNL A   1     -23.820   0.306  27.931  0.00  0.00    +0.029 A 
ATOM      6  C   UNL A   1     -23.185   1.129  26.974  0.00  0.00    +0.140 A 
ATOM      7  C   UNL A   1     -23.945   1.683  25.919  0.00  0.00    +0.029 A 
ATOM      8  C   UNL A   1     -25.329   1.512  25.917  0.00  0.00    +0.020 A 
ATOM      9  O   UNL A   1     -29.065   0.445  25.324  0.00  0.00    -0.249 OA
ATOM     10  O   UNL A   1     -27.339   1.543  24.684  0.00  0.00    -0.443 OA
ATOM     11  F   UNL A   1     -21.907   1.389  27.145  0.00  0.00    -0.204 F 
ATOM     12  C   UNL A   1     -26.123   1.907  24.821  0.00  0.00    +0.235 C 
ENDROOT
BRANCH   1  15
ATOM     13  C   UNL A   1     -28.016  -0.814  28.878  0.00  0.00    +0.003 A 
ATOM     14  C   UNL A   1     -28.469  -0.785  29.829  0.00  0.00    +0.080 A 
ATOM     15  C   UNL A   1     -28.182   0.428  28.113  0.00  0.00    -0.008 A 
ATOM     16  C   UNL A   1     -28.984   1.415  28.515  0.00  0.00    -0.003 A 
ATOM     17  C   UNL A   1     -29.561   1.293  29.742  0.00  0.00    -0.000 A 
ATOM     18  C   UNL A   1     -29.320   0.165  30.445  0.00  0.00    +0.007 A 
BRANCH  14  19
ATOM     19  C   UNL A   1     -28.337  -2.048  30.787  0.00  0.00    +0.388 C 
ATOM     20  O   UNL A   1     -27.351  -2.115  31.366  0.00  0.00    -0.241 OA
ATOM     21  O   UNL A   1     -29.269  -2.970  30.709  0.00  0.00    -0.241 OA
ENDBRANCH  14  19
ENDBRANCH   1  15
TORSDOF 2
