MODEL 3165
MODEL 1
REMARK VINA RESULT:    -8.157      0.000      0.000
REMARK INTER + INTRA:          -9.890
REMARK INTER:                  -9.111
REMARK INTRA:                  -0.779
REMARK UNBOUND:                -0.779
REMARK  Name = No_3165-gen_results/8p0m/2024-11-26-14-13-15/
REMARK  2 active torsions:
REMARK  status: ('A' for Active; 'I' for Inactive)
REMARK    1  A    between atoms: C_2  and  C_5
REMARK    2  A    between atoms: C_3  and  C_10
REMARK                            x       y       z     vdW  Elec       q    Type
REMARK                         _______ _______ _______ _____ _____    ______ ____
ROOT
ATOM      1  C   UNL A   1     -24.115  -1.290  29.615  0.00  0.00    +0.143 C 
ATOM      2  C   UNL A   1     -23.139  -0.969  30.425  0.00  0.00    +0.325 C 
ATOM      3  C   UNL A   1     -24.242  -0.468  28.409  0.00  0.00    -0.008 A 
ATOM      4  C   UNL A   1     -25.237  -0.554  27.451  0.00  0.00    -0.001 A 
ATOM      5  C   UNL A   1     -25.308   0.221  26.330  0.00  0.00    +0.029 A 
ATOM      6  C   UNL A   1     -24.227   1.078  26.024  0.00  0.00    +0.140 A 
ATOM      7  C   UNL A   1     -23.152   1.194  26.934  0.00  0.00    +0.029 A 
ATOM      8  C   UNL A   1     -23.118   0.364  28.054  0.00  0.00    +0.020 A 
ATOM      9  O   UNL A   1     -23.285  -1.283  31.619  0.00  0.00    -0.249 OA
ATOM     10  O   UNL A   1     -22.254  -0.038  30.211  0.00  0.00    -0.443 OA
ATOM     11  F   UNL A   1     -24.247   1.694  24.862  0.00  0.00    -0.204 F 
ATOM     12  C   UNL A   1     -22.159   0.533  29.073  0.00  0.00    +0.235 C 
ENDROOT
BRANCH   1  15
ATOM     13  C   UNL A   1     -26.063  -2.899  30.045  0.00  0.00    +0.003 A 
ATOM     14  C   UNL A   1     -26.459  -3.861  29.872  0.00  0.00    +0.080 A 
ATOM     15  C   UNL A   1     -24.710  -2.718  29.505  0.00  0.00    -0.008 A 
ATOM     16  C   UNL A   1     -23.994  -3.729  29.013  0.00  0.00    -0.003 A 
ATOM     17  C   UNL A   1     -24.609  -4.939  28.906  0.00  0.00    -0.000 A 
ATOM     18  C   UNL A   1     -25.882  -5.042  29.346  0.00  0.00    +0.007 A 
BRANCH  14  19
ATOM     19  C   UNL A   1     -27.934  -4.190  30.368  0.00  0.00    +0.388 C 
ATOM     20  O   UNL A   1     -28.081  -5.249  30.779  0.00  0.00    -0.241 OA
ATOM     21  O   UNL A   1     -28.872  -3.306  30.115  0.00  0.00    -0.241 OA
ENDBRANCH  14  19
ENDBRANCH   1  15
TORSDOF 2
ENDMDL
ENDMDL
