MODEL 3166
MODEL 1
REMARK VINA RESULT:    -7.262      0.000      0.000
REMARK INTER + INTRA:          -9.447
REMARK INTER:                  -8.960
REMARK INTRA:                  -0.487
REMARK UNBOUND:                -0.487
REMARK  Name = No_3166-gen_results/8p0m/2024-11-26-14-13-15/
REMARK  4 active torsions:
REMARK  status: ('A' for Active; 'I' for Inactive)
REMARK    1  A    between atoms: C_6  and  N_12
REMARK    2  A    between atoms: C_13  and  C_14
REMARK    3  A    between atoms: C_14  and  C_15
REMARK    4  A    between atoms: C_16  and  C_17
REMARK                            x       y       z     vdW  Elec       q    Type
REMARK                         _______ _______ _______ _____ _____    ______ ____
ROOT
ATOM      1  O   UNL A   1     -26.553  -0.793  31.044  0.00  0.00    -0.268 OA
ATOM      2  C   UNL A   1     -25.672  -1.384  30.410  0.00  0.00    +0.266 C 
ATOM      3  C   UNL A   1     -25.524  -2.363  29.847  0.00  0.00    +0.051 A 
ATOM      4  C   UNL A   1     -26.345  -3.475  29.910  0.00  0.00    +0.004 A 
ATOM      5  N   UNL A   1     -24.369  -0.512  30.194  0.00  0.00    -0.179 NA
ATOM      6  C   UNL A   1     -23.363  -0.890  29.447  0.00  0.00    +0.201 C 
ATOM      7  C   UNL A   1     -23.338  -2.178  28.909  0.00  0.00    +0.073 C 
ATOM      8  C   UNL A   1     -24.318  -3.008  29.071  0.00  0.00    -0.014 A 
ATOM      9  C   UNL A   1     -26.038  -4.876  29.682  0.00  0.00    +0.000 A 
ATOM     10  C   UNL A   1     -24.994  -5.280  28.924  0.00  0.00    -0.000 A 
ATOM     11  C   UNL A   1     -24.102  -4.383  28.647  0.00  0.00    -0.004 A 
ENDROOT
BRANCH   6  12
ATOM     12  N   UNL A   1     -22.315  -0.001  29.348  0.00  0.00    -0.253 NA
ATOM     13  C   UNL A   1     -22.081   0.932  28.725  0.00  0.00    +0.073 C 
BRANCH  13  14
ATOM     14  C   UNL A   1     -22.882   1.433  27.865  0.00  0.00    +0.073 C 
BRANCH  14  15
ATOM     15  C   UNL A   1     -22.698   1.972  26.658  0.00  0.00    -0.020 C 
ATOM     16  C   UNL A   1     -23.564   1.763  25.599  0.00  0.00    -0.004 C 
BRANCH  16  17
ATOM     17  C   UNL A   1     -24.688   0.951  25.787  0.00  0.00    -0.000 C 
ATOM     18  C   UNL A   1     -25.106   0.106  24.803  0.00  0.00    -0.000 C 
ENDBRANCH  16  17
ENDBRANCH  14  15
ENDBRANCH  13  14
ENDBRANCH   6  12
TORSDOF 4
ENDMDL
ENDMDL
