MODEL 3168
MODEL 1
REMARK VINA RESULT:    -7.345      0.000      0.000
REMARK INTER + INTRA:          -9.974
REMARK INTER:                  -8.633
REMARK INTRA:                  -1.341
REMARK UNBOUND:                -1.341
REMARK  Name = No_3168-gen_results/8p0m/2024-11-26-14-13-15/
REMARK  3 active torsions:
REMARK  status: ('A' for Active; 'I' for Inactive)
REMARK    1  A    between atoms: C_1  and  O_7
REMARK    2  A    between atoms: C_2  and  C_10
REMARK    3  A    between atoms: C_11  and  C_12
REMARK                            x       y       z     vdW  Elec       q    Type
REMARK                         _______ _______ _______ _____ _____    ______ ____
ROOT
ATOM      1  C   UNL A   1     -24.916  -0.086  29.634  0.00  0.00    +0.005 A 
ATOM      2  C   UNL A   1     -24.602  -1.281  30.110  0.00  0.00    +0.000 A 
ATOM      3  C   UNL A   1     -24.722   1.162  30.275  0.00  0.00    +0.000 A 
ATOM      4  C   UNL A   1     -24.394   1.160  31.622  0.00  0.00    +0.000 A 
ATOM      5  C   UNL A   1     -24.130  -0.038  32.265  0.00  0.00    +0.000 A 
ATOM      6  C   UNL A   1     -24.220  -1.225  31.602  0.00  0.00    +0.000 A 
ENDROOT
BRANCH   1   8
ATOM      7  C   UNL A   1     -24.596   0.335  27.188  0.00  0.00    +0.142 A 
ATOM      8  C   UNL A   1     -25.359   0.081  28.091  0.00  0.00    +0.061 A 
ATOM      9  C   UNL A   1     -26.733   0.072  27.950  0.00  0.00    +0.144 A 
ATOM     10  C   UNL A   1     -27.273   0.338  26.661  0.00  0.00    +0.041 A 
ATOM     11  C   UNL A   1     -26.379   0.446  25.651  0.00  0.00    +0.063 A 
ATOM     12  C   UNL A   1     -25.079   0.401  25.872  0.00  0.00    +0.048 A 
ATOM     13 CL   UNL A   1     -27.000   0.706  24.091  0.00  0.00    -0.082 Cl
ATOM     14  F   UNL A   1     -27.596  -0.085  29.001  0.00  0.00    -0.204 F 
BRANCH   7  15
ATOM     15  O   UNL A   1     -23.266   0.343  27.621  0.00  0.00    -0.471 OA
ATOM     16  C   UNL A   1     -22.404   1.480  27.399  0.00  0.00    +0.253 C 
ENDBRANCH   7  15
ENDBRANCH   1   8
BRANCH   2  17
ATOM     17  C   UNL A   1     -24.798  -2.403  29.677  0.00  0.00    +0.000 A 
ATOM     18  C   UNL A   1     -26.000  -3.182  29.945  0.00  0.00    +0.000 A 
ATOM     19  C   UNL A   1     -26.156  -4.549  29.694  0.00  0.00    +0.000 A 
ATOM     20  C   UNL A   1     -25.166  -5.165  28.908  0.00  0.00    +0.000 A 
ATOM     21  C   UNL A   1     -24.014  -4.456  28.572  0.00  0.00    +0.000 A 
ATOM     22  C   UNL A   1     -23.839  -3.182  28.937  0.00  0.00    +0.000 A 
ENDBRANCH   2  17
TORSDOF 3
ENDMDL
ENDMDL
