REMARK  Name = No_3168-gen_results/8p0m/2024-11-26-14-13-15/
REMARK  3 active torsions:
REMARK  status: ('A' for Active; 'I' for Inactive)
REMARK    1  A    between atoms: C_1  and  O_7
REMARK    2  A    between atoms: C_2  and  C_10
REMARK    3  A    between atoms: C_11  and  C_12
REMARK                            x       y       z     vdW  Elec       q    Type
REMARK                         _______ _______ _______ _____ _____    ______ ____
ROOT
ATOM      1  C   UNL A   1     -25.650  -0.174  29.385  0.00  0.00    +0.005 A 
ATOM      2  C   UNL A   1     -25.434   0.609  30.430  0.00  0.00    +0.000 A 
ATOM      3  C   UNL A   1     -24.840  -1.250  28.948  0.00  0.00    +0.000 A 
ATOM      4  C   UNL A   1     -23.573  -1.378  29.497  0.00  0.00    +0.000 A 
ATOM      5  C   UNL A   1     -23.187  -0.553  30.540  0.00  0.00    +0.000 A 
ATOM      6  C   UNL A   1     -24.024   0.411  31.018  0.00  0.00    +0.000 A 
ENDROOT
BRANCH   1   8
ATOM      7  C   UNL A   1     -28.016  -0.814  28.878  0.00  0.00    +0.142 A 
ATOM      8  C   UNL A   1     -27.064  -0.119  28.608  0.00  0.00    +0.061 A 
ATOM      9  C   UNL A   1     -27.001   0.691  27.491  0.00  0.00    +0.144 A 
ATOM     10  C   UNL A   1     -28.137   0.736  26.635  0.00  0.00    +0.041 A 
ATOM     11  C   UNL A   1     -29.236   0.076  27.069  0.00  0.00    +0.063 A 
ATOM     12  C   UNL A   1     -29.218  -0.643  28.175  0.00  0.00    +0.048 A 
ATOM     13 CL   UNL A   1     -30.625   0.161  26.094  0.00  0.00    -0.082 Cl
ATOM     14  F   UNL A   1     -25.875   1.374  27.119  0.00  0.00    -0.204 F 
BRANCH   7  15
ATOM     15  O   UNL A   1     -27.787  -1.584  30.023  0.00  0.00    -0.471 OA
ATOM     16  C   UNL A   1     -28.736  -1.625  31.110  0.00  0.00    +0.253 C 
ENDBRANCH   7  15
ENDBRANCH   1   8
BRANCH   2  17
ATOM     17  C   UNL A   1     -26.020   1.597  30.837  0.00  0.00    +0.000 A 
ATOM     18  C   UNL A   1     -25.545   2.434  31.931  0.00  0.00    +0.000 A 
ATOM     19  C   UNL A   1     -26.297   3.408  32.597  0.00  0.00    +0.000 A 
ATOM     20  C   UNL A   1     -27.524   3.769  32.011  0.00  0.00    +0.000 A 
ATOM     21  C   UNL A   1     -28.010   3.041  30.927  0.00  0.00    +0.000 A 
ATOM     22  C   UNL A   1     -27.319   2.029  30.391  0.00  0.00    +0.000 A 
ENDBRANCH   2  17
TORSDOF 3
