MODEL 3169
MODEL 1
REMARK VINA RESULT:    -6.491      0.000      0.000
REMARK INTER + INTRA:          -7.690
REMARK INTER:                  -7.249
REMARK INTRA:                  -0.441
REMARK UNBOUND:                -0.441
REMARK  Name = No_3169-gen_results/8p0m/2024-11-26-14-13-15/
REMARK  2 active torsions:
REMARK  status: ('A' for Active; 'I' for Inactive)
REMARK    1  A    between atoms: C_1  and  C_2
REMARK    2  A    between atoms: C_1  and  C_9
REMARK                            x       y       z     vdW  Elec       q    Type
REMARK                         _______ _______ _______ _____ _____    ______ ____
ROOT
ATOM      1  C   UNL A   1     -23.964  -1.884  29.322  0.00  0.00    +0.016 A 
ATOM      2  C   UNL A   1     -24.802  -1.112  28.542  0.00  0.00    +0.133 A 
ATOM      3  C   UNL A   1     -24.424   0.098  27.835  0.00  0.00    +0.013 A 
ATOM      4  C   UNL A   1     -23.093   0.560  27.943  0.00  0.00    +0.081 A 
ATOM      5  C   UNL A   1     -22.569   1.703  27.294  0.00  0.00    +0.267 C 
ATOM      6  C   UNL A   1     -22.548  -1.401  29.405  0.00  0.00    +0.028 A 
ATOM      7  C   UNL A   1     -22.110  -0.216  28.730  0.00  0.00    +0.144 A 
ATOM      8  N   UNL A   1     -23.322   2.568  26.754  0.00  0.00    -0.201 NA
ATOM      9  O   UNL A   1     -21.296   1.888  27.093  0.00  0.00    -0.268 OA
ATOM     10  F   UNL A   1     -25.999  -1.463  28.328  0.00  0.00    -0.205 F 
ATOM     11  F   UNL A   1     -20.930   0.183  28.877  0.00  0.00    -0.204 F 
ATOM     12  C   UNL A   1     -24.761   2.574  27.007  0.00  0.00    +0.120 C 
ATOM     13  C   UNL A   1     -25.392   0.864  27.203  0.00  0.00    +0.052 C 
ENDROOT
BRANCH   1  14
ATOM     14  C   UNL A   1     -24.302  -2.922  29.842  0.00  0.00    +0.132 C 
BRANCH  14  15
ATOM     15  C   UNL A   1     -24.359  -4.134  28.881  0.00  0.00    +0.402 C 
ATOM     16  F   UNL A   1     -24.200  -5.281  29.552  0.00  0.00    -0.170 F 
ATOM     17  F   UNL A   1     -24.004  -4.454  27.801  0.00  0.00    -0.170 F 
ATOM     18  F   UNL A   1     -25.864  -4.366  28.759  0.00  0.00    -0.170 F 
ENDBRANCH  14  15
ENDBRANCH   1  14
TORSDOF 2
ENDMDL
ENDMDL
