REMARK  Name = No_3169-gen_results/8p0m/2024-11-26-14-13-15/
REMARK  2 active torsions:
REMARK  status: ('A' for Active; 'I' for Inactive)
REMARK    1  A    between atoms: C_1  and  C_2
REMARK    2  A    between atoms: C_1  and  C_9
REMARK                            x       y       z     vdW  Elec       q    Type
REMARK                         _______ _______ _______ _____ _____    ______ ____
ROOT
ATOM      1  C   UNL A   1     -27.064  -0.119  28.608  0.00  0.00    +0.016 A 
ATOM      2  C   UNL A   1     -27.001   0.691  27.491  0.00  0.00    +0.133 A 
ATOM      3  C   UNL A   1     -25.855   1.482  27.083  0.00  0.00    +0.013 A 
ATOM      4  C   UNL A   1     -24.690   1.453  27.881  0.00  0.00    +0.081 A 
ATOM      5  C   UNL A   1     -23.488   2.145  27.601  0.00  0.00    +0.267 C 
ATOM      6  C   UNL A   1     -25.812  -0.166  29.430  0.00  0.00    +0.028 A 
ATOM      7  C   UNL A   1     -24.646   0.589  29.081  0.00  0.00    +0.144 A 
ATOM      8  N   UNL A   1     -23.436   3.066  26.731  0.00  0.00    -0.201 NA
ATOM      9  O   UNL A   1     -22.337   1.812  28.110  0.00  0.00    -0.268 OA
ATOM     10  F   UNL A   1     -27.966   0.748  26.674  0.00  0.00    -0.205 F 
ATOM     11  F   UNL A   1     -23.642   0.565  29.832  0.00  0.00    -0.204 F 
ATOM     12  C   UNL A   1     -24.657   3.643  26.174  0.00  0.00    +0.120 C 
ATOM     13  C   UNL A   1     -25.966   2.368  26.022  0.00  0.00    +0.052 C 
ENDROOT
BRANCH   1  14
ATOM     14  C   UNL A   1     -28.016  -0.814  28.878  0.00  0.00    +0.132 C 
BRANCH  14  15
ATOM     15  C   UNL A   1     -28.677  -0.498  30.241  0.00  0.00    +0.402 C 
ATOM     16  F   UNL A   1     -29.521  -1.474  30.597  0.00  0.00    -0.170 F 
ATOM     17  F   UNL A   1     -29.120   0.414  30.846  0.00  0.00    -0.170 F 
ATOM     18  F   UNL A   1     -27.620  -0.998  31.225  0.00  0.00    -0.170 F 
ENDBRANCH  14  15
ENDBRANCH   1  14
TORSDOF 2
