MODEL 316
MODEL 1
REMARK VINA RESULT:    -4.605      0.000      0.000
REMARK INTER + INTRA:          -4.605
REMARK INTER:                  -4.605
REMARK INTRA:                   0.000
REMARK UNBOUND:                 0.000
REMARK  Name = No_316-gen_results/8p0m/2024-11-26-14-13-15/
REMARK  0 active torsions:
REMARK  status: ('A' for Active; 'I' for Inactive)
REMARK                            x       y       z     vdW  Elec       q    Type
REMARK                         _______ _______ _______ _____ _____    ______ ____
ROOT
ATOM      1  C   UNL A   1     -10.151  -9.745  18.355  0.00  0.00    +0.030 A 
ATOM      2  C   UNL A   1      -9.174 -10.375  18.020  0.00  0.00    +0.140 A 
ATOM      3  C   UNL A   1      -8.051 -10.491  18.773  0.00  0.00    +0.030 A 
ATOM      4  C   UNL A   1      -8.013  -9.839  20.021  0.00  0.00    +0.002 A 
ATOM      5  C   UNL A   1     -10.218  -9.134  19.658  0.00  0.00    +0.002 A 
ATOM      6  C   UNL A   1      -9.105  -9.196  20.441  0.00  0.00    +0.000 A 
ATOM      7  F   UNL A   1      -9.137 -11.029  16.830  0.00  0.00    -0.204 F 
ENDROOT
TORSDOF 0
ENDMDL
ENDMDL
