REMARK  Name = No_3171-gen_results/8p0m/2024-11-26-14-13-15/
REMARK  10 active torsions:
REMARK  status: ('A' for Active; 'I' for Inactive)
REMARK    1  A    between atoms: C_2  and  C_26
REMARK    2  A    between atoms: C_4  and  C_7
REMARK    3  A    between atoms: C_7  and  C_8
REMARK    4  A    between atoms: C_8  and  C_22
REMARK    5  A    between atoms: C_9  and  C_10
REMARK    6  A    between atoms: C_11  and  C_12
REMARK    7  A    between atoms: C_13  and  C_14
REMARK    8  A    between atoms: C_13  and  C_29
REMARK    9  A    between atoms: C_15  and  C_16
REMARK   10  A    between atoms: C_29  and  C_30
REMARK                            x       y       z     vdW  Elec       q    Type
REMARK                         _______ _______ _______ _____ _____    ______ ____
ROOT
ATOM      1  C   UNL A   1     -24.346   2.603  29.747  0.00  0.00    -0.000 C 
ATOM      2  C   UNL A   1     -24.706   2.788  28.576  0.00  0.00    -0.000 C 
ENDROOT
BRANCH   1   4
ATOM      3  C   UNL A   1     -23.817   0.476  29.912  0.00  0.00    +0.039 C 
ATOM      4  C   UNL A   1     -24.195   1.598  30.192  0.00  0.00    +0.001 C 
BRANCH   3   5
ATOM      5  C   UNL A   1     -22.682   0.344  28.952  0.00  0.00    +0.281 C 
ATOM      6  N   UNL A   1     -21.844  -0.734  29.123  0.00  0.00    -0.084 NA
ATOM      7  O   UNL A   1     -22.342   1.246  28.204  0.00  0.00    -0.267 OA
ENDBRANCH   3   5
BRANCH   3   8
ATOM      8  C   UNL A   1     -24.389  -0.805  30.164  0.00  0.00    +0.057 C 
BRANCH   8  12
ATOM      9  C   UNL A   1     -28.016  -0.814  28.878  0.00  0.00    +0.002 A 
ATOM     10  C   UNL A   1     -28.469  -0.785  29.829  0.00  0.00    +0.079 A 
ATOM     11  C   UNL A   1     -26.504  -0.778  28.877  0.00  0.00    -0.025 A 
ATOM     12  C   UNL A   1     -25.810  -0.853  30.103  0.00  0.00    -0.022 A 
ATOM     13  C   UNL A   1     -27.991  -0.892  31.226  0.00  0.00    +0.006 A 
ATOM     14  C   UNL A   1     -26.604  -0.868  31.265  0.00  0.00    -0.004 A 
ATOM     15  C   UNL A   1     -25.740  -0.711  27.629  0.00  0.00    +0.031 C 
BRANCH  10  16
ATOM     16  C   UNL A   1     -30.091  -0.807  29.822  0.00  0.00    +0.388 C 
ATOM     17  O   UNL A   1     -30.519  -0.336  28.860  0.00  0.00    -0.241 OA
ATOM     18  O   UNL A   1     -30.777  -1.289  30.771  0.00  0.00    -0.241 OA
ENDBRANCH  10  16
ENDBRANCH   8  12
ENDBRANCH   3   8
ENDBRANCH   1   4
BRANCH   2  19
ATOM     19  C   UNL A   1     -24.835   4.048  27.916  0.00  0.00    -0.004 C 
ATOM     20  C   UNL A   1     -25.706   4.560  27.542  0.00  0.00    -0.018 C 
BRANCH  20  21
ATOM     21  C   UNL A   1     -25.669   5.950  27.137  0.00  0.00    -0.004 C 
ATOM     22  C   UNL A   1     -25.721   7.041  27.401  0.00  0.00    -0.000 C 
BRANCH  22  23
ATOM     23  C   UNL A   1     -26.334   7.367  28.709  0.00  0.00    -0.000 A 
ATOM     24  C   UNL A   1     -26.341   8.720  29.122  0.00  0.00    -0.000 A 
ATOM     25  C   UNL A   1     -26.899   9.106  30.384  0.00  0.00    -0.000 A 
ATOM     26  C   UNL A   1     -27.422   8.052  31.170  0.00  0.00    +0.000 A 
ATOM     27  C   UNL A   1     -27.359   6.752  30.794  0.00  0.00    -0.000 A 
ATOM     28  C   UNL A   1     -26.747   6.389  29.582  0.00  0.00    -0.000 A 
ENDBRANCH  22  23
ENDBRANCH  20  21
BRANCH  20  29
ATOM     29  C   UNL A   1     -27.013   4.036  27.460  0.00  0.00    +0.053 C 
BRANCH  29  30
ATOM     30  C   UNL A   1     -27.168   3.016  26.463  0.00  0.00    -0.018 A 
ATOM     31  C   UNL A   1     -28.027   3.184  25.618  0.00  0.00    -0.004 A 
ATOM     32  C   UNL A   1     -28.342   2.145  24.607  0.00  0.00    -0.000 A 
ATOM     33  C   UNL A   1     -27.586   1.000  24.641  0.00  0.00    -0.000 A 
ATOM     34  C   UNL A   1     -26.567   0.854  25.555  0.00  0.00    -0.000 A 
ATOM     35  C   UNL A   1     -26.339   1.852  26.516  0.00  0.00    -0.004 A 
ENDBRANCH  29  30
ENDBRANCH  20  29
ENDBRANCH   2  19
TORSDOF 10
