MODEL 3172
MODEL 1
REMARK VINA RESULT:    -4.944      0.000      0.000
REMARK INTER + INTRA:          -4.944
REMARK INTER:                  -4.944
REMARK INTRA:                   0.000
REMARK UNBOUND:                 0.000
REMARK  Name = No_3172-gen_results/8p0m/2024-11-26-14-13-15/
REMARK  0 active torsions:
REMARK  status: ('A' for Active; 'I' for Inactive)
REMARK                            x       y       z     vdW  Elec       q    Type
REMARK                         _______ _______ _______ _____ _____    ______ ____
ROOT
ATOM      1  O   UNL A   1     -10.950 -10.368  16.884  0.00  0.00    -0.273 OA
ATOM      2  C   UNL A   1     -10.286 -10.023  17.869  0.00  0.00    +0.241 C 
ATOM      3  N   UNL A   1     -10.554  -9.433  18.630  0.00  0.00    -0.205 NA
ATOM      4  C   UNL A   1      -8.843 -10.714  18.036  0.00  0.00    +0.087 C 
ATOM      5  C   UNL A   1      -8.241 -10.441  18.990  0.00  0.00    +0.011 C 
ATOM      6  C   UNL A   1      -8.550  -9.565  20.038  0.00  0.00    +0.024 C 
ATOM      7  C   UNL A   1      -9.870  -9.020  19.823  0.00  0.00    +0.115 C 
ENDROOT
TORSDOF 0
ENDMDL
ENDMDL
