REMARK  Name = No_3173-gen_results/8p0m/2024-11-26-14-13-15/
REMARK  1 active torsions:
REMARK  status: ('A' for Active; 'I' for Inactive)
REMARK    1  A    between atoms: C_1  and  C_9
REMARK                            x       y       z     vdW  Elec       q    Type
REMARK                         _______ _______ _______ _____ _____    ______ ____
ROOT
ATOM      1  C   UNL A   1     -28.016  -0.814  28.878  0.00  0.00    +0.093 A 
ATOM      2  C   UNL A   1     -27.064  -0.119  28.608  0.00  0.00    +0.064 A 
ATOM      3  C   UNL A   1     -27.001   0.691  27.491  0.00  0.00    +0.015 A 
ATOM      4  C   UNL A   1     -28.137   0.736  26.635  0.00  0.00    +0.043 A 
ATOM      5  C   UNL A   1     -29.236   0.076  27.069  0.00  0.00    +0.196 A 
ATOM      6  C   UNL A   1     -29.218  -0.643  28.175  0.00  0.00    +0.050 A 
ATOM      7  O   UNL A   1     -30.342   0.162  26.279  0.00  0.00    -0.287 OA
ATOM      8 CL   UNL A   1     -25.544  -0.220  29.537  0.00  0.00    -0.082 Cl
ENDROOT
BRANCH   1   9
ATOM      9  C   UNL A   1     -28.037  -1.706  30.134  0.00  0.00    +0.389 C 
ATOM     10  O   UNL A   1     -28.266  -1.338  31.169  0.00  0.00    -0.240 OA
ATOM     11  O   UNL A   1     -27.680  -2.961  29.900  0.00  0.00    -0.240 OA
ENDBRANCH   1   9
TORSDOF 1
