MODEL 3173
MODEL 1
REMARK VINA RESULT:    -4.679      0.000      0.000
REMARK INTER + INTRA:          -5.036
REMARK INTER:                  -4.952
REMARK INTRA:                  -0.084
REMARK UNBOUND:                -0.084
REMARK  Name = No_3173-gen_results/8p0m/2024-11-26-14-13-15/
REMARK  1 active torsions:
REMARK  status: ('A' for Active; 'I' for Inactive)
REMARK    1  A    between atoms: C_1  and  C_9
REMARK                            x       y       z     vdW  Elec       q    Type
REMARK                         _______ _______ _______ _____ _____    ______ ____
ROOT
ATOM      1  C   UNL A   1     -26.345  -2.743  29.930  0.00  0.00    +0.093 A 
ATOM      2  C   UNL A   1     -26.471  -3.943  29.849  0.00  0.00    +0.064 A 
ATOM      3  C   UNL A   1     -25.498  -4.781  29.341  0.00  0.00    +0.015 A 
ATOM      4  C   UNL A   1     -24.266  -4.200  28.928  0.00  0.00    +0.043 A 
ATOM      5  C   UNL A   1     -24.110  -2.882  29.196  0.00  0.00    +0.196 A 
ATOM      6  C   UNL A   1     -25.083  -2.165  29.724  0.00  0.00    +0.050 A 
ATOM      7  O   UNL A   1     -22.911  -2.335  28.852  0.00  0.00    -0.287 OA
ATOM      8 CL   UNL A   1     -28.026  -4.742  30.202  0.00  0.00    -0.082 Cl
ENDROOT
BRANCH   1   9
ATOM      9  C   UNL A   1     -27.463  -1.848  30.499  0.00  0.00    +0.389 C 
ATOM     10  O   UNL A   1     -27.585  -1.601  31.587  0.00  0.00    -0.240 OA
ATOM     11  O   UNL A   1     -28.336  -1.444  29.587  0.00  0.00    -0.240 OA
ENDBRANCH   1   9
TORSDOF 1
ENDMDL
ENDMDL
