REMARK  Name = No_3174-gen_results/8p0m/2024-11-26-14-13-15/
REMARK  0 active torsions:
REMARK  status: ('A' for Active; 'I' for Inactive)
REMARK                            x       y       z     vdW  Elec       q    Type
REMARK                         _______ _______ _______ _____ _____    ______ ____
ROOT
ATOM      1 BR   UNL A   1     -28.115  -0.626  29.081  0.00  0.00    -0.049 Br
ATOM      2  C   UNL A   1     -26.927   0.455  28.685  0.00  0.00    +0.035 A 
ATOM      3  C   UNL A   1     -25.846   0.704  29.331  0.00  0.00    +0.007 A 
ATOM      4  C   UNL A   1     -24.728   1.448  28.887  0.00  0.00    +0.001 A 
ATOM      5  C   UNL A   1     -24.869   2.087  27.634  0.00  0.00    +0.000 A 
ATOM      6  C   UNL A   1     -25.992   1.852  26.896  0.00  0.00    +0.001 A 
ATOM      7  C   UNL A   1     -26.913   1.034  27.390  0.00  0.00    +0.007 A 
ENDROOT
TORSDOF 0
