MODEL 3174
MODEL 1
REMARK VINA RESULT:    -4.386      0.000      0.000
REMARK INTER + INTRA:          -4.386
REMARK INTER:                  -4.386
REMARK INTRA:                   0.000
REMARK UNBOUND:                 0.000
REMARK  Name = No_3174-gen_results/8p0m/2024-11-26-14-13-15/
REMARK  0 active torsions:
REMARK  status: ('A' for Active; 'I' for Inactive)
REMARK                            x       y       z     vdW  Elec       q    Type
REMARK                         _______ _______ _______ _____ _____    ______ ____
ROOT
ATOM      1 BR   UNL A   1     -27.555  -2.681  30.439  0.00  0.00    -0.049 Br
ATOM      2  C   UNL A   1     -26.224  -3.481  29.869  0.00  0.00    +0.035 A 
ATOM      3  C   UNL A   1     -26.097  -4.741  29.655  0.00  0.00    +0.007 A 
ATOM      4  C   UNL A   1     -25.056  -5.397  28.958  0.00  0.00    +0.001 A 
ATOM      5  C   UNL A   1     -23.974  -4.582  28.554  0.00  0.00    +0.000 A 
ATOM      6  C   UNL A   1     -24.056  -3.234  28.744  0.00  0.00    +0.001 A 
ATOM      7  C   UNL A   1     -25.150  -2.741  29.310  0.00  0.00    +0.007 A 
ENDROOT
TORSDOF 0
ENDMDL
ENDMDL
