REMARK  Name = No_3175-gen_results/8p0m/2024-11-26-14-13-15/
REMARK  3 active torsions:
REMARK  status: ('A' for Active; 'I' for Inactive)
REMARK    1  A    between atoms: C_3  and  C_4
REMARK    2  A    between atoms: C_4  and  C_8
REMARK    3  A    between atoms: C_7  and  C_14
REMARK                            x       y       z     vdW  Elec       q    Type
REMARK                         _______ _______ _______ _____ _____    ______ ____
ROOT
ATOM      1  C   UNL A   1     -28.016  -0.814  28.878  0.00  0.00    -0.004 A 
ATOM      2  C   UNL A   1     -28.469  -0.785  29.829  0.00  0.00    -0.000 A 
ATOM      3  C   UNL A   1     -26.546  -0.876  28.850  0.00  0.00    -0.019 A 
ATOM      4  C   UNL A   1     -28.026  -0.916  30.927  0.00  0.00    -0.000 A 
ATOM      5  C   UNL A   1     -26.622  -0.993  31.217  0.00  0.00    -0.002 A 
ATOM      6  C   UNL A   1     -25.820  -0.989  30.108  0.00  0.00    +0.009 A 
ENDROOT
BRANCH   6   7
ATOM      7  C   UNL A   1     -24.418  -1.123  30.242  0.00  0.00    +0.219 C 
ATOM      8  F   UNL A   1     -23.707  -0.392  29.461  0.00  0.00    -0.229 F 
ENDBRANCH   6   7
BRANCH   3   9
ATOM      9  C   UNL A   1     -25.683  -0.777  27.683  0.00  0.00    +0.052 C 
BRANCH   9  10
ATOM     10  C   UNL A   1     -25.188   0.566  27.338  0.00  0.00    -0.018 A 
ATOM     11  C   UNL A   1     -23.957   0.857  27.805  0.00  0.00    -0.004 A 
ATOM     12  C   UNL A   1     -23.375   2.121  27.431  0.00  0.00    -0.000 A 
ATOM     13  C   UNL A   1     -24.001   2.953  26.554  0.00  0.00    -0.000 A 
ATOM     14  C   UNL A   1     -25.982   1.452  26.594  0.00  0.00    -0.004 A 
ATOM     15  C   UNL A   1     -25.339   2.616  26.137  0.00  0.00    -0.000 A 
ENDBRANCH   9  10
ENDBRANCH   3   9
TORSDOF 3
