MODEL 3175
MODEL 1
REMARK VINA RESULT:    -6.712      0.000      0.000
REMARK INTER + INTRA:          -8.776
REMARK INTER:                  -7.889
REMARK INTRA:                  -0.886
REMARK UNBOUND:                -0.886
REMARK  Name = No_3175-gen_results/8p0m/2024-11-26-14-13-15/
REMARK  3 active torsions:
REMARK  status: ('A' for Active; 'I' for Inactive)
REMARK    1  A    between atoms: C_3  and  C_4
REMARK    2  A    between atoms: C_4  and  C_8
REMARK    3  A    between atoms: C_7  and  C_14
REMARK                            x       y       z     vdW  Elec       q    Type
REMARK                         _______ _______ _______ _____ _____    ______ ____
ROOT
ATOM      1  C   UNL A   1     -25.456  -0.178  27.314  0.00  0.00    -0.004 A 
ATOM      2  C   UNL A   1     -25.161   0.392  26.479  0.00  0.00    -0.000 A 
ATOM      3  C   UNL A   1     -24.453  -0.360  28.375  0.00  0.00    -0.019 A 
ATOM      4  C   UNL A   1     -24.187   1.042  26.262  0.00  0.00    -0.000 A 
ATOM      5  C   UNL A   1     -23.032   1.058  27.114  0.00  0.00    -0.002 A 
ATOM      6  C   UNL A   1     -23.171   0.321  28.259  0.00  0.00    +0.009 A 
ENDROOT
BRANCH   6   7
ATOM      7  C   UNL A   1     -22.134   0.298  29.221  0.00  0.00    +0.219 C 
ATOM      8  F   UNL A   1     -21.340  -0.710  29.166  0.00  0.00    -0.229 F 
ENDBRANCH   6   7
BRANCH   3   9
ATOM      9  C   UNL A   1     -24.557  -1.216  29.547  0.00  0.00    +0.052 C 
BRANCH   9  10
ATOM     10  C   UNL A   1     -24.823  -2.643  29.303  0.00  0.00    -0.018 A 
ATOM     11  C   UNL A   1     -23.838  -3.305  28.664  0.00  0.00    -0.004 A 
ATOM     12  C   UNL A   1     -23.995  -4.725  28.470  0.00  0.00    -0.000 A 
ATOM     13  C   UNL A   1     -25.053  -5.396  29.002  0.00  0.00    -0.000 A 
ATOM     14  C   UNL A   1     -26.035  -3.224  29.706  0.00  0.00    -0.004 A 
ATOM     15  C   UNL A   1     -26.102  -4.626  29.622  0.00  0.00    -0.000 A 
ENDBRANCH   9  10
ENDBRANCH   3   9
TORSDOF 3
ENDMDL
ENDMDL
