REMARK  Name = No_3176-gen_results/8p0m/2024-11-26-14-13-15/
REMARK  5 active torsions:
REMARK  status: ('A' for Active; 'I' for Inactive)
REMARK    1  A    between atoms: C_3  and  C_4
REMARK    2  A    between atoms: C_6  and  O_14
REMARK    3  A    between atoms: O_14  and  C_15
REMARK    4  A    between atoms: C_15  and  C_16
REMARK    5  A    between atoms: C_17  and  C_18
REMARK                            x       y       z     vdW  Elec       q    Type
REMARK                         _______ _______ _______ _____ _____    ______ ____
ROOT
ATOM      1  C   UNL A   1     -24.546   0.349  28.823  0.00  0.00    +0.003 A 
ATOM      2  C   UNL A   1     -24.659   1.420  27.888  0.00  0.00    +0.037 A 
ATOM      3  C   UNL A   1     -23.540   2.179  27.550  0.00  0.00    +0.139 A 
ATOM      4  C   UNL A   1     -22.293   1.743  28.047  0.00  0.00    +0.037 A 
ATOM      5  C   UNL A   1     -22.171   0.708  28.928  0.00  0.00    +0.003 A 
ATOM      6  C   UNL A   1     -23.334  -0.062  29.308  0.00  0.00    +0.000 A 
ENDROOT
BRANCH   1   9
ATOM      7  C   UNL A   1     -28.016  -0.814  28.878  0.00  0.00    +0.011 A 
ATOM      8  C   UNL A   1     -27.064  -0.119  28.608  0.00  0.00    +0.001 A 
ATOM      9  C   UNL A   1     -25.792  -0.430  29.076  0.00  0.00    +0.000 A 
ATOM     10  C   UNL A   1     -27.947  -1.882  29.871  0.00  0.00    +0.058 A 
ATOM     11  C   UNL A   1     -26.716  -2.329  30.306  0.00  0.00    +0.011 A 
ATOM     12  C   UNL A   1     -25.592  -1.564  29.967  0.00  0.00    +0.001 A 
ATOM     13 CL   UNL A   1     -29.318  -2.800  30.293  0.00  0.00    -0.082 Cl
ENDBRANCH   1   9
BRANCH   3  14
ATOM     14  O   UNL A   1     -23.779   3.230  26.795  0.00  0.00    -0.471 OA
BRANCH  14  15
ATOM     15  C   UNL A   1     -25.053   3.889  26.954  0.00  0.00    +0.232 C 
BRANCH  15  16
ATOM     16  C   UNL A   1     -25.062   4.588  28.184  0.00  0.00    +0.016 C 
ATOM     17  C   UNL A   1     -26.128   5.182  28.471  0.00  0.00    -0.022 C 
ATOM     18  C   UNL A   1     -26.373   6.344  27.450  0.00  0.00    +0.031 C 
BRANCH  17  19
ATOM     19  C   UNL A   1     -26.277   5.855  29.770  0.00  0.00    -0.004 A 
ATOM     20  C   UNL A   1     -26.949   6.907  30.084  0.00  0.00    -0.000 A 
ATOM     21  C   UNL A   1     -26.948   7.539  31.362  0.00  0.00    -0.000 A 
ATOM     22  C   UNL A   1     -26.199   6.902  32.384  0.00  0.00    -0.000 A 
ATOM     23  C   UNL A   1     -25.480   5.736  32.136  0.00  0.00    -0.000 A 
ATOM     24  C   UNL A   1     -25.433   5.231  30.831  0.00  0.00    -0.000 A 
ENDBRANCH  17  19
ENDBRANCH  15  16
ENDBRANCH  14  15
ENDBRANCH   3  14
TORSDOF 5
