MODEL 3176
MODEL 1
REMARK VINA RESULT:    -7.820      0.000      0.000
REMARK INTER + INTRA:         -11.338
REMARK INTER:                 -10.105
REMARK INTRA:                  -1.233
REMARK UNBOUND:                -1.233
REMARK  Name = No_3176-gen_results/8p0m/2024-11-26-14-13-15/
REMARK  5 active torsions:
REMARK  status: ('A' for Active; 'I' for Inactive)
REMARK    1  A    between atoms: C_3  and  C_4
REMARK    2  A    between atoms: C_6  and  O_14
REMARK    3  A    between atoms: O_14  and  C_15
REMARK    4  A    between atoms: C_15  and  C_16
REMARK    5  A    between atoms: C_17  and  C_18
REMARK                            x       y       z     vdW  Elec       q    Type
REMARK                         _______ _______ _______ _____ _____    ______ ____
ROOT
ATOM      1  C   UNL A   1     -25.010   1.430  25.917  0.00  0.00    +0.003 A 
ATOM      2  C   UNL A   1     -25.004   1.453  27.343  0.00  0.00    +0.037 A 
ATOM      3  C   UNL A   1     -23.822   1.706  28.038  0.00  0.00    +0.139 A 
ATOM      4  C   UNL A   1     -22.696   2.083  27.275  0.00  0.00    +0.037 A 
ATOM      5  C   UNL A   1     -22.696   2.082  25.910  0.00  0.00    +0.003 A 
ATOM      6  C   UNL A   1     -23.911   1.789  25.184  0.00  0.00    +0.000 A 
ENDROOT
BRANCH   1   9
ATOM      7  C   UNL A   1     -27.889  -0.082  24.239  0.00  0.00    +0.011 A 
ATOM      8  C   UNL A   1     -26.796  -0.002  24.750  0.00  0.00    +0.001 A 
ATOM      9  C   UNL A   1     -26.335   1.201  25.274  0.00  0.00    +0.000 A 
ATOM     10  C   UNL A   1     -28.700   1.094  23.940  0.00  0.00    +0.058 A 
ATOM     11  C   UNL A   1     -28.376   2.308  24.512  0.00  0.00    +0.011 A 
ATOM     12  C   UNL A   1     -27.133   2.412  25.151  0.00  0.00    +0.001 A 
ATOM     13 CL   UNL A   1     -30.204   0.967  23.151  0.00  0.00    -0.082 Cl
ENDBRANCH   1   9
BRANCH   3  14
ATOM     14  O   UNL A   1     -23.893   1.560  29.343  0.00  0.00    -0.471 OA
BRANCH  14  15
ATOM     15  C   UNL A   1     -22.994   0.614  29.959  0.00  0.00    +0.232 C 
BRANCH  15  16
ATOM     16  C   UNL A   1     -23.359  -0.695  29.565  0.00  0.00    +0.016 C 
ATOM     17  C   UNL A   1     -24.287  -1.227  30.218  0.00  0.00    -0.022 C 
ATOM     18  C   UNL A   1     -23.822  -1.464  31.695  0.00  0.00    +0.031 C 
BRANCH  17  19
ATOM     19  C   UNL A   1     -24.810  -2.544  29.827  0.00  0.00    -0.004 A 
ATOM     20  C   UNL A   1     -25.948  -3.091  30.080  0.00  0.00    -0.000 A 
ATOM     21  C   UNL A   1     -26.322  -4.423  29.735  0.00  0.00    -0.000 A 
ATOM     22  C   UNL A   1     -25.379  -5.172  28.986  0.00  0.00    -0.000 A 
ATOM     23  C   UNL A   1     -24.143  -4.637  28.635  0.00  0.00    -0.000 A 
ATOM     24  C   UNL A   1     -23.796  -3.364  29.102  0.00  0.00    -0.000 A 
ENDBRANCH  17  19
ENDBRANCH  15  16
ENDBRANCH  14  15
ENDBRANCH   3  14
TORSDOF 5
ENDMDL
ENDMDL
