MODEL 3177
MODEL 1
REMARK VINA RESULT:    -4.359      0.000      0.000
REMARK INTER + INTRA:          -4.359
REMARK INTER:                  -4.359
REMARK INTRA:                   0.000
REMARK UNBOUND:                 0.000
REMARK  Name = No_3177-gen_results/8p0m/2024-11-26-14-13-15/
REMARK  0 active torsions:
REMARK  status: ('A' for Active; 'I' for Inactive)
REMARK                            x       y       z     vdW  Elec       q    Type
REMARK                         _______ _______ _______ _____ _____    ______ ____
ROOT
ATOM      1  C   UNL A   1     -24.934  -5.428  29.036  0.00  0.00    +0.000 A 
ATOM      2  C   UNL A   1     -24.196  -4.761  28.689  0.00  0.00    +0.000 A 
ATOM      3  C   UNL A   1     -26.122  -4.756  29.577  0.00  0.00    +0.000 A 
ATOM      4  C   UNL A   1     -26.171  -3.438  29.776  0.00  0.00    +0.000 A 
ATOM      5  C   UNL A   1     -24.019  -3.335  28.809  0.00  0.00    +0.000 A 
ATOM      6  C   UNL A   1     -25.122  -2.731  29.337  0.00  0.00    +0.000 A 
ENDROOT
TORSDOF 0
ENDMDL
ENDMDL
