MODEL 3178
MODEL 1
REMARK VINA RESULT:    -6.837      0.000      0.000
REMARK INTER + INTRA:          -8.160
REMARK INTER:                  -7.636
REMARK INTRA:                  -0.524
REMARK UNBOUND:                -0.524
REMARK  Name = No_3178-gen_results/8p0m/2024-11-26-14-13-15/
REMARK  2 active torsions:
REMARK  status: ('A' for Active; 'I' for Inactive)
REMARK    1  A    between atoms: C_3  and  C_4
REMARK    2  A    between atoms: C_4  and  C_8
REMARK                            x       y       z     vdW  Elec       q    Type
REMARK                         _______ _______ _______ _____ _____    ______ ____
ROOT
ATOM      1  C   UNL A   1     -24.034  -1.447  29.265  0.00  0.00    +0.196 C 
ATOM      2  O   UNL A   1     -23.394  -1.069  30.385  0.00  0.00    -0.287 OA
ENDROOT
BRANCH   1   5
ATOM      3  C   UNL A   1     -24.669  -0.080  27.188  0.00  0.00    +0.003 A 
ATOM      4  C   UNL A   1     -24.430   0.744  26.577  0.00  0.00    +0.000 A 
ATOM      5  C   UNL A   1     -23.790  -0.390  28.250  0.00  0.00    +0.039 A 
ATOM      6  C   UNL A   1     -23.292   1.680  26.607  0.00  0.00    +0.000 A 
ATOM      7  C   UNL A   1     -22.378   1.432  27.631  0.00  0.00    +0.000 A 
ATOM      8  C   UNL A   1     -22.622   0.424  28.507  0.00  0.00    +0.003 A 
ENDBRANCH   1   5
BRANCH   1   9
ATOM      9  C   UNL A   1     -24.499  -2.481  29.262  0.00  0.00    +0.039 A 
ATOM     10  C   UNL A   1     -25.725  -2.916  29.805  0.00  0.00    +0.003 A 
ATOM     11  C   UNL A   1     -26.240  -4.223  29.713  0.00  0.00    +0.000 A 
ATOM     12  C   UNL A   1     -25.372  -5.124  29.096  0.00  0.00    +0.000 A 
ATOM     13  C   UNL A   1     -23.850  -3.687  28.713  0.00  0.00    +0.003 A 
ATOM     14  C   UNL A   1     -24.241  -4.936  28.655  0.00  0.00    +0.000 A 
ENDBRANCH   1   9
TORSDOF 2
ENDMDL
ENDMDL
