REMARK  Name = No_3179-gen_results/8p0m/2024-11-26-14-13-15/
REMARK  3 active torsions:
REMARK  status: ('A' for Active; 'I' for Inactive)
REMARK    1  A    between atoms: C_2  and  C_7
REMARK    2  A    between atoms: C_7  and  C_8
REMARK    3  A    between atoms: C_12  and  C_13
REMARK                            x       y       z     vdW  Elec       q    Type
REMARK                         _______ _______ _______ _____ _____    ______ ____
ROOT
ATOM      1  C   UNL A   1     -25.891  -0.626  27.786  0.00  0.00    +0.049 C 
ENDROOT
BRANCH   1   3
ATOM      2  C   UNL A   1     -28.016  -0.814  28.878  0.00  0.00    -0.004 A 
ATOM      3  C   UNL A   1     -27.064  -0.119  28.608  0.00  0.00    -0.018 A 
ATOM      4  C   UNL A   1     -26.929   1.171  29.008  0.00  0.00    -0.004 A 
ATOM      5  C   UNL A   1     -27.956   1.741  29.784  0.00  0.00    -0.000 A 
ATOM      6  C   UNL A   1     -29.057  -0.327  29.747  0.00  0.00    -0.000 A 
ATOM      7  C   UNL A   1     -28.983   0.972  30.152  0.00  0.00    -0.000 A 
ENDBRANCH   1   3
BRANCH   1   8
ATOM      8  C   UNL A   1     -24.718  -1.061  28.613  0.00  0.00    -0.034 C 
ATOM      9  C   UNL A   1     -24.643  -2.249  29.088  0.00  0.00    -0.008 C 
ATOM     10  C   UNL A   1     -23.508  -2.635  29.810  0.00  0.00    -0.005 C 
ATOM     11  C   UNL A   1     -22.595  -1.633  30.073  0.00  0.00    -0.020 C 
ATOM     12  C   UNL A   1     -23.601  -0.262  29.050  0.00  0.00    +0.074 C 
BRANCH  12  13
ATOM     13  C   UNL A   1     -22.407  -0.166  29.761  0.00  0.00    +0.190 C 
ATOM     14  O   UNL A   1     -21.618   0.567  29.893  0.00  0.00    -0.220 OA
ENDBRANCH  12  13
ENDBRANCH   1   8
TORSDOF 3
