MODEL 3179
MODEL 1
REMARK VINA RESULT:    -6.258      0.000      0.000
REMARK INTER + INTRA:          -7.865
REMARK INTER:                  -7.355
REMARK INTRA:                  -0.509
REMARK UNBOUND:                -0.509
REMARK  Name = No_3179-gen_results/8p0m/2024-11-26-14-13-15/
REMARK  3 active torsions:
REMARK  status: ('A' for Active; 'I' for Inactive)
REMARK    1  A    between atoms: C_2  and  C_7
REMARK    2  A    between atoms: C_7  and  C_8
REMARK    3  A    between atoms: C_12  and  C_13
REMARK                            x       y       z     vdW  Elec       q    Type
REMARK                         _______ _______ _______ _____ _____    ______ ____
ROOT
ATOM      1  C   UNL A   1     -24.211  -1.252  29.479  0.00  0.00    +0.049 C 
ENDROOT
BRANCH   1   3
ATOM      2  C   UNL A   1     -23.825  -3.483  28.692  0.00  0.00    -0.004 A 
ATOM      3  C   UNL A   1     -24.559  -2.716  29.272  0.00  0.00    -0.018 A 
ATOM      4  C   UNL A   1     -25.756  -3.069  29.805  0.00  0.00    -0.004 A 
ATOM      5  C   UNL A   1     -26.176  -4.407  29.678  0.00  0.00    -0.000 A 
ATOM      6  C   UNL A   1     -24.146  -4.885  28.610  0.00  0.00    -0.000 A 
ATOM      7  C   UNL A   1     -25.351  -5.286  29.104  0.00  0.00    -0.000 A 
ENDBRANCH   1   3
BRANCH   1   8
ATOM      8  C   UNL A   1     -24.247  -0.439  28.219  0.00  0.00    -0.034 C 
ATOM      9  C   UNL A   1     -23.422   0.521  28.022  0.00  0.00    -0.008 C 
ATOM     10  C   UNL A   1     -23.452   1.223  26.812  0.00  0.00    -0.005 C 
ATOM     11  C   UNL A   1     -24.487   0.900  25.957  0.00  0.00    -0.020 C 
ATOM     12  C   UNL A   1     -25.191  -0.535  27.134  0.00  0.00    +0.074 C 
BRANCH  12  13
ATOM     13  C   UNL A   1     -25.643  -0.072  25.900  0.00  0.00    +0.190 C 
ATOM     14  O   UNL A   1     -25.306  -0.099  24.869  0.00  0.00    -0.220 OA
ENDBRANCH  12  13
ENDBRANCH   1   8
TORSDOF 3
ENDMDL
ENDMDL
