MODEL 3180
MODEL 1
REMARK VINA RESULT:    -4.372      0.000      0.000
REMARK INTER + INTRA:          -4.372
REMARK INTER:                  -4.372
REMARK INTRA:                   0.000
REMARK UNBOUND:                 0.000
REMARK  Name = No_3180-gen_results/8p0m/2024-11-26-14-13-15/
REMARK  0 active torsions:
REMARK  status: ('A' for Active; 'I' for Inactive)
REMARK                            x       y       z     vdW  Elec       q    Type
REMARK                         _______ _______ _______ _____ _____    ______ ____
ROOT
ATOM      1  C   UNL A   1     -24.957  -5.430  28.991  0.00  0.00    +0.000 A 
ATOM      2  C   UNL A   1     -24.187  -4.780  28.684  0.00  0.00    +0.000 A 
ATOM      3  C   UNL A   1     -26.088  -4.744  29.616  0.00  0.00    +0.000 A 
ATOM      4  C   UNL A   1     -26.125  -3.379  29.759  0.00  0.00    +0.000 A 
ATOM      5  C   UNL A   1     -24.059  -3.526  28.677  0.00  0.00    +0.000 A 
ATOM      6  C   UNL A   1     -25.028  -2.711  29.232  0.00  0.00    +0.000 A 
ENDROOT
TORSDOF 0
ENDMDL
ENDMDL
