MODEL 3181
MODEL 1
REMARK VINA RESULT:    -6.467      0.000      0.000
REMARK INTER + INTRA:          -7.052
REMARK INTER:                  -6.845
REMARK INTRA:                  -0.208
REMARK UNBOUND:                -0.208
REMARK  Name = No_3181-gen_results/8p0m/2024-11-26-14-13-15/
REMARK  1 active torsions:
REMARK  status: ('A' for Active; 'I' for Inactive)
REMARK    1  A    between atoms: C_9  and  C_11
REMARK                            x       y       z     vdW  Elec       q    Type
REMARK                         _______ _______ _______ _____ _____    ______ ____
ROOT
ATOM      1  C   UNL A   1     -26.476  -3.343  30.024  0.00  0.00    -0.000 A 
ATOM      2  C   UNL A   1     -25.534  -2.588  29.952  0.00  0.00    -0.000 A 
ATOM      3  C   UNL A   1     -24.319  -3.005  29.421  0.00  0.00    -0.000 A 
ATOM      4  C   UNL A   1     -24.129  -4.364  28.983  0.00  0.00    -0.000 A 
ATOM      5  C   UNL A   1     -25.262  -5.175  29.124  0.00  0.00    -0.000 A 
ATOM      6  C   UNL A   1     -26.384  -4.736  29.648  0.00  0.00    -0.000 A 
ATOM      7  C   UNL A   1     -25.541  -1.163  30.380  0.00  0.00    -0.000 A 
ATOM      8  C   UNL A   1     -24.827  -0.255  29.816  0.00  0.00    +0.004 A 
ATOM      9  C   UNL A   1     -23.502  -0.682  29.195  0.00  0.00    +0.071 A 
ATOM     10  C   UNL A   1     -23.329  -2.027  28.894  0.00  0.00    +0.004 A 
ENDROOT
BRANCH   9  11
ATOM     11  C   UNL A   1     -22.497   0.305  28.824  0.00  0.00    +0.419 C 
ATOM     12  F   UNL A   1     -21.343  -0.153  28.945  0.00  0.00    -0.166 F 
ATOM     13  F   UNL A   1     -22.650   0.767  27.567  0.00  0.00    -0.166 F 
ATOM     14  F   UNL A   1     -22.696   1.370  29.729  0.00  0.00    -0.166 F 
ENDBRANCH   9  11
TORSDOF 1
ENDMDL
ENDMDL
