MODEL 3183
MODEL 1
REMARK VINA RESULT:    -4.266      0.000      0.000
REMARK INTER + INTRA:          -4.266
REMARK INTER:                  -4.266
REMARK INTRA:                   0.000
REMARK UNBOUND:                 0.000
REMARK  Name = No_3183-gen_results/8p0m/2024-11-26-14-13-15/
REMARK  0 active torsions:
REMARK  status: ('A' for Active; 'I' for Inactive)
REMARK                            x       y       z     vdW  Elec       q    Type
REMARK                         _______ _______ _______ _____ _____    ______ ____
ROOT
ATOM      1  C   UNL A   1      -8.217  -9.688  20.282  0.00  0.00    +0.000 A 
ATOM      2  C   UNL A   1      -7.998 -10.154  19.362  0.00  0.00    +0.000 A 
ATOM      3  C   UNL A   1      -9.544  -9.075  20.326  0.00  0.00    +0.000 A 
ATOM      4  C   UNL A   1     -10.329  -9.228  19.488  0.00  0.00    +0.000 A 
ATOM      5  C   UNL A   1      -8.770 -10.449  18.171  0.00  0.00    +0.000 A 
ATOM      6  C   UNL A   1     -10.068  -9.879  18.278  0.00  0.00    +0.000 A 
ENDROOT
TORSDOF 0
ENDMDL
ENDMDL
