REMARK  Name = No_3184-gen_results/8p0m/2024-11-26-14-13-15/
REMARK  5 active torsions:
REMARK  status: ('A' for Active; 'I' for Inactive)
REMARK    1  A    between atoms: C_2  and  C_23
REMARK    2  A    between atoms: C_6  and  O_14
REMARK    3  A    between atoms: C_8  and  C_11
REMARK    4  A    between atoms: O_14  and  C_15
REMARK    5  A    between atoms: C_15  and  C_16
REMARK                            x       y       z     vdW  Elec       q    Type
REMARK                         _______ _______ _______ _____ _____    ______ ____
ROOT
ATOM      1  C   UNL A   1     -28.016  -0.814  28.878  0.00  0.00    +0.038 A 
ATOM      2  C   UNL A   1     -27.064  -0.119  28.608  0.00  0.00    +0.003 A 
ATOM      3  C   UNL A   1     -25.765  -0.390  29.036  0.00  0.00    +0.000 A 
ATOM      4  C   UNL A   1     -25.530  -1.530  29.901  0.00  0.00    +0.003 A 
ATOM      5  C   UNL A   1     -26.689  -2.289  30.181  0.00  0.00    +0.038 A 
ATOM      6  C   UNL A   1     -27.873  -1.951  29.737  0.00  0.00    +0.149 A 
ATOM      7  C   UNL A   1     -24.549   0.410  28.734  0.00  0.00    +0.007 A 
ATOM      8  C   UNL A   1     -23.331   0.044  29.057  0.00  0.00    +0.080 A 
ATOM      9  C   UNL A   1     -23.211  -1.223  29.798  0.00  0.00    +0.007 A 
ATOM     10  C   UNL A   1     -24.236  -1.957  30.220  0.00  0.00    +0.000 A 
ENDROOT
BRANCH   2  11
ATOM     11  C   UNL A   1     -27.178   1.099  27.691  0.00  0.00    +0.000 A 
ATOM     12  C   UNL A   1     -27.660   0.912  26.477  0.00  0.00    +0.000 A 
ATOM     13  C   UNL A   1     -27.591   1.901  25.545  0.00  0.00    +0.000 A 
ATOM     14  C   UNL A   1     -27.074   3.215  25.829  0.00  0.00    +0.000 A 
ATOM     15  C   UNL A   1     -26.534   3.393  27.118  0.00  0.00    +0.000 A 
ATOM     16  C   UNL A   1     -26.506   2.361  28.026  0.00  0.00    +0.000 A 
ENDBRANCH   2  11
BRANCH   8  17
ATOM     17  C   UNL A   1     -22.122   0.766  28.728  0.00  0.00    +0.388 C 
ATOM     18  O   UNL A   1     -22.102   1.631  27.812  0.00  0.00    -0.241 OA
ATOM     19  O   UNL A   1     -20.974   0.493  29.292  0.00  0.00    -0.241 OA
ENDBRANCH   8  17
BRANCH   6  20
ATOM     20  O   UNL A   1     -29.000  -2.673  30.110  0.00  0.00    -0.421 OA
BRANCH  20  21
ATOM     21  C   UNL A   1     -28.884  -3.980  30.519  0.00  0.00    +0.346 C 
ATOM     22  O   UNL A   1     -27.829  -4.531  29.631  0.00  0.00    -0.244 OA
BRANCH  21  23
ATOM     23  C   UNL A   1     -29.243  -4.691  31.250  0.00  0.00    +0.076 A 
ATOM     24  C   UNL A   1     -30.485  -4.862  31.439  0.00  0.00    +0.006 A 
ATOM     25  C   UNL A   1     -31.092  -5.854  32.378  0.00  0.00    +0.000 A 
ATOM     26  C   UNL A   1     -30.153  -6.623  33.069  0.00  0.00    +0.000 A 
ATOM     27  C   UNL A   1     -28.840  -6.551  32.821  0.00  0.00    +0.000 A 
ATOM     28  C   UNL A   1     -28.340  -5.684  31.948  0.00  0.00    +0.006 A 
ENDBRANCH  21  23
ENDBRANCH  20  21
ENDBRANCH   6  20
TORSDOF 5
