MODEL 3185
MODEL 1
REMARK VINA RESULT:    -5.917      0.000      0.000
REMARK INTER + INTRA:          -7.360
REMARK INTER:                  -6.609
REMARK INTRA:                  -0.751
REMARK UNBOUND:                -0.751
REMARK  Name = No_3185-gen_results/8p0m/2024-11-26-14-13-15/
REMARK  2 active torsions:
REMARK  status: ('A' for Active; 'I' for Inactive)
REMARK    1  A    between atoms: C_3  and  C_8
REMARK    2  A    between atoms: C_8  and  C_9
REMARK                            x       y       z     vdW  Elec       q    Type
REMARK                         _______ _______ _______ _____ _____    ______ ____
ROOT
ATOM      1  C   UNL A   1     -26.430  -2.817  30.028  0.00  0.00    +0.042 A 
ATOM      2  C   UNL A   1     -25.428  -2.222  29.704  0.00  0.00    -0.001 A 
ATOM      3  C   UNL A   1     -24.326  -2.718  29.218  0.00  0.00    -0.018 A 
ATOM      4  C   UNL A   1     -24.246  -4.133  29.044  0.00  0.00    -0.001 A 
ATOM      5  C   UNL A   1     -26.466  -4.245  29.773  0.00  0.00    +0.196 A 
ATOM      6  C   UNL A   1     -25.371  -4.835  29.294  0.00  0.00    +0.042 A 
ATOM      7  O   UNL A   1     -27.641  -4.878  30.051  0.00  0.00    -0.287 OA
ENDROOT
BRANCH   3   8
ATOM      8  C   UNL A   1     -23.090  -1.878  28.919  0.00  0.00    +0.053 C 
BRANCH   8   9
ATOM      9  C   UNL A   1     -22.732  -0.931  29.028  0.00  0.00    -0.018 A 
ATOM     10  C   UNL A   1     -22.456  -0.339  30.319  0.00  0.00    -0.004 A 
ATOM     11  C   UNL A   1     -23.111   0.455  30.854  0.00  0.00    -0.000 A 
ATOM     12  C   UNL A   1     -23.830   1.497  29.973  0.00  0.00    -0.000 A 
ATOM     13  C   UNL A   1     -23.495   1.439  28.617  0.00  0.00    -0.000 A 
ATOM     14  C   UNL A   1     -23.066   0.246  28.194  0.00  0.00    -0.004 A 
ENDBRANCH   8   9
ENDBRANCH   3   8
TORSDOF 2
ENDMDL
ENDMDL
