REMARK  Name = No_3185-gen_results/8p0m/2024-11-26-14-13-15/
REMARK  2 active torsions:
REMARK  status: ('A' for Active; 'I' for Inactive)
REMARK    1  A    between atoms: C_3  and  C_8
REMARK    2  A    between atoms: C_8  and  C_9
REMARK                            x       y       z     vdW  Elec       q    Type
REMARK                         _______ _______ _______ _____ _____    ______ ____
ROOT
ATOM      1  C   UNL A   1     -28.016  -0.814  28.878  0.00  0.00    +0.042 A 
ATOM      2  C   UNL A   1     -27.064  -0.119  28.608  0.00  0.00    -0.001 A 
ATOM      3  C   UNL A   1     -26.876   1.133  28.913  0.00  0.00    -0.018 A 
ATOM      4  C   UNL A   1     -27.901   1.807  29.644  0.00  0.00    -0.001 A 
ATOM      5  C   UNL A   1     -29.046  -0.232  29.718  0.00  0.00    +0.196 A 
ATOM      6  C   UNL A   1     -28.940   1.052  30.060  0.00  0.00    +0.042 A 
ATOM      7  O   UNL A   1     -30.059  -1.063  30.095  0.00  0.00    -0.287 OA
ENDROOT
BRANCH   3   8
ATOM      8  C   UNL A   1     -25.668   1.936  28.448  0.00  0.00    +0.053 C 
BRANCH   8   9
ATOM      9  C   UNL A   1     -24.830   1.845  27.877  0.00  0.00    -0.018 A 
ATOM     10  C   UNL A   1     -24.312   0.567  27.439  0.00  0.00    -0.004 A 
ATOM     11  C   UNL A   1     -23.386   0.025  27.878  0.00  0.00    -0.000 A 
ATOM     12  C   UNL A   1     -22.209   0.900  28.356  0.00  0.00    -0.000 A 
ATOM     13  C   UNL A   1     -22.349   2.262  28.078  0.00  0.00    -0.000 A 
ATOM     14  C   UNL A   1     -23.611   2.683  27.949  0.00  0.00    -0.004 A 
ENDBRANCH   8   9
ENDBRANCH   3   8
TORSDOF 2
