MODEL 3186
MODEL 1
REMARK VINA RESULT:    -4.276      0.000      0.000
REMARK INTER + INTRA:          -4.276
REMARK INTER:                  -4.276
REMARK INTRA:                   0.000
REMARK UNBOUND:                 0.000
REMARK  Name = No_3186-gen_results/8p0m/2024-11-26-14-13-15/
REMARK  0 active torsions:
REMARK  status: ('A' for Active; 'I' for Inactive)
REMARK                            x       y       z     vdW  Elec       q    Type
REMARK                         _______ _______ _______ _____ _____    ______ ____
ROOT
ATOM      1  C   UNL A   1     -26.372  -3.847  29.802  0.00  0.00    +0.000 A 
ATOM      2  C   UNL A   1     -26.084  -4.835  29.577  0.00  0.00    +0.000 A 
ATOM      3  C   UNL A   1     -25.377  -2.845  29.420  0.00  0.00    +0.000 A 
ATOM      4  C   UNL A   1     -24.195  -3.186  28.810  0.00  0.00    +0.000 A 
ATOM      5  C   UNL A   1     -24.930  -5.477  28.949  0.00  0.00    +0.000 A 
ATOM      6  C   UNL A   1     -23.960  -4.516  28.575  0.00  0.00    +0.000 A 
ENDROOT
TORSDOF 0
ENDMDL
ENDMDL
