MODEL 3187
MODEL 1
REMARK VINA RESULT:    -5.854      0.000      0.000
REMARK INTER + INTRA:          -7.010
REMARK INTER:                  -6.539
REMARK INTRA:                  -0.471
REMARK UNBOUND:                -0.471
REMARK  Name = No_3187-gen_results/8p0m/2024-11-26-14-13-15/
REMARK  2 active torsions:
REMARK  status: ('A' for Active; 'I' for Inactive)
REMARK    1  A    between atoms: C_2  and  C_5
REMARK    2  A    between atoms: C_5  and  C_6
REMARK                            x       y       z     vdW  Elec       q    Type
REMARK                         _______ _______ _______ _____ _____    ______ ____
ROOT
ATOM      1  C   UNL A   1     -24.292  -2.378  29.182  0.00  0.00    +0.047 A 
ATOM      2  C   UNL A   1     -25.612  -2.499  29.792  0.00  0.00    +0.149 A 
ATOM      3  C   UNL A   1     -26.363  -3.714  29.914  0.00  0.00    +0.085 A 
ATOM      4  C   UNL A   1     -25.711  -4.869  29.415  0.00  0.00    +0.014 A 
ATOM      5  C   UNL A   1     -24.464  -4.869  28.854  0.00  0.00    +0.001 A 
ATOM      6  C   UNL A   1     -23.869  -3.723  28.691  0.00  0.00    +0.001 A 
ATOM      7 CL   UNL A   1     -27.897  -3.704  30.549  0.00  0.00    -0.080 Cl
ATOM      8  F   UNL A   1     -26.187  -1.433  30.201  0.00  0.00    -0.203 F 
ENDROOT
BRANCH   1   9
ATOM      9  C   UNL A   1     -23.707  -1.409  28.870  0.00  0.00    +0.279 C 
ATOM     10  F   UNL A   1     -24.169  -0.727  27.793  0.00  0.00    -0.223 F 
BRANCH   9  12
ATOM     11  F   UNL A   1     -22.725   0.334  29.513  0.00  0.00    -0.167 F 
ATOM     12  C   UNL A   1     -22.571  -0.733  29.592  0.00  0.00    +0.431 C 
ATOM     13  F   UNL A   1     -21.500  -1.114  29.177  0.00  0.00    -0.167 F 
ATOM     14  F   UNL A   1     -22.666  -1.086  30.937  0.00  0.00    -0.167 F 
ENDBRANCH   9  12
ENDBRANCH   1   9
TORSDOF 2
ENDMDL
ENDMDL
