REMARK  Name = No_3187-gen_results/8p0m/2024-11-26-14-13-15/
REMARK  2 active torsions:
REMARK  status: ('A' for Active; 'I' for Inactive)
REMARK    1  A    between atoms: C_2  and  C_5
REMARK    2  A    between atoms: C_5  and  C_6
REMARK                            x       y       z     vdW  Elec       q    Type
REMARK                         _______ _______ _______ _____ _____    ______ ____
ROOT
ATOM      1  C   UNL A   1     -26.945   0.861  27.628  0.00  0.00    +0.047 A 
ATOM      2  C   UNL A   1     -26.213   2.001  27.085  0.00  0.00    +0.149 A 
ATOM      3  C   UNL A   1     -25.305   1.954  25.977  0.00  0.00    +0.085 A 
ATOM      4  C   UNL A   1     -25.167   0.679  25.374  0.00  0.00    +0.014 A 
ATOM      5  C   UNL A   1     -25.830  -0.444  25.785  0.00  0.00    +0.001 A 
ATOM      6  C   UNL A   1     -26.572  -0.358  26.850  0.00  0.00    +0.001 A 
ATOM      7 CL   UNL A   1     -24.462   3.307  25.512  0.00  0.00    -0.080 Cl
ATOM      8  F   UNL A   1     -26.333   3.129  27.674  0.00  0.00    -0.203 F 
ENDROOT
BRANCH   1   9
ATOM      9  C   UNL A   1     -27.542   0.777  28.635  0.00  0.00    +0.279 C 
ATOM     10  F   UNL A   1     -27.718   1.917  29.348  0.00  0.00    -0.223 F 
BRANCH   9  12
ATOM     11  F   UNL A   1     -28.073  -1.254  28.532  0.00  0.00    -0.167 F 
ATOM     12  C   UNL A   1     -28.266  -0.421  29.193  0.00  0.00    +0.431 C 
ATOM     13  F   UNL A   1     -29.440  -0.182  29.365  0.00  0.00    -0.167 F 
ATOM     14  F   UNL A   1     -27.696  -0.709  30.432  0.00  0.00    -0.167 F 
ENDBRANCH   9  12
ENDBRANCH   1   9
TORSDOF 2
