MODEL 3188
MODEL 1
REMARK VINA RESULT:    -8.210      0.000      0.000
REMARK INTER + INTRA:         -10.298
REMARK INTER:                 -10.129
REMARK INTRA:                  -0.169
REMARK UNBOUND:                -0.169
REMARK  Name = No_3188-gen_results/8p0m/2024-11-26-14-13-15/
REMARK  4 active torsions:
REMARK  status: ('A' for Active; 'I' for Inactive)
REMARK    1  A    between atoms: C_3  and  C_8
REMARK    2  A    between atoms: C_8  and  C_9
REMARK    3  A    between atoms: C_8  and  C_15
REMARK    4  A    between atoms: N_16  and  C_19
REMARK                            x       y       z     vdW  Elec       q    Type
REMARK                         _______ _______ _______ _____ _____    ______ ____
ROOT
ATOM      1  C   UNL A   1     -23.720  -1.041  28.738  0.00  0.00    +0.109 C 
ENDROOT
BRANCH   1   4
ATOM      2  O   UNL A   1     -26.277  -1.138  29.926  0.00  0.00    -0.275 OA
ATOM      3  C   UNL A   1     -25.534  -2.075  29.610  0.00  0.00    +0.226 C 
ATOM      4  C   UNL A   1     -24.637  -2.261  29.119  0.00  0.00    +0.089 C 
ATOM      5  N   UNL A   1     -26.326  -3.465  29.834  0.00  0.00    -0.278 N 
ATOM      6  C   UNL A   1     -23.895  -3.466  28.625  0.00  0.00    +0.012 C 
ATOM      7  C   UNL A   1     -24.606  -4.668  28.971  0.00  0.00    +0.022 C 
ATOM      8  C   UNL A   1     -25.821  -4.594  29.517  0.00  0.00    +0.093 C 
ATOM      9  C   UNL A   1     -27.693  -3.467  30.435  0.00  0.00    +0.115 C 
ENDBRANCH   1   4
BRANCH   1  10
ATOM     10  C   UNL A   1     -23.984  -0.201  27.933  0.00  0.00    -0.013 A 
ATOM     11  C   UNL A   1     -23.076   1.023  27.808  0.00  0.00    -0.004 A 
ATOM     12  C   UNL A   1     -23.365   1.968  26.764  0.00  0.00    -0.000 A 
ATOM     13  C   UNL A   1     -24.451   1.681  25.911  0.00  0.00    -0.000 A 
ATOM     14  C   UNL A   1     -25.245   0.593  26.000  0.00  0.00    -0.000 A 
ATOM     15  C   UNL A   1     -24.995  -0.359  26.984  0.00  0.00    -0.004 A 
ENDBRANCH   1  10
BRANCH   1  16
ATOM     16  C   UNL A   1     -22.450  -1.072  29.460  0.00  0.00    +0.250 C 
ATOM     17  N   UNL A   1     -22.444  -0.398  30.629  0.00  0.00    -0.179 NA
ATOM     18  O   UNL A   1     -21.436  -1.415  28.896  0.00  0.00    -0.273 OA
BRANCH  17  19
ATOM     19  C   UNL A   1     -23.603   0.014  31.381  0.00  0.00    +0.073 A 
ATOM     20  C   UNL A   1     -23.978  -0.822  32.497  0.00  0.00    +0.017 A 
ATOM     21  C   UNL A   1     -25.089  -0.317  33.312  0.00  0.00    +0.001 A 
ATOM     22  C   UNL A   1     -25.546   1.056  33.159  0.00  0.00    +0.000 A 
ATOM     23  C   UNL A   1     -25.040   1.782  32.012  0.00  0.00    +0.001 A 
ATOM     24  C   UNL A   1     -24.041   1.292  31.256  0.00  0.00    +0.017 A 
ENDBRANCH  17  19
ENDBRANCH   1  16
TORSDOF 4
ENDMDL
ENDMDL
