REMARK  Name = No_3188-gen_results/8p0m/2024-11-26-14-13-15/
REMARK  4 active torsions:
REMARK  status: ('A' for Active; 'I' for Inactive)
REMARK    1  A    between atoms: C_3  and  C_8
REMARK    2  A    between atoms: C_8  and  C_9
REMARK    3  A    between atoms: C_8  and  C_15
REMARK    4  A    between atoms: N_16  and  C_19
REMARK                            x       y       z     vdW  Elec       q    Type
REMARK                         _______ _______ _______ _____ _____    ______ ____
ROOT
ATOM      1  C   UNL A   1     -26.831   0.981  27.524  0.00  0.00    +0.109 C 
ENDROOT
BRANCH   1   4
ATOM      2  O   UNL A   1     -28.123  -1.335  28.487  0.00  0.00    -0.275 OA
ATOM      3  C   UNL A   1     -27.064  -0.824  28.869  0.00  0.00    +0.226 C 
ATOM      4  C   UNL A   1     -26.402  -0.062  28.622  0.00  0.00    +0.089 C 
ATOM      5  N   UNL A   1     -26.381  -1.799  29.962  0.00  0.00    -0.278 N 
ATOM      6  C   UNL A   1     -25.033   0.374  29.048  0.00  0.00    +0.012 C 
ATOM      7  C   UNL A   1     -24.546  -0.470  30.107  0.00  0.00    +0.022 C 
ATOM      8  C   UNL A   1     -25.236  -1.553  30.471  0.00  0.00    +0.093 C 
ATOM      9  C   UNL A   1     -27.086  -3.033  30.418  0.00  0.00    +0.115 C 
ENDBRANCH   1   4
BRANCH   1  10
ATOM     10  C   UNL A   1     -27.062   2.135  27.718  0.00  0.00    -0.013 A 
ATOM     11  C   UNL A   1     -26.825   2.719  29.111  0.00  0.00    -0.004 A 
ATOM     12  C   UNL A   1     -27.019   4.133  29.287  0.00  0.00    -0.000 A 
ATOM     13  C   UNL A   1     -27.387   4.884  28.151  0.00  0.00    -0.000 A 
ATOM     14  C   UNL A   1     -27.578   4.381  26.914  0.00  0.00    -0.000 A 
ATOM     15  C   UNL A   1     -27.386   3.021  26.689  0.00  0.00    -0.004 A 
ENDBRANCH   1  10
BRANCH   1  16
ATOM     16  C   UNL A   1     -26.968   0.358  26.210  0.00  0.00    +0.250 C 
ATOM     17  N   UNL A   1     -25.914   0.531  25.386  0.00  0.00    -0.179 NA
ATOM     18  O   UNL A   1     -28.053  -0.006  25.818  0.00  0.00    -0.273 OA
BRANCH  17  19
ATOM     19  C   UNL A   1     -24.583   0.926  25.776  0.00  0.00    +0.073 A 
ATOM     20  C   UNL A   1     -24.036   2.088  25.116  0.00  0.00    +0.017 A 
ATOM     21  C   UNL A   1     -22.729   2.534  25.614  0.00  0.00    +0.001 A 
ATOM     22  C   UNL A   1     -22.204   2.010  26.866  0.00  0.00    +0.000 A 
ATOM     23  C   UNL A   1     -22.895   0.868  27.430  0.00  0.00    +0.001 A 
ATOM     24  C   UNL A   1     -24.078   0.453  26.943  0.00  0.00    +0.017 A 
ENDBRANCH  17  19
ENDBRANCH   1  16
TORSDOF 4
