REMARK  Name = No_3189-gen_results/8p0m/2024-11-26-14-13-15/
REMARK  5 active torsions:
REMARK  status: ('A' for Active; 'I' for Inactive)
REMARK    1  A    between atoms: C_1  and  C_2
REMARK    2  A    between atoms: C_1  and  C_8
REMARK    3  A    between atoms: C_3  and  C_15
REMARK    4  A    between atoms: C_5  and  C_11
REMARK    5  A    between atoms: C_18  and  C_19
REMARK                            x       y       z     vdW  Elec       q    Type
REMARK                         _______ _______ _______ _____ _____    ______ ____
ROOT
ATOM      1  C   UNL A   1     -27.064  -0.119  28.608  0.00  0.00    -0.006 A 
ATOM      2  C   UNL A   1     -26.972   0.714  27.506  0.00  0.00    +0.052 A 
ATOM      3  C   UNL A   1     -25.820   1.491  27.116  0.00  0.00    +0.008 A 
ATOM      4  C   UNL A   1     -24.656   1.424  27.918  0.00  0.00    +0.071 A 
ATOM      5  C   UNL A   1     -24.685   0.590  29.066  0.00  0.00    +0.004 A 
ATOM      6  C   UNL A   1     -25.810  -0.127  29.334  0.00  0.00    -0.004 A 
ENDROOT
BRANCH   2   7
ATOM      7  C   UNL A   1     -28.124   0.825  26.591  0.00  0.00    +0.271 C 
ATOM      8  O   UNL A   1     -28.111   0.624  25.423  0.00  0.00    -0.268 OA
ATOM      9  N   UNL A   1     -29.361   1.081  27.182  0.00  0.00    -0.137 NA
ATOM     10  C   UNL A   1     -30.533   1.266  26.419  0.00  0.00    +0.272 C 
ATOM     11  O   UNL A   1     -30.744   0.556  25.505  0.00  0.00    -0.268 OA
BRANCH  10  12
ATOM     12  C   UNL A   1     -31.328   2.131  26.937  0.00  0.00    +0.056 A 
ATOM     13  C   UNL A   1     -32.318   2.663  26.252  0.00  0.00    +0.005 A 
ATOM     14  C   UNL A   1     -33.257   3.660  26.739  0.00  0.00    +0.000 A 
ATOM     15  C   UNL A   1     -33.170   4.019  28.090  0.00  0.00    +0.000 A 
ATOM     16  C   UNL A   1     -32.215   3.429  28.894  0.00  0.00    +0.000 A 
ATOM     17  C   UNL A   1     -31.336   2.532  28.393  0.00  0.00    +0.005 A 
ENDBRANCH  10  12
ENDBRANCH   2   7
BRANCH   4  18
ATOM     18  C   UNL A   1     -23.466   2.195  27.600  0.00  0.00    +0.419 C 
ATOM     19  F   UNL A   1     -22.641   1.665  27.084  0.00  0.00    -0.166 F 
ATOM     20  F   UNL A   1     -23.001   2.800  28.762  0.00  0.00    -0.166 F 
ATOM     21  F   UNL A   1     -23.916   3.362  26.931  0.00  0.00    -0.166 F 
ENDBRANCH   4  18
BRANCH   1  22
ATOM     22  C   UNL A   1     -28.016  -0.814  28.878  0.00  0.00    +0.141 C 
BRANCH  22  23
ATOM     23  C   UNL A   1     -28.694  -0.473  30.159  0.00  0.00    +0.369 C 
ATOM     24  O   UNL A   1     -28.731   0.507  30.639  0.00  0.00    -0.245 OA
ATOM     25  O   UNL A   1     -29.563  -1.510  30.628  0.00  0.00    -0.245 OA
ENDBRANCH  22  23
ENDBRANCH   1  22
TORSDOF 5
