MODEL 3189
MODEL 1
REMARK VINA RESULT:    -7.083      0.000      0.000
REMARK INTER + INTRA:         -10.022
REMARK INTER:                  -9.154
REMARK INTRA:                  -0.868
REMARK UNBOUND:                -0.868
REMARK  Name = No_3189-gen_results/8p0m/2024-11-26-14-13-15/
REMARK  5 active torsions:
REMARK  status: ('A' for Active; 'I' for Inactive)
REMARK    1  A    between atoms: C_1  and  C_2
REMARK    2  A    between atoms: C_1  and  C_8
REMARK    3  A    between atoms: C_3  and  C_15
REMARK    4  A    between atoms: C_5  and  C_11
REMARK    5  A    between atoms: C_18  and  C_19
REMARK                            x       y       z     vdW  Elec       q    Type
REMARK                         _______ _______ _______ _____ _____    ______ ____
ROOT
ATOM      1  C   UNL A   1     -11.580   1.857  37.691  0.00  0.00    -0.006 A 
ATOM      2  C   UNL A   1     -10.992   0.721  37.160  0.00  0.00    +0.052 A 
ATOM      3  C   UNL A   1     -11.005  -0.599  37.741  0.00  0.00    +0.008 A 
ATOM      4  C   UNL A   1     -11.668  -0.788  38.977  0.00  0.00    +0.071 A 
ATOM      5  C   UNL A   1     -12.290   0.337  39.578  0.00  0.00    +0.004 A 
ATOM      6  C   UNL A   1     -12.248   1.537  38.936  0.00  0.00    -0.004 A 
ENDROOT
BRANCH   2   7
ATOM      7  C   UNL A   1     -10.305   0.811  35.857  0.00  0.00    +0.271 C 
ATOM      8  O   UNL A   1     -10.813   1.049  34.813  0.00  0.00    -0.268 OA
ATOM      9  N   UNL A   1      -8.913   0.716  35.885  0.00  0.00    -0.137 NA
ATOM     10  C   UNL A   1      -8.137   0.730  34.707  0.00  0.00    +0.272 C 
ATOM     11  O   UNL A   1      -8.400   1.495  33.852  0.00  0.00    -0.268 OA
BRANCH  10  12
ATOM     12  C   UNL A   1      -7.104  -0.028  34.787  0.00  0.00    +0.056 A 
ATOM     13  C   UNL A   1      -7.147  -1.299  34.448  0.00  0.00    +0.005 A 
ATOM     14  C   UNL A   1      -6.043  -2.242  34.521  0.00  0.00    +0.000 A 
ATOM     15  C   UNL A   1      -4.790  -1.737  34.889  0.00  0.00    +0.000 A 
ATOM     16  C   UNL A   1      -4.650  -0.391  35.166  0.00  0.00    +0.000 A 
ATOM     17  C   UNL A   1      -5.710   0.446  35.122  0.00  0.00    +0.005 A 
ENDBRANCH  10  12
ENDBRANCH   2   7
BRANCH   4  18
ATOM     18  C   UNL A   1     -11.703  -2.084  39.633  0.00  0.00    +0.419 C 
ATOM     19  F   UNL A   1     -10.745  -2.484  40.018  0.00  0.00    -0.166 F 
ATOM     20  F   UNL A   1     -12.302  -3.002  38.778  0.00  0.00    -0.166 F 
ATOM     21  F   UNL A   1     -12.735  -2.010  40.604  0.00  0.00    -0.166 F 
ENDBRANCH   4  18
BRANCH   1  22
ATOM     22  C   UNL A   1     -11.616   2.939  37.153  0.00  0.00    +0.141 C 
BRANCH  22  23
ATOM     23  C   UNL A   1     -12.982   3.416  36.802  0.00  0.00    +0.369 C 
ATOM     24  O   UNL A   1     -13.425   4.380  37.060  0.00  0.00    -0.245 OA
ATOM     25  O   UNL A   1     -13.633   2.590  35.829  0.00  0.00    -0.245 OA
ENDBRANCH  22  23
ENDBRANCH   1  22
TORSDOF 5
ENDMDL
ENDMDL
