MODEL 318
MODEL 1
REMARK VINA RESULT:    -6.513      0.000      0.000
REMARK INTER + INTRA:          -7.222
REMARK INTER:                  -6.893
REMARK INTRA:                  -0.329
REMARK UNBOUND:                -0.329
REMARK  Name = No_318-gen_results/8p0m/2024-11-26-14-13-15/
REMARK  1 active torsions:
REMARK  status: ('A' for Active; 'I' for Inactive)
REMARK    1  A    between atoms: C_3  and  C_7
REMARK                            x       y       z     vdW  Elec       q    Type
REMARK                         _______ _______ _______ _____ _____    ______ ____
ROOT
ATOM      1  C   UNL A   1     -24.692  -5.001  28.986  0.00  0.00    +0.000 A 
ATOM      2  C   UNL A   1     -24.049  -4.004  28.752  0.00  0.00    +0.000 A 
ATOM      3  C   UNL A   1     -24.492  -2.714  29.043  0.00  0.00    +0.000 A 
ATOM      4  C   UNL A   1     -25.818  -2.533  29.603  0.00  0.00    +0.000 A 
ATOM      5  C   UNL A   1     -26.532  -3.707  29.838  0.00  0.00    +0.000 A 
ATOM      6  C   UNL A   1     -26.039  -4.889  29.522  0.00  0.00    +0.000 A 
ENDROOT
BRANCH   3   7
ATOM      7  C   UNL A   1     -23.756  -1.442  28.791  0.00  0.00    +0.000 A 
ATOM      8  C   UNL A   1     -22.590  -1.145  29.316  0.00  0.00    +0.000 A 
ATOM      9  C   UNL A   1     -21.927   0.069  29.021  0.00  0.00    +0.000 A 
ATOM     10  C   UNL A   1     -22.342   0.789  27.866  0.00  0.00    +0.000 A 
ATOM     11  C   UNL A   1     -24.383  -0.462  27.912  0.00  0.00    +0.000 A 
ATOM     12  C   UNL A   1     -23.618   0.611  27.450  0.00  0.00    +0.000 A 
ENDBRANCH   3   7
TORSDOF 1
ENDMDL
ENDMDL
