REMARK  Name = No_319-gen_results/8p0m/2024-11-26-14-13-15/
REMARK  5 active torsions:
REMARK  status: ('A' for Active; 'I' for Inactive)
REMARK    1  A    between atoms: C_1  and  C_17
REMARK    2  A    between atoms: C_3  and  C_13
REMARK    3  A    between atoms: C_17  and  N_18
REMARK    4  A    between atoms: N_21  and  C_23
REMARK    5  A    between atoms: C_23  and  C_24
REMARK                            x       y       z     vdW  Elec       q    Type
REMARK                         _______ _______ _______ _____ _____    ______ ____
ROOT
ATOM      1  C   UNL A   1     -28.016  -0.814  28.878  0.00  0.00    +0.016 A 
ATOM      2  C   UNL A   1     -27.064  -0.119  28.608  0.00  0.00    +0.003 A 
ATOM      3  C   UNL A   1     -26.972   0.714  27.506  0.00  0.00    +0.071 A 
ATOM      4  C   UNL A   1     -28.105   0.774  26.642  0.00  0.00    +0.010 A 
ATOM      5  C   UNL A   1     -29.201   0.104  27.053  0.00  0.00    +0.075 A 
ATOM      6  C   UNL A   1     -29.210  -0.603  28.185  0.00  0.00    +0.088 A 
ATOM      7  C   UNL A   1     -30.370   0.226  26.160  0.00  0.00    +0.284 A 
ATOM      8  N   UNL A   1     -31.317  -0.457  26.381  0.00  0.00    -0.152 NA
ATOM      9  O   UNL A   1     -30.478   1.214  25.401  0.00  0.00    -0.265 OA
ATOM     10  C   UNL A   1     -31.398  -1.585  27.242  0.00  0.00    +0.371 A 
ATOM     11  N   UNL A   1     -30.329  -1.480  28.348  0.00  0.00    -0.191 NA
ATOM     12  O   UNL A   1     -32.213  -2.454  27.433  0.00  0.00    -0.242 OA
ENDROOT
BRANCH   3  13
ATOM     13  C   UNL A   1     -25.701   1.464  27.171  0.00  0.00    +0.419 C 
ATOM     14  F   UNL A   1     -24.724   0.721  27.233  0.00  0.00    -0.166 F 
ATOM     15  F   UNL A   1     -25.540   2.455  28.085  0.00  0.00    -0.166 F 
ATOM     16  F   UNL A   1     -25.773   2.082  25.967  0.00  0.00    -0.166 F 
ENDBRANCH   3  13
BRANCH   1  17
ATOM     17  C   UNL A   1     -28.047  -1.627  30.151  0.00  0.00    +0.123 C 
BRANCH  17  18
ATOM     18  N   UNL A   1     -27.190  -2.553  30.260  0.00  0.00    -0.257 N 
ATOM     19  C   UNL A   1     -25.858  -2.242  30.260  0.00  0.00    +0.117 C 
ATOM     20  C   UNL A   1     -27.609  -3.900  30.279  0.00  0.00    +0.324 C 
ATOM     21  N   UNL A   1     -28.825  -4.194  30.590  0.00  0.00    -0.184 NA
ATOM     22  O   UNL A   1     -26.690  -4.811  30.281  0.00  0.00    -0.251 OA
BRANCH  21  23
ATOM     23  C   UNL A   1     -29.427  -5.537  30.612  0.00  0.00    +0.143 C 
BRANCH  23  24
ATOM     24  C   UNL A   1     -30.773  -5.526  30.020  0.00  0.00    -0.001 A 
ATOM     25  C   UNL A   1     -31.852  -5.468  30.867  0.00  0.00    -0.003 A 
ATOM     26  C   UNL A   1     -33.113  -5.321  30.277  0.00  0.00    -0.000 A 
ATOM     27  C   UNL A   1     -33.240  -5.504  28.879  0.00  0.00    -0.000 A 
ATOM     28  C   UNL A   1     -32.143  -5.677  28.050  0.00  0.00    -0.000 A 
ATOM     29  C   UNL A   1     -30.849  -5.646  28.648  0.00  0.00    -0.003 A 
ENDBRANCH  23  24
ENDBRANCH  21  23
ENDBRANCH  17  18
ENDBRANCH   1  17
TORSDOF 5
