MODEL 3190
MODEL 1
REMARK VINA RESULT:    -7.625      0.000      0.000
REMARK INTER + INTRA:          -9.522
REMARK INTER:                  -8.962
REMARK INTRA:                  -0.560
REMARK UNBOUND:                -0.560
REMARK  Name = No_3190-gen_results/8p0m/2024-11-26-14-13-15/
REMARK  3 active torsions:
REMARK  status: ('A' for Active; 'I' for Inactive)
REMARK    1  A    between atoms: C_4  and  C_11
REMARK    2  A    between atoms: C_14  and  N_16
REMARK    3  A    between atoms: N_16  and  C_18
REMARK                            x       y       z     vdW  Elec       q    Type
REMARK                         _______ _______ _______ _____ _____    ______ ____
ROOT
ATOM      1  C   UNL A   1     -24.562  -2.543  28.931  0.00  0.00    +0.083 A 
ATOM      2  N   UNL A   1     -25.660  -2.457  29.435  0.00  0.00    -0.230 NA
ATOM      3  C   UNL A   1     -23.975  -3.800  28.606  0.00  0.00    +0.019 A 
ATOM      4  C   UNL A   1     -26.384  -3.557  29.842  0.00  0.00    +0.136 A 
ATOM      5  C   UNL A   1     -24.671  -4.953  28.887  0.00  0.00    +0.004 A 
ATOM      6  C   UNL A   1     -25.917  -4.857  29.497  0.00  0.00    +0.035 A 
ENDROOT
BRANCH   1  10
ATOM      7  C   UNL A   1     -25.646   0.294  25.921  0.00  0.00    +0.000 A 
ATOM      8  C   UNL A   1     -25.359  -0.530  26.759  0.00  0.00    +0.000 A 
ATOM      9  C   UNL A   1     -24.265  -0.349  27.599  0.00  0.00    +0.001 A 
ATOM     10  C   UNL A   1     -23.804  -1.290  28.659  0.00  0.00    +0.018 A 
ATOM     11  C   UNL A   1     -22.658  -1.095  29.506  0.00  0.00    +0.002 A 
ATOM     12  C   UNL A   1     -24.734   1.415  25.646  0.00  0.00    +0.000 A 
ATOM     13  C   UNL A   1     -23.677   1.704  26.474  0.00  0.00    +0.000 A 
ATOM     14  C   UNL A   1     -23.343   0.796  27.493  0.00  0.00    +0.000 A 
ATOM     15  C   UNL A   1     -22.027   0.187  29.309  0.00  0.00    +0.000 A 
ATOM     16  C   UNL A   1     -22.290   1.038  28.367  0.00  0.00    +0.000 A 
ENDBRANCH   1  10
BRANCH   4  17
ATOM     17  N   UNL A   1     -27.643  -3.495  30.429  0.00  0.00    -0.269 N 
ATOM     18  C   UNL A   1     -28.176  -2.364  31.000  0.00  0.00    +0.119 C 
BRANCH  17  19
ATOM     19  C   UNL A   1     -28.437  -4.630  30.408  0.00  0.00    +0.086 C 
ATOM     20  C   UNL A   1     -29.136  -4.907  31.617  0.00  0.00    +0.122 C 
ATOM     21  N   UNL A   1     -29.689  -6.068  31.820  0.00  0.00    -0.125 NA
ENDBRANCH  17  19
ENDBRANCH   4  17
TORSDOF 3
ENDMDL
ENDMDL
