REMARK  Name = No_3190-gen_results/8p0m/2024-11-26-14-13-15/
REMARK  3 active torsions:
REMARK  status: ('A' for Active; 'I' for Inactive)
REMARK    1  A    between atoms: C_4  and  C_11
REMARK    2  A    between atoms: C_14  and  N_16
REMARK    3  A    between atoms: N_16  and  C_18
REMARK                            x       y       z     vdW  Elec       q    Type
REMARK                         _______ _______ _______ _____ _____    ______ ____
ROOT
ATOM      1  C   UNL A   1     -24.582   1.562  27.959  0.00  0.00    +0.083 A 
ATOM      2  N   UNL A   1     -24.784   2.637  28.479  0.00  0.00    -0.230 NA
ATOM      3  C   UNL A   1     -24.393   1.424  26.553  0.00  0.00    +0.019 A 
ATOM      4  C   UNL A   1     -24.962   3.796  27.754  0.00  0.00    +0.136 A 
ATOM      5  C   UNL A   1     -24.456   2.546  25.760  0.00  0.00    +0.004 A 
ATOM      6  C   UNL A   1     -24.721   3.776  26.351  0.00  0.00    +0.035 A 
ENDROOT
BRANCH   1  10
ATOM      7  C   UNL A   1     -28.016  -0.814  28.878  0.00  0.00    +0.000 A 
ATOM      8  C   UNL A   1     -27.064  -0.119  28.608  0.00  0.00    +0.000 A 
ATOM      9  C   UNL A   1     -25.792  -0.430  29.076  0.00  0.00    +0.001 A 
ATOM     10  C   UNL A   1     -24.546   0.349  28.823  0.00  0.00    +0.018 A 
ATOM     11  C   UNL A   1     -23.241   0.022  29.332  0.00  0.00    +0.002 A 
ATOM     12  C   UNL A   1     -27.882  -1.899  29.863  0.00  0.00    +0.000 A 
ATOM     13  C   UNL A   1     -26.653  -2.314  30.314  0.00  0.00    +0.000 A 
ATOM     14  C   UNL A   1     -25.515  -1.561  29.979  0.00  0.00    +0.000 A 
ATOM     15  C   UNL A   1     -23.216  -1.228  30.050  0.00  0.00    +0.000 A 
ATOM     16  C   UNL A   1     -24.244  -1.937  30.399  0.00  0.00    +0.000 A 
ENDBRANCH   1  10
BRANCH   4  17
ATOM     17  N   UNL A   1     -25.201   5.044  28.317  0.00  0.00    -0.269 N 
ATOM     18  C   UNL A   1     -25.043   6.237  27.652  0.00  0.00    +0.119 C 
BRANCH  17  19
ATOM     19  C   UNL A   1     -25.666   5.101  29.621  0.00  0.00    +0.086 C 
ATOM     20  C   UNL A   1     -25.800   6.410  30.164  0.00  0.00    +0.122 C 
ATOM     21  N   UNL A   1     -25.961   6.592  31.443  0.00  0.00    -0.125 NA
ENDBRANCH  17  19
ENDBRANCH   4  17
TORSDOF 3
