MODEL 3191
MODEL 1
REMARK VINA RESULT:    -6.439      0.000      0.000
REMARK INTER + INTRA:          -8.733
REMARK INTER:                  -7.944
REMARK INTRA:                  -0.789
REMARK UNBOUND:                -0.789
REMARK  Name = No_3191-gen_results/8p0m/2024-11-26-14-13-15/
REMARK  4 active torsions:
REMARK  status: ('A' for Active; 'I' for Inactive)
REMARK    1  A    between atoms: C_3  and  C_4
REMARK    2  A    between atoms: C_4  and  C_8
REMARK    3  A    between atoms: C_9  and  C_10
REMARK    4  A    between atoms: C_15  and  C_16
REMARK                            x       y       z     vdW  Elec       q    Type
REMARK                         _______ _______ _______ _____ _____    ______ ____
ROOT
ATOM      1  C   UNL A   1      -9.356   0.386  37.051  0.00  0.00    -0.021 C 
ATOM      2  C   UNL A   1      -9.590   1.640  36.710  0.00  0.00    -0.004 C 
ENDROOT
BRANCH   2   3
ATOM      3  C   UNL A   1     -10.936   2.055  36.308  0.00  0.00    +0.006 A 
ATOM      4  C   UNL A   1     -11.884   2.235  37.203  0.00  0.00    +0.000 A 
ATOM      5  C   UNL A   1     -13.193   2.521  36.782  0.00  0.00    +0.000 A 
ATOM      6  C   UNL A   1     -13.494   2.415  35.441  0.00  0.00    +0.000 A 
ATOM      7  C   UNL A   1     -12.585   2.202  34.433  0.00  0.00    +0.007 A 
ATOM      8  C   UNL A   1     -11.233   1.966  34.903  0.00  0.00    +0.080 A 
BRANCH   8   9
ATOM      9  C   UNL A   1     -10.242   1.747  33.880  0.00  0.00    +0.388 C 
ATOM     10  O   UNL A   1      -9.910   0.803  33.460  0.00  0.00    -0.241 OA
ATOM     11  O   UNL A   1      -9.583   2.888  33.495  0.00  0.00    -0.241 OA
ENDBRANCH   8   9
ENDBRANCH   2   3
BRANCH   1  12
ATOM     12  C   UNL A   1     -10.314  -0.609  36.826  0.00  0.00    +0.052 C 
BRANCH  12  15
ATOM     13  C   UNL A   1     -11.877  -2.414  37.908  0.00  0.00    -0.004 A 
ATOM     14  C   UNL A   1     -12.285  -2.722  38.829  0.00  0.00    -0.000 A 
ATOM     15  C   UNL A   1     -10.904  -1.311  37.955  0.00  0.00    -0.018 A 
ATOM     16  C   UNL A   1     -11.916  -2.395  40.227  0.00  0.00    -0.000 A 
ATOM     17  C   UNL A   1     -10.994  -1.363  40.357  0.00  0.00    -0.000 A 
ATOM     18  C   UNL A   1     -10.424  -0.790  39.240  0.00  0.00    -0.004 A 
ENDBRANCH  12  15
ENDBRANCH   1  12
TORSDOF 4
ENDMDL
ENDMDL
