REMARK  Name = No_3191-gen_results/8p0m/2024-11-26-14-13-15/
REMARK  4 active torsions:
REMARK  status: ('A' for Active; 'I' for Inactive)
REMARK    1  A    between atoms: C_3  and  C_4
REMARK    2  A    between atoms: C_4  and  C_8
REMARK    3  A    between atoms: C_9  and  C_10
REMARK    4  A    between atoms: C_15  and  C_16
REMARK                            x       y       z     vdW  Elec       q    Type
REMARK                         _______ _______ _______ _____ _____    ______ ____
ROOT
ATOM      1  C   UNL A   1     -25.898   0.239  26.745  0.00  0.00    -0.021 C 
ATOM      2  C   UNL A   1     -25.632   1.498  27.038  0.00  0.00    -0.004 C 
ENDROOT
BRANCH   2   3
ATOM      3  C   UNL A   1     -24.892   1.830  28.258  0.00  0.00    +0.006 A 
ATOM      4  C   UNL A   1     -23.718   1.288  28.505  0.00  0.00    +0.000 A 
ATOM      5  C   UNL A   1     -23.083   1.534  29.733  0.00  0.00    +0.000 A 
ATOM      6  C   UNL A   1     -23.791   2.178  30.726  0.00  0.00    +0.000 A 
ATOM      7  C   UNL A   1     -25.030   2.752  30.579  0.00  0.00    +0.007 A 
ATOM      8  C   UNL A   1     -25.631   2.524  29.278  0.00  0.00    +0.080 A 
BRANCH   8   9
ATOM      9  C   UNL A   1     -26.929   3.116  29.074  0.00  0.00    +0.388 C 
ATOM     10  O   UNL A   1     -27.309   3.607  28.184  0.00  0.00    -0.241 OA
ATOM     11  O   UNL A   1     -27.711   3.137  30.202  0.00  0.00    -0.241 OA
ENDBRANCH   8   9
ENDBRANCH   2   3
BRANCH   1  12
ATOM     12  C   UNL A   1     -25.683  -0.777  27.683  0.00  0.00    +0.052 C 
BRANCH  12  15
ATOM     13  C   UNL A   1     -28.016  -0.814  28.878  0.00  0.00    -0.004 A 
ATOM     14  C   UNL A   1     -28.469  -0.785  29.829  0.00  0.00    -0.000 A 
ATOM     15  C   UNL A   1     -26.546  -0.876  28.850  0.00  0.00    -0.018 A 
ATOM     16  C   UNL A   1     -27.918  -1.003  31.188  0.00  0.00    -0.000 A 
ATOM     17  C   UNL A   1     -26.531  -1.079  31.246  0.00  0.00    -0.000 A 
ATOM     18  C   UNL A   1     -25.780  -1.046  30.090  0.00  0.00    -0.004 A 
ENDBRANCH  12  15
ENDBRANCH   1  12
TORSDOF 4
