MODEL 3192
MODEL 1
REMARK VINA RESULT:    -6.588      0.000      0.000
REMARK INTER + INTRA:          -7.323
REMARK INTER:                  -6.973
REMARK INTRA:                  -0.350
REMARK UNBOUND:                -0.350
REMARK  Name = No_3192-gen_results/8p0m/2024-11-26-14-13-15/
REMARK  1 active torsions:
REMARK  status: ('A' for Active; 'I' for Inactive)
REMARK    1  A    between atoms: C_3  and  C_4
REMARK                            x       y       z     vdW  Elec       q    Type
REMARK                         _______ _______ _______ _____ _____    ______ ____
ROOT
ATOM      1  C   UNL A   1     -24.438  -4.918  28.763  0.00  0.00    +0.000 A 
ATOM      2  C   UNL A   1     -23.982  -3.814  28.578  0.00  0.00    +0.000 A 
ATOM      3  C   UNL A   1     -24.514  -2.667  28.889  0.00  0.00    +0.000 A 
ATOM      4  C   UNL A   1     -25.726  -5.036  29.474  0.00  0.00    +0.000 A 
ATOM      5  C   UNL A   1     -26.393  -3.907  29.800  0.00  0.00    +0.000 A 
ATOM      6  C   UNL A   1     -25.790  -2.603  29.554  0.00  0.00    +0.000 A 
ENDROOT
BRANCH   3   7
ATOM      7  C   UNL A   1     -23.919  -1.329  28.649  0.00  0.00    +0.000 A 
ATOM      8  C   UNL A   1     -24.499  -0.302  27.893  0.00  0.00    +0.000 A 
ATOM      9  C   UNL A   1     -22.578  -1.090  29.152  0.00  0.00    +0.000 A 
ATOM     10  C   UNL A   1     -21.901   0.097  28.904  0.00  0.00    +0.000 A 
ATOM     11  C   UNL A   1     -23.805   0.546  27.378  0.00  0.00    +0.000 A 
ATOM     12  C   UNL A   1     -22.492   0.972  27.938  0.00  0.00    +0.000 A 
ENDBRANCH   3   7
TORSDOF 1
ENDMDL
ENDMDL
