MODEL 3193
MODEL 1
REMARK VINA RESULT:    -6.549      0.000      0.000
REMARK INTER + INTRA:          -6.549
REMARK INTER:                  -6.549
REMARK INTRA:                   0.000
REMARK UNBOUND:                 0.000
REMARK  Name = No_3193-gen_results/8p0m/2024-11-26-14-13-15/
REMARK  0 active torsions:
REMARK  status: ('A' for Active; 'I' for Inactive)
REMARK                            x       y       z     vdW  Elec       q    Type
REMARK                         _______ _______ _______ _____ _____    ______ ____
ROOT
ATOM      1  C   UNL A   1     -31.227  -9.779  29.689  0.00  0.00    +0.052 C 
ATOM      2  C   UNL A   1     -30.279 -10.346  30.181  0.00  0.00    -0.018 A 
ATOM      3  C   UNL A   1     -29.957 -10.175  31.523  0.00  0.00    -0.004 A 
ATOM      4  C   UNL A   1     -28.813 -10.807  32.241  0.00  0.00    +0.003 A 
ATOM      5  C   UNL A   1     -28.086 -11.792  31.510  0.00  0.00    +0.019 A 
ATOM      6  C   UNL A   1     -28.467 -11.993  30.169  0.00  0.00    +0.001 A 
ATOM      7  C   UNL A   1     -29.477 -11.353  29.561  0.00  0.00    -0.004 A 
ATOM      8  C   UNL A   1     -30.963  -9.183  28.355  0.00  0.00    -0.021 C 
ATOM      9  C   UNL A   1     -30.970 -10.100  27.374  0.00  0.00    -0.004 C 
ATOM     10  C   UNL A   1     -30.090 -11.232  27.200  0.00  0.00    -0.000 C 
ATOM     11  C   UNL A   1     -29.445 -11.661  28.114  0.00  0.00    -0.000 C 
ATOM     12  C   UNL A   1     -27.051 -12.485  32.242  0.00  0.00    +0.099 A 
ATOM     13  N   UNL A   1     -26.830 -12.234  33.553  0.00  0.00    -0.242 NA
ATOM     14  C   UNL A   1     -27.564 -11.330  34.260  0.00  0.00    +0.099 A 
ATOM     15  C   UNL A   1     -28.589 -10.593  33.658  0.00  0.00    +0.021 A 
ENDROOT
TORSDOF 0
ENDMDL
ENDMDL
