REMARK  Name = No_3193-gen_results/8p0m/2024-11-26-14-13-15/
REMARK  0 active torsions:
REMARK  status: ('A' for Active; 'I' for Inactive)
REMARK                            x       y       z     vdW  Elec       q    Type
REMARK                         _______ _______ _______ _____ _____    ______ ____
ROOT
ATOM      1  C   UNL A   1     -28.016  -0.814  28.878  0.00  0.00    +0.052 C 
ATOM      2  C   UNL A   1     -27.064  -0.119  28.608  0.00  0.00    -0.018 A 
ATOM      3  C   UNL A   1     -25.792  -0.430  29.076  0.00  0.00    -0.004 A 
ATOM      4  C   UNL A   1     -24.546   0.349  28.823  0.00  0.00    +0.003 A 
ATOM      5  C   UNL A   1     -24.659   1.420  27.888  0.00  0.00    +0.019 A 
ATOM      6  C   UNL A   1     -25.947   1.681  27.379  0.00  0.00    +0.001 A 
ATOM      7  C   UNL A   1     -27.044   0.974  27.687  0.00  0.00    -0.004 A 
ATOM      8  C   UNL A   1     -29.236  -0.061  29.267  0.00  0.00    -0.021 C 
ATOM      9  C   UNL A   1     -29.880   0.454  28.207  0.00  0.00    -0.004 C 
ATOM     10  C   UNL A   1     -29.404   1.435  27.261  0.00  0.00    -0.000 C 
ATOM     11  C   UNL A   1     -28.234   1.662  27.138  0.00  0.00    -0.000 C 
ATOM     12  C   UNL A   1     -23.429   2.102  27.557  0.00  0.00    +0.099 A 
ATOM     13  N   UNL A   1     -22.245   1.705  28.076  0.00  0.00    -0.242 NA
ATOM     14  C   UNL A   1     -22.135   0.647  28.927  0.00  0.00    +0.099 A 
ATOM     15  C   UNL A   1     -23.257  -0.087  29.326  0.00  0.00    +0.021 A 
ENDROOT
TORSDOF 0
