REMARK  Name = No_3194-gen_results/8p0m/2024-11-26-14-13-15/
REMARK  3 active torsions:
REMARK  status: ('A' for Active; 'I' for Inactive)
REMARK    1  A    between atoms: C_3  and  C_8
REMARK    2  A    between atoms: C_5  and  O_7
REMARK    3  A    between atoms: O_7  and  C_14
REMARK                            x       y       z     vdW  Elec       q    Type
REMARK                         _______ _______ _______ _____ _____    ______ ____
ROOT
ATOM      1  C   UNL A   1     -28.016  -0.814  28.878  0.00  0.00    +0.037 A 
ATOM      2  C   UNL A   1     -27.064  -0.119  28.608  0.00  0.00    +0.003 A 
ATOM      3  C   UNL A   1     -26.876   1.133  28.913  0.00  0.00    +0.000 A 
ATOM      4  C   UNL A   1     -27.901   1.807  29.644  0.00  0.00    +0.003 A 
ATOM      5  C   UNL A   1     -29.046  -0.232  29.718  0.00  0.00    +0.145 A 
ATOM      6  C   UNL A   1     -28.940   1.052  30.060  0.00  0.00    +0.037 A 
ENDROOT
BRANCH   3   7
ATOM      7  C   UNL A   1     -25.668   1.936  28.448  0.00  0.00    +0.000 A 
ATOM      8  C   UNL A   1     -24.935   1.716  27.680  0.00  0.00    +0.000 A 
ATOM      9  C   UNL A   1     -23.712   2.480  27.323  0.00  0.00    +0.000 A 
ATOM     10  C   UNL A   1     -25.469   3.243  29.204  0.00  0.00    +0.000 A 
ATOM     11  C   UNL A   1     -24.503   4.175  28.720  0.00  0.00    +0.000 A 
ATOM     12  C   UNL A   1     -23.578   3.711  27.804  0.00  0.00    +0.000 A 
ENDBRANCH   3   7
BRANCH   5  13
ATOM     13  O   UNL A   1     -30.059  -1.063  30.095  0.00  0.00    -0.451 OA
BRANCH  13  14
ATOM     14  C   UNL A   1     -29.860  -2.140  30.852  0.00  0.00    +0.175 C 
ATOM     15  C   UNL A   1     -30.872  -2.551  31.666  0.00  0.00    +0.015 C 
ATOM     16  C   UNL A   1     -30.689  -3.738  32.428  0.00  0.00    +0.034 C 
ENDBRANCH  13  14
ENDBRANCH   5  13
TORSDOF 3
