MODEL 3194
MODEL 1
REMARK VINA RESULT:    -5.992      0.000      0.000
REMARK INTER + INTRA:          -7.580
REMARK INTER:                  -7.043
REMARK INTRA:                  -0.537
REMARK UNBOUND:                -0.537
REMARK  Name = No_3194-gen_results/8p0m/2024-11-26-14-13-15/
REMARK  3 active torsions:
REMARK  status: ('A' for Active; 'I' for Inactive)
REMARK    1  A    between atoms: C_3  and  C_8
REMARK    2  A    between atoms: C_5  and  O_7
REMARK    3  A    between atoms: O_7  and  C_14
REMARK                            x       y       z     vdW  Elec       q    Type
REMARK                         _______ _______ _______ _____ _____    ______ ____
ROOT
ATOM      1  C   UNL A   1     -26.267  -2.437  29.907  0.00  0.00    +0.037 A 
ATOM      2  C   UNL A   1     -25.424  -1.654  29.533  0.00  0.00    +0.003 A 
ATOM      3  C   UNL A   1     -24.258  -1.920  29.018  0.00  0.00    +0.000 A 
ATOM      4  C   UNL A   1     -23.887  -3.291  28.869  0.00  0.00    +0.003 A 
ATOM      5  C   UNL A   1     -26.010  -3.847  29.682  0.00  0.00    +0.145 A 
ATOM      6  C   UNL A   1     -24.831  -4.207  29.175  0.00  0.00    +0.037 A 
ENDROOT
BRANCH   3   7
ATOM      7  C   UNL A   1     -23.238  -0.849  28.656  0.00  0.00    +0.000 A 
ATOM      8  C   UNL A   1     -22.173  -0.800  28.858  0.00  0.00    +0.000 A 
ATOM      9  C   UNL A   1     -21.229   0.312  28.574  0.00  0.00    +0.000 A 
ATOM     10  C   UNL A   1     -23.830   0.338  27.908  0.00  0.00    +0.000 A 
ATOM     11  C   UNL A   1     -22.943   1.299  27.335  0.00  0.00    +0.000 A 
ATOM     12  C   UNL A   1     -21.630   1.285  27.765  0.00  0.00    +0.000 A 
ENDBRANCH   3   7
BRANCH   5  13
ATOM     13  O   UNL A   1     -27.015  -4.705  30.015  0.00  0.00    -0.451 OA
BRANCH  13  14
ATOM     14  C   UNL A   1     -28.201  -4.286  30.452  0.00  0.00    +0.175 C 
ATOM     15  C   UNL A   1     -29.085  -5.217  30.909  0.00  0.00    +0.015 C 
ATOM     16  C   UNL A   1     -30.327  -4.770  31.437  0.00  0.00    +0.034 C 
ENDBRANCH  13  14
ENDBRANCH   5  13
TORSDOF 3
ENDMDL
ENDMDL
