MODEL 3195
MODEL 1
REMARK VINA RESULT:    -6.806      0.000      0.000
REMARK INTER + INTRA:          -7.361
REMARK INTER:                  -7.204
REMARK INTRA:                  -0.157
REMARK UNBOUND:                -0.157
REMARK  Name = No_3195-gen_results/8p0m/2024-11-26-14-13-15/
REMARK  1 active torsions:
REMARK  status: ('A' for Active; 'I' for Inactive)
REMARK    1  A    between atoms: C_3  and  C_8
REMARK                            x       y       z     vdW  Elec       q    Type
REMARK                         _______ _______ _______ _____ _____    ______ ____
ROOT
ATOM      1  O   UNL A   1     -25.334  -0.295  27.137  0.00  0.00    -0.273 OA
ATOM      2  C   UNL A   1     -24.367  -0.405  27.754  0.00  0.00    +0.247 C 
ATOM      3  C   UNL A   1     -23.873  -1.088  28.437  0.00  0.00    +0.101 C 
ATOM      4  N   UNL A   1     -23.400   0.760  27.427  0.00  0.00    -0.172 NA
ATOM      5  C   UNL A   1     -22.617  -1.167  29.196  0.00  0.00    +0.018 C 
ATOM      6  C   UNL A   1     -22.186   0.894  28.043  0.00  0.00    +0.256 C 
ATOM      7  C   UNL A   1     -21.752  -0.078  28.932  0.00  0.00    +0.059 C 
ATOM      8  F   UNL A   1     -21.413   1.887  27.752  0.00  0.00    -0.213 F 
ENDROOT
BRANCH   3   9
ATOM      9  C   UNL A   1     -24.709  -2.428  28.806  0.00  0.00    -0.014 A 
ATOM     10  C   UNL A   1     -25.729  -2.388  29.451  0.00  0.00    -0.004 A 
ATOM     11  C   UNL A   1     -24.011  -3.615  28.464  0.00  0.00    -0.004 A 
ATOM     12  C   UNL A   1     -24.552  -4.836  28.918  0.00  0.00    -0.000 A 
ATOM     13  C   UNL A   1     -26.446  -3.639  29.842  0.00  0.00    -0.000 A 
ATOM     14  C   UNL A   1     -25.811  -4.834  29.533  0.00  0.00    -0.000 A 
ENDBRANCH   3   9
TORSDOF 1
ENDMDL
ENDMDL
