REMARK  Name = No_3195-gen_results/8p0m/2024-11-26-14-13-15/
REMARK  1 active torsions:
REMARK  status: ('A' for Active; 'I' for Inactive)
REMARK    1  A    between atoms: C_3  and  C_8
REMARK                            x       y       z     vdW  Elec       q    Type
REMARK                         _______ _______ _______ _____ _____    ______ ____
ROOT
ATOM      1  O   UNL A   1     -28.123  -1.335  28.487  0.00  0.00    -0.273 OA
ATOM      2  C   UNL A   1     -27.481  -0.404  28.709  0.00  0.00    +0.247 C 
ATOM      3  C   UNL A   1     -27.190   0.246  29.527  0.00  0.00    +0.101 C 
ATOM      4  N   UNL A   1     -26.687  -0.000  27.442  0.00  0.00    -0.172 NA
ATOM      5  C   UNL A   1     -26.350   1.433  29.742  0.00  0.00    +0.018 C 
ATOM      6  C   UNL A   1     -25.865   1.094  27.415  0.00  0.00    +0.256 C 
ATOM      7  C   UNL A   1     -25.659   1.831  28.572  0.00  0.00    +0.059 C 
ATOM      8  F   UNL A   1     -25.229   1.405  26.335  0.00  0.00    -0.213 F 
ENDROOT
BRANCH   3   9
ATOM      9  C   UNL A   1     -27.853  -0.105  30.965  0.00  0.00    -0.014 A 
ATOM     10  C   UNL A   1     -27.182  -0.408  31.921  0.00  0.00    -0.004 A 
ATOM     11  C   UNL A   1     -29.267  -0.203  30.901  0.00  0.00    -0.004 A 
ATOM     12  C   UNL A   1     -29.932  -0.698  32.042  0.00  0.00    -0.000 A 
ATOM     13  C   UNL A   1     -27.815  -0.798  33.217  0.00  0.00    -0.000 A 
ATOM     14  C   UNL A   1     -29.198  -0.910  33.217  0.00  0.00    -0.000 A 
ENDBRANCH   3   9
TORSDOF 1
