REMARK  Name = No_3196-gen_results/8p0m/2024-11-26-14-13-15/
REMARK  4 active torsions:
REMARK  status: ('A' for Active; 'I' for Inactive)
REMARK    1  A    between atoms: C_1  and  C_2
REMARK    2  A    between atoms: C_1  and  C_10
REMARK    3  A    between atoms: N_3  and  C_4
REMARK    4  A    between atoms: N_11  and  C_17
REMARK                            x       y       z     vdW  Elec       q    Type
REMARK                         _______ _______ _______ _____ _____    ______ ____
ROOT
ATOM      1  C   UNL A   1     -28.487  -0.611  30.227  0.00  0.00    +0.093 C 
ATOM      2  N   UNL A   1     -29.591  -1.095  30.647  0.00  0.00    -0.217 NA
ATOM      3  C   UNL A   1     -29.952  -1.387  31.794  0.00  0.00    +0.082 C 
ATOM      4  C   UNL A   1     -29.189  -0.863  32.876  0.00  0.00    +0.044 C 
ATOM      5  C   UNL A   1     -27.897  -0.360  32.540  0.00  0.00    -0.024 A 
ATOM      6  C   UNL A   1     -27.520  -0.302  31.265  0.00  0.00    -0.011 A 
ATOM      7  C   UNL A   1     -26.984   0.142  33.610  0.00  0.00    -0.004 A 
ATOM      8  C   UNL A   1     -25.748   0.390  33.278  0.00  0.00    -0.000 A 
ATOM      9  C   UNL A   1     -25.433   0.665  31.874  0.00  0.00    -0.000 A 
ATOM     10  C   UNL A   1     -26.300   0.319  30.993  0.00  0.00    -0.003 A 
ENDROOT
BRANCH   2  11
ATOM     11  C   UNL A   1     -30.625  -1.506  29.573  0.00  0.00    +0.375 C 
ATOM     12  F   UNL A   1     -31.860  -1.049  30.146  0.00  0.00    -0.181 F 
ATOM     13  O   UNL A   1     -30.656  -2.882  29.420  0.00  0.00    -0.165 OA
ENDBRANCH   2  11
BRANCH   1  14
ATOM     14  C   UNL A   1     -28.016  -0.814  28.878  0.00  0.00    +0.106 C 
BRANCH  14  15
ATOM     15  C   UNL A   1     -27.064  -0.119  28.608  0.00  0.00    +0.231 C 
ATOM     16  N   UNL A   1     -25.818  -0.343  29.049  0.00  0.00    -0.257 N 
ATOM     17  C   UNL A   1     -25.590  -1.575  29.803  0.00  0.00    +0.120 C 
ATOM     18  O   UNL A   1     -27.122   0.882  27.742  0.00  0.00    -0.275 OA
BRANCH  16  19
ATOM     19  C   UNL A   1     -24.676   0.381  28.750  0.00  0.00    +0.054 A 
ATOM     20  C   UNL A   1     -23.428   0.009  29.260  0.00  0.00    +0.015 A 
ATOM     21  C   UNL A   1     -22.234   0.675  28.966  0.00  0.00    +0.001 A 
ATOM     22  C   UNL A   1     -22.207   1.647  27.967  0.00  0.00    +0.000 A 
ATOM     23  C   UNL A   1     -23.433   2.044  27.422  0.00  0.00    +0.001 A 
ATOM     24  C   UNL A   1     -24.647   1.367  27.739  0.00  0.00    +0.015 A 
ENDBRANCH  16  19
ENDBRANCH  14  15
ENDBRANCH   1  14
TORSDOF 4
