MODEL 3196
MODEL 1
REMARK VINA RESULT:    -6.511      0.000      0.000
REMARK INTER + INTRA:          -8.547
REMARK INTER:                  -8.033
REMARK INTRA:                  -0.514
REMARK UNBOUND:                -0.514
REMARK  Name = No_3196-gen_results/8p0m/2024-11-26-14-13-15/
REMARK  4 active torsions:
REMARK  status: ('A' for Active; 'I' for Inactive)
REMARK    1  A    between atoms: C_1  and  C_2
REMARK    2  A    between atoms: C_1  and  C_10
REMARK    3  A    between atoms: N_3  and  C_4
REMARK    4  A    between atoms: N_11  and  C_17
REMARK                            x       y       z     vdW  Elec       q    Type
REMARK                         _______ _______ _______ _____ _____    ______ ____
ROOT
ATOM      1  C   UNL A   1     -29.251  -9.392   8.814  0.00  0.00    +0.093 C 
ATOM      2  N   UNL A   1     -28.266  -8.857   8.203  0.00  0.00    -0.217 NA
ATOM      3  C   UNL A   1     -27.980  -7.665   8.036  0.00  0.00    +0.082 C 
ATOM      4  C   UNL A   1     -28.638  -6.710   8.863  0.00  0.00    +0.044 C 
ATOM      5  C   UNL A   1     -29.804  -7.172   9.541  0.00  0.00    -0.024 A 
ATOM      6  C   UNL A   1     -30.150  -8.455   9.464  0.00  0.00    -0.011 A 
ATOM      7  C   UNL A   1     -30.613  -6.231  10.372  0.00  0.00    -0.004 A 
ATOM      8  C   UNL A   1     -31.774  -6.648  10.794  0.00  0.00    -0.000 A 
ATOM      9  C   UNL A   1     -32.016  -8.089  10.894  0.00  0.00    -0.000 A 
ATOM     10  C   UNL A   1     -31.224  -8.870  10.253  0.00  0.00    -0.003 A 
ENDROOT
BRANCH   2  11
ATOM     11  C   UNL A   1     -27.321  -9.811   7.437  0.00  0.00    +0.375 C 
ATOM     12  F   UNL A   1     -26.342 -10.140   8.435  0.00  0.00    -0.181 F 
ATOM     13  O   UNL A   1     -26.714  -9.157   6.377  0.00  0.00    -0.165 OA
ENDBRANCH   2  11
BRANCH   1  14
ATOM     14  C   UNL A   1     -29.739 -10.711   8.490  0.00  0.00    +0.106 C 
BRANCH  14  15
ATOM     15  C   UNL A   1     -29.578 -11.501   9.391  0.00  0.00    +0.231 C 
ATOM     16  N   UNL A   1     -30.495 -12.398   9.781  0.00  0.00    -0.257 N 
ATOM     17  C   UNL A   1     -31.714 -12.495   8.979  0.00  0.00    +0.120 C 
ATOM     18  O   UNL A   1     -28.422 -11.652  10.022  0.00  0.00    -0.275 OA
BRANCH  16  19
ATOM     19  C   UNL A   1     -30.367 -13.357  10.771  0.00  0.00    +0.054 A 
ATOM     20  C   UNL A   1     -29.997 -14.671  10.464  0.00  0.00    +0.015 A 
ATOM     21  C   UNL A   1     -29.814 -15.675  11.420  0.00  0.00    +0.001 A 
ATOM     22  C   UNL A   1     -29.802 -15.351  12.776  0.00  0.00    +0.000 A 
ATOM     23  C   UNL A   1     -30.158 -14.044  13.129  0.00  0.00    +0.001 A 
ATOM     24  C   UNL A   1     -30.355 -13.031  12.145  0.00  0.00    +0.015 A 
ENDBRANCH  16  19
ENDBRANCH  14  15
ENDBRANCH   1  14
TORSDOF 4
ENDMDL
ENDMDL
