MODEL 3197
MODEL 1
REMARK VINA RESULT:    -6.424      0.000      0.000
REMARK INTER + INTRA:          -8.927
REMARK INTER:                  -8.302
REMARK INTRA:                  -0.625
REMARK UNBOUND:                -0.625
REMARK  Name = No_3197-gen_results/8p0m/2024-11-26-14-13-15/
REMARK  5 active torsions:
REMARK  status: ('A' for Active; 'I' for Inactive)
REMARK    1  A    between atoms: C_1  and  C_2
REMARK    2  A    between atoms: C_1  and  N_14
REMARK    3  A    between atoms: C_4  and  C_5
REMARK    4  A    between atoms: N_14  and  C_15
REMARK    5  A    between atoms: C_15  and  C_16
REMARK                            x       y       z     vdW  Elec       q    Type
REMARK                         _______ _______ _______ _____ _____    ______ ____
ROOT
ATOM      1  C   UNL A   1     -24.850   1.168  29.557  0.00  0.00    +0.076 A 
ATOM      2  N   UNL A   1     -25.050  -0.127  29.274  0.00  0.00    -0.248 NA
ATOM      3  C   UNL A   1     -24.648  -1.223  30.019  0.00  0.00    +0.081 A 
ATOM      4  C   UNL A   1     -24.042   1.414  30.749  0.00  0.00    +0.016 A 
ATOM      5  C   UNL A   1     -23.511   0.379  31.577  0.00  0.00    +0.003 A 
ATOM      6  C   UNL A   1     -23.805  -1.065  31.187  0.00  0.00    +0.019 A 
ENDROOT
BRANCH   3   7
ATOM      7  C   UNL A   1     -24.830  -2.614  29.601  0.00  0.00    +0.018 A 
ATOM      8  C   UNL A   1     -23.853  -3.283  28.935  0.00  0.00    +0.002 A 
ATOM      9  C   UNL A   1     -26.059  -3.266  29.908  0.00  0.00    +0.002 A 
ATOM     10  C   UNL A   1     -26.101  -4.676  29.643  0.00  0.00    +0.000 A 
ATOM     11  C   UNL A   1     -24.046  -4.673  28.577  0.00  0.00    +0.000 A 
ATOM     12  C   UNL A   1     -25.181  -5.295  28.955  0.00  0.00    +0.000 A 
ENDBRANCH   3   7
BRANCH   1  13
ATOM     13  C   UNL A   1     -25.196   2.081  28.843  0.00  0.00    +0.135 C 
BRANCH  13  14
ATOM     14  N   UNL A   1     -24.141   2.629  28.071  0.00  0.00    -0.207 NA
BRANCH  14  15
ATOM     15  C   UNL A   1     -24.067   2.749  26.728  0.00  0.00    +0.115 C 
BRANCH  15  16
ATOM     16  C   UNL A   1     -24.695   1.959  25.987  0.00  0.00    -0.012 C 
ATOM     17  C   UNL A   1     -24.504   0.855  25.502  0.00  0.00    -0.029 C 
ATOM     18  C   UNL A   1     -25.331   0.019  24.716  0.00  0.00    +0.030 C 
ENDBRANCH  15  16
ENDBRANCH  14  15
ENDBRANCH  13  14
ENDBRANCH   1  13
TORSDOF 5
ENDMDL
ENDMDL
