REMARK  Name = No_3197-gen_results/8p0m/2024-11-26-14-13-15/
REMARK  5 active torsions:
REMARK  status: ('A' for Active; 'I' for Inactive)
REMARK    1  A    between atoms: C_1  and  C_2
REMARK    2  A    between atoms: C_1  and  N_14
REMARK    3  A    between atoms: C_4  and  C_5
REMARK    4  A    between atoms: N_14  and  C_15
REMARK    5  A    between atoms: C_15  and  C_16
REMARK                            x       y       z     vdW  Elec       q    Type
REMARK                         _______ _______ _______ _____ _____    ______ ____
ROOT
ATOM      1  C   UNL A   1     -27.064  -0.119  28.608  0.00  0.00    +0.076 A 
ATOM      2  N   UNL A   1     -25.818  -0.343  29.049  0.00  0.00    -0.248 NA
ATOM      3  C   UNL A   1     -24.676   0.381  28.750  0.00  0.00    +0.081 A 
ATOM      4  C   UNL A   1     -27.181   0.968  27.639  0.00  0.00    +0.016 A 
ATOM      5  C   UNL A   1     -26.079   1.760  27.195  0.00  0.00    +0.003 A 
ATOM      6  C   UNL A   1     -24.701   1.443  27.765  0.00  0.00    +0.019 A 
ENDROOT
BRANCH   3   7
ATOM      7  C   UNL A   1     -23.332   0.023  29.205  0.00  0.00    +0.018 A 
ATOM      8  C   UNL A   1     -23.141  -0.913  30.171  0.00  0.00    +0.002 A 
ATOM      9  C   UNL A   1     -22.212   0.675  28.612  0.00  0.00    +0.002 A 
ATOM     10  C   UNL A   1     -20.924   0.146  28.962  0.00  0.00    +0.000 A 
ATOM     11  C   UNL A   1     -21.796  -1.279  30.565  0.00  0.00    +0.000 A 
ATOM     12  C   UNL A   1     -20.751  -0.713  29.929  0.00  0.00    +0.000 A 
ENDBRANCH   3   7
BRANCH   1  13
ATOM     13  C   UNL A   1     -28.016  -0.814  28.878  0.00  0.00    +0.135 C 
BRANCH  13  14
ATOM     14  N   UNL A   1     -27.860  -1.549  30.080  0.00  0.00    -0.207 NA
BRANCH  14  15
ATOM     15  C   UNL A   1     -28.730  -1.661  31.107  0.00  0.00    +0.115 C 
BRANCH  15  16
ATOM     16  C   UNL A   1     -29.944  -1.877  30.887  0.00  0.00    -0.012 C 
ATOM     17  C   UNL A   1     -30.911  -1.224  30.528  0.00  0.00    -0.029 C 
ATOM     18  C   UNL A   1     -32.245  -1.599  30.248  0.00  0.00    +0.030 C 
ENDBRANCH  15  16
ENDBRANCH  14  15
ENDBRANCH  13  14
ENDBRANCH   1  13
TORSDOF 5
