MODEL 3198
MODEL 1
REMARK VINA RESULT:    -7.446      0.000      0.000
REMARK INTER + INTRA:          -8.187
REMARK INTER:                  -7.882
REMARK INTRA:                  -0.306
REMARK UNBOUND:                -0.306
REMARK  Name = No_3198-gen_results/8p0m/2024-11-26-14-13-15/
REMARK  1 active torsions:
REMARK  status: ('A' for Active; 'I' for Inactive)
REMARK    1  A    between atoms: C_7  and  C_18
REMARK                            x       y       z     vdW  Elec       q    Type
REMARK                         _______ _______ _______ _____ _____    ______ ____
ROOT
ATOM      1  C   UNL A   1      -5.136  -0.044  10.902  0.00  0.00    +0.003 A 
ATOM      2  C   UNL A   1      -6.268   0.328  10.698  0.00  0.00    +0.039 A 
ATOM      3  C   UNL A   1      -6.672   0.939   9.526  0.00  0.00    +0.003 A 
ATOM      4  C   UNL A   1      -7.996   1.472   9.263  0.00  0.00    +0.000 A 
ATOM      5  C   UNL A   1      -8.403   2.031   8.068  0.00  0.00    +0.000 A 
ATOM      6  C   UNL A   1      -4.677  -0.915  10.433  0.00  0.00    +0.004 A 
ATOM      7  C   UNL A   1      -4.883  -0.864   8.912  0.00  0.00    +0.071 A 
ATOM      8  C   UNL A   1      -6.079   0.124   8.364  0.00  0.00    +0.004 A 
ATOM      9  C   UNL A   1      -9.678   2.691   7.988  0.00  0.00    +0.000 A 
ATOM     10  C   UNL A   1     -10.408   2.950   9.178  0.00  0.00    +0.000 A 
ATOM     11  C   UNL A   1      -9.950   2.465  10.401  0.00  0.00    +0.000 A 
ATOM     12  C   UNL A   1      -8.749   1.754  10.481  0.00  0.00    +0.003 A 
ATOM     13  C   UNL A   1     -10.781   2.643  11.593  0.00  0.00    +0.000 A 
ATOM     14  C   UNL A   1     -10.305   2.373  12.872  0.00  0.00    +0.000 A 
ATOM     15  C   UNL A   1      -8.982   1.809  12.941  0.00  0.00    +0.003 A 
ATOM     16  C   UNL A   1      -8.293   1.478  11.807  0.00  0.00    +0.039 A 
ATOM     17  C   UNL A   1      -7.120   0.922  11.878  0.00  0.00    +0.196 C 
ATOM     18  O   UNL A   1      -6.510   0.871  13.060  0.00  0.00    -0.287 OA
ENDROOT
BRANCH   7  19
ATOM     19  C   UNL A   1      -4.175  -1.575   7.840  0.00  0.00    +0.419 C 
ATOM     20  F   UNL A   1      -3.322  -2.291   7.879  0.00  0.00    -0.166 F 
ATOM     21  F   UNL A   1      -3.846  -0.449   7.017  0.00  0.00    -0.166 F 
ATOM     22  F   UNL A   1      -5.256  -2.210   7.135  0.00  0.00    -0.166 F 
ENDBRANCH   7  19
TORSDOF 1
ENDMDL
ENDMDL
