REMARK  Name = No_3198-gen_results/8p0m/2024-11-26-14-13-15/
REMARK  1 active torsions:
REMARK  status: ('A' for Active; 'I' for Inactive)
REMARK    1  A    between atoms: C_7  and  C_18
REMARK                            x       y       z     vdW  Elec       q    Type
REMARK                         _______ _______ _______ _____ _____    ______ ____
ROOT
ATOM      1  C   UNL A   1     -28.016  -0.814  28.878  0.00  0.00    +0.003 A 
ATOM      2  C   UNL A   1     -27.064  -0.119  28.608  0.00  0.00    +0.039 A 
ATOM      3  C   UNL A   1     -27.001   0.691  27.491  0.00  0.00    +0.003 A 
ATOM      4  C   UNL A   1     -25.855   1.482  27.083  0.00  0.00    +0.000 A 
ATOM      5  C   UNL A   1     -25.823   2.330  25.994  0.00  0.00    +0.000 A 
ATOM      6  C   UNL A   1     -28.972  -0.438  29.247  0.00  0.00    +0.004 A 
ATOM      7  C   UNL A   1     -29.469   0.706  28.352  0.00  0.00    +0.071 A 
ATOM      8  C   UNL A   1     -28.345   1.435  27.396  0.00  0.00    +0.004 A 
ATOM      9  C   UNL A   1     -24.576   2.916  25.584  0.00  0.00    +0.000 A 
ATOM     10  C   UNL A   1     -23.363   2.456  26.160  0.00  0.00    +0.000 A 
ATOM     11  C   UNL A   1     -23.388   1.528  27.199  0.00  0.00    +0.000 A 
ATOM     12  C   UNL A   1     -24.601   1.008  27.660  0.00  0.00    +0.003 A 
ATOM     13  C   UNL A   1     -22.133   1.160  27.855  0.00  0.00    +0.000 A 
ATOM     14  C   UNL A   1     -22.050   0.099  28.751  0.00  0.00    +0.000 A 
ATOM     15  C   UNL A   1     -23.297  -0.547  29.071  0.00  0.00    +0.003 A 
ATOM     16  C   UNL A   1     -24.486  -0.071  28.591  0.00  0.00    +0.039 A 
ATOM     17  C   UNL A   1     -25.611  -0.628  28.926  0.00  0.00    +0.196 C 
ATOM     18  O   UNL A   1     -25.578  -1.792  29.572  0.00  0.00    -0.287 OA
ENDROOT
BRANCH   7  19
ATOM     19  C   UNL A   1     -30.814   1.276  28.210  0.00  0.00    +0.419 C 
ATOM     20  F   UNL A   1     -31.149   2.270  27.833  0.00  0.00    -0.166 F 
ATOM     21  F   UNL A   1     -31.279   1.066  29.549  0.00  0.00    -0.166 F 
ATOM     22  F   UNL A   1     -31.493   0.261  27.450  0.00  0.00    -0.166 F 
ENDBRANCH   7  19
TORSDOF 1
