REMARK  Name = No_3199-gen_results/8p0m/2024-11-26-14-13-15/
REMARK  2 active torsions:
REMARK  status: ('A' for Active; 'I' for Inactive)
REMARK    1  A    between atoms: C_3  and  C_11
REMARK    2  A    between atoms: C_5  and  C_7
REMARK                            x       y       z     vdW  Elec       q    Type
REMARK                         _______ _______ _______ _____ _____    ______ ____
ROOT
ATOM      1  C   UNL A   1     -28.016  -0.814  28.878  0.00  0.00    +0.007 A 
ATOM      2  C   UNL A   1     -27.064  -0.119  28.608  0.00  0.00    +0.035 A 
ATOM      3  C   UNL A   1     -26.972   0.714  27.506  0.00  0.00    +0.006 A 
ATOM      4  C   UNL A   1     -28.105   0.774  26.642  0.00  0.00    +0.007 A 
ATOM      5  C   UNL A   1     -29.201   0.104  27.053  0.00  0.00    +0.080 A 
ATOM      6  C   UNL A   1     -29.210  -0.603  28.185  0.00  0.00    +0.007 A 
ATOM      7 BR   UNL A   1     -25.376  -0.242  29.648  0.00  0.00    -0.049 Br
ENDROOT
BRANCH   3   8
ATOM      8  C   UNL A   1     -25.639   1.407  27.123  0.00  0.00    +0.001 A 
ATOM      9  C   UNL A   1     -25.631   2.650  27.128  0.00  0.00    +0.000 A 
ATOM     10  C   UNL A   1     -24.395   3.393  26.785  0.00  0.00    +0.000 A 
ATOM     11  C   UNL A   1     -23.263   2.692  26.408  0.00  0.00    +0.000 A 
ATOM     12  C   UNL A   1     -23.302   1.294  26.545  0.00  0.00    +0.000 A 
ATOM     13  C   UNL A   1     -24.491   0.652  26.854  0.00  0.00    +0.000 A 
ENDBRANCH   3   8
BRANCH   5  14
ATOM     14  C   UNL A   1     -30.375   0.223  26.167  0.00  0.00    +0.388 C 
ATOM     15  O   UNL A   1     -30.960   1.236  26.130  0.00  0.00    -0.241 OA
ATOM     16  O   UNL A   1     -30.511  -0.763  25.224  0.00  0.00    -0.241 OA
ENDBRANCH   5  14
TORSDOF 2
