MODEL 3199
MODEL 1
REMARK VINA RESULT:    -6.540      0.000      0.000
REMARK INTER + INTRA:          -7.693
REMARK INTER:                  -7.305
REMARK INTRA:                  -0.388
REMARK UNBOUND:                -0.388
REMARK  Name = No_3199-gen_results/8p0m/2024-11-26-14-13-15/
REMARK  2 active torsions:
REMARK  status: ('A' for Active; 'I' for Inactive)
REMARK    1  A    between atoms: C_3  and  C_11
REMARK    2  A    between atoms: C_5  and  C_7
REMARK                            x       y       z     vdW  Elec       q    Type
REMARK                         _______ _______ _______ _____ _____    ______ ____
ROOT
ATOM      1  C   UNL A   1     -26.444  -1.654  30.221  0.00  0.00    +0.007 A 
ATOM      2  C   UNL A   1     -25.926  -0.851  29.481  0.00  0.00    +0.035 A 
ATOM      3  C   UNL A   1     -24.908  -1.133  28.585  0.00  0.00    +0.006 A 
ATOM      4  C   UNL A   1     -24.461  -2.485  28.516  0.00  0.00    +0.007 A 
ATOM      5  C   UNL A   1     -25.160  -3.379  29.245  0.00  0.00    +0.080 A 
ATOM      6  C   UNL A   1     -26.187  -3.011  30.013  0.00  0.00    +0.007 A 
ATOM      7 BR   UNL A   1     -26.356   1.084  29.603  0.00  0.00    -0.049 Br
ENDROOT
BRANCH   3   8
ATOM      8  C   UNL A   1     -24.161  -0.006  27.827  0.00  0.00    +0.001 A 
ATOM      9  C   UNL A   1     -23.085   0.382  28.316  0.00  0.00    +0.000 A 
ATOM     10  C   UNL A   1     -22.301   1.448  27.649  0.00  0.00    +0.000 A 
ATOM     11  C   UNL A   1     -22.800   2.046  26.505  0.00  0.00    +0.000 A 
ATOM     12  C   UNL A   1     -23.953   1.477  25.938  0.00  0.00    +0.000 A 
ATOM     13  C   UNL A   1     -24.655   0.492  26.615  0.00  0.00    +0.000 A 
ENDBRANCH   3   8
BRANCH   5  14
ATOM     14  C   UNL A   1     -24.709  -4.778  29.117  0.00  0.00    +0.388 C 
ATOM     15  O   UNL A   1     -25.319  -5.624  29.648  0.00  0.00    -0.241 OA
ATOM     16  O   UNL A   1     -23.784  -5.018  28.134  0.00  0.00    -0.241 OA
ENDBRANCH   5  14
TORSDOF 2
ENDMDL
ENDMDL
