MODEL 319
MODEL 1
REMARK VINA RESULT:    -7.684      0.000      0.000
REMARK INTER + INTRA:         -10.894
REMARK INTER:                  -9.930
REMARK INTRA:                  -0.964
REMARK UNBOUND:                -0.964
REMARK  Name = No_319-gen_results/8p0m/2024-11-26-14-13-15/
REMARK  5 active torsions:
REMARK  status: ('A' for Active; 'I' for Inactive)
REMARK    1  A    between atoms: C_1  and  C_17
REMARK    2  A    between atoms: C_3  and  C_13
REMARK    3  A    between atoms: C_17  and  N_18
REMARK    4  A    between atoms: N_21  and  C_23
REMARK    5  A    between atoms: C_23  and  C_24
REMARK                            x       y       z     vdW  Elec       q    Type
REMARK                         _______ _______ _______ _____ _____    ______ ____
ROOT
ATOM      1  C   UNL A   1     -12.072   3.629  36.850  0.00  0.00    +0.016 A 
ATOM      2  C   UNL A   1     -13.241   3.780  37.116  0.00  0.00    +0.003 A 
ATOM      3  C   UNL A   1     -14.299   3.355  36.331  0.00  0.00    +0.071 A 
ATOM      4  C   UNL A   1     -13.976   2.658  35.130  0.00  0.00    +0.010 A 
ATOM      5  C   UNL A   1     -12.671   2.377  34.940  0.00  0.00    +0.075 A 
ATOM      6  C   UNL A   1     -11.734   2.761  35.809  0.00  0.00    +0.088 A 
ATOM      7  C   UNL A   1     -12.377   1.614  33.711  0.00  0.00    +0.284 A 
ATOM      8  N   UNL A   1     -11.238   1.463  33.404  0.00  0.00    -0.152 NA
ATOM      9  O   UNL A   1     -13.262   0.901  33.189  0.00  0.00    -0.265 OA
ATOM     10  C   UNL A   1     -10.099   2.142  33.916  0.00  0.00    +0.371 A 
ATOM     11  N   UNL A   1     -10.386   2.646  35.345  0.00  0.00    -0.191 NA
ATOM     12  O   UNL A   1      -8.939   2.220  33.596  0.00  0.00    -0.242 OA
ENDROOT
BRANCH   3  13
ATOM     13  C   UNL A   1     -15.736   3.684  36.674  0.00  0.00    +0.419 C 
ATOM     14  F   UNL A   1     -16.462   3.553  35.691  0.00  0.00    -0.166 F 
ATOM     15  F   UNL A   1     -15.790   4.981  37.072  0.00  0.00    -0.166 F 
ATOM     16  F   UNL A   1     -16.192   2.958  37.723  0.00  0.00    -0.166 F 
ENDBRANCH   3  13
BRANCH   1  17
ATOM     17  C   UNL A   1     -10.994   4.061  37.816  0.00  0.00    +0.123 C 
BRANCH  17  18
ATOM     18  N   UNL A   1     -11.148   3.733  39.030  0.00  0.00    -0.257 N 
ATOM     19  C   UNL A   1     -11.792   4.587  39.882  0.00  0.00    +0.117 C 
ATOM     20  C   UNL A   1     -10.569   2.541  39.515  0.00  0.00    +0.324 C 
ATOM     21  N   UNL A   1     -10.244   1.600  38.695  0.00  0.00    -0.184 NA
ATOM     22  O   UNL A   1     -10.662   2.306  40.784  0.00  0.00    -0.251 OA
BRANCH  21  23
ATOM     23  C   UNL A   1      -9.594   0.324  39.034  0.00  0.00    +0.143 C 
BRANCH  23  24
ATOM     24  C   UNL A   1     -10.546  -0.795  38.955  0.00  0.00    -0.001 A 
ATOM     25  C   UNL A   1     -11.082  -1.272  40.124  0.00  0.00    -0.003 A 
ATOM     26  C   UNL A   1     -12.085  -2.243  40.011  0.00  0.00    -0.000 A 
ATOM     27  C   UNL A   1     -12.301  -2.860  38.756  0.00  0.00    -0.000 A 
ATOM     28  C   UNL A   1     -11.662  -2.438  37.601  0.00  0.00    -0.000 A 
ATOM     29  C   UNL A   1     -10.774  -1.327  37.703  0.00  0.00    -0.003 A 
ENDBRANCH  23  24
ENDBRANCH  21  23
ENDBRANCH  17  18
ENDBRANCH   1  17
TORSDOF 5
ENDMDL
ENDMDL
