MODEL 31
MODEL 1
REMARK VINA RESULT:    -4.298      0.000      0.000
REMARK INTER + INTRA:          -4.298
REMARK INTER:                  -4.298
REMARK INTRA:                   0.000
REMARK UNBOUND:                 0.000
REMARK  Name = No_31-gen_results/8p0m/2024-11-26-14-13-15/
REMARK  0 active torsions:
REMARK  status: ('A' for Active; 'I' for Inactive)
REMARK                            x       y       z     vdW  Elec       q    Type
REMARK                         _______ _______ _______ _____ _____    ______ ____
ROOT
ATOM      1  C   UNL A   1     -24.941  -5.399  28.987  0.00  0.00    +0.000 A 
ATOM      2  C   UNL A   1     -24.195  -4.715  28.691  0.00  0.00    +0.000 A 
ATOM      3  C   UNL A   1     -26.105  -4.765  29.604  0.00  0.00    +0.000 A 
ATOM      4  C   UNL A   1     -26.202  -3.403  29.754  0.00  0.00    +0.000 A 
ATOM      5  C   UNL A   1     -24.030  -3.261  28.719  0.00  0.00    +0.000 A 
ATOM      6  C   UNL A   1     -25.152  -2.638  29.314  0.00  0.00    +0.000 A 
ENDROOT
TORSDOF 0
ENDMDL
ENDMDL
