REMARK  Name = No_32-gen_results/8p0m/2024-11-26-14-13-15/
REMARK  2 active torsions:
REMARK  status: ('A' for Active; 'I' for Inactive)
REMARK    1  A    between atoms: C_2  and  C_13
REMARK    2  A    between atoms: C_4  and  C_7
REMARK                            x       y       z     vdW  Elec       q    Type
REMARK                         _______ _______ _______ _____ _____    ______ ____
ROOT
ATOM      1  C   UNL A   1     -28.016  -0.814  28.878  0.00  0.00    +0.007 A 
ATOM      2  C   UNL A   1     -28.469  -0.785  29.829  0.00  0.00    +0.080 A 
ATOM      3  C   UNL A   1     -26.546  -0.876  28.850  0.00  0.00    +0.000 A 
ATOM      4  C   UNL A   1     -25.804  -1.032  30.057  0.00  0.00    +0.000 A 
ATOM      5  C   UNL A   1     -26.537  -1.039  31.217  0.00  0.00    +0.000 A 
ATOM      6  C   UNL A   1     -27.884  -0.953  31.186  0.00  0.00    +0.007 A 
ENDROOT
BRANCH   4   7
ATOM      7  C   UNL A   1     -24.410  -0.971  29.864  0.00  0.00    +0.000 A 
ATOM      8  C   UNL A   1     -23.652  -1.625  30.452  0.00  0.00    +0.000 A 
ATOM      9  C   UNL A   1     -23.864  -0.076  28.869  0.00  0.00    +0.000 A 
ATOM     10  C   UNL A   1     -22.413   0.060  28.818  0.00  0.00    +0.000 A 
ATOM     11  C   UNL A   1     -22.184  -1.538  30.517  0.00  0.00    +0.000 A 
ATOM     12  C   UNL A   1     -21.644  -0.706  29.598  0.00  0.00    +0.000 A 
ENDBRANCH   4   7
BRANCH   2  13
ATOM     13  C   UNL A   1     -30.068  -0.718  29.944  0.00  0.00    +0.388 C 
ATOM     14  O   UNL A   1     -30.565  -0.218  29.099  0.00  0.00    -0.241 OA
ATOM     15  O   UNL A   1     -30.700  -1.189  30.986  0.00  0.00    -0.241 OA
ENDBRANCH   2  13
TORSDOF 2
