MODEL 3200
MODEL 1
REMARK VINA RESULT:    -5.014      0.000      0.000
REMARK INTER + INTRA:          -5.014
REMARK INTER:                  -5.014
REMARK INTRA:                   0.000
REMARK UNBOUND:                 0.000
REMARK  Name = No_3200-gen_results/8p0m/2024-11-26-14-13-15/
REMARK  0 active torsions:
REMARK  status: ('A' for Active; 'I' for Inactive)
REMARK                            x       y       z     vdW  Elec       q    Type
REMARK                         _______ _______ _______ _____ _____    ______ ____
ROOT
ATOM      1  C   UNL A   1     -10.520  -9.300  19.174  0.00  0.00    +0.042 A 
ATOM      2  C   UNL A   1      -9.777  -9.084  20.103  0.00  0.00    +0.003 A 
ATOM      3  C   UNL A   1      -8.474  -9.570  20.109  0.00  0.00    +0.000 A 
ATOM      4  C   UNL A   1      -7.982 -10.386  19.029  0.00  0.00    +0.003 A 
ATOM      5  C   UNL A   1      -8.915 -10.606  18.007  0.00  0.00    +0.042 A 
ATOM      6  C   UNL A   1     -10.141 -10.138  18.057  0.00  0.00    +0.196 A 
ATOM      7  O   UNL A   1     -10.997 -10.430  17.039  0.00  0.00    -0.287 OA
ENDROOT
TORSDOF 0
ENDMDL
ENDMDL
