MODEL 3201
MODEL 1
REMARK VINA RESULT:    -6.379      0.000      0.000
REMARK INTER + INTRA:          -6.627
REMARK INTER:                  -6.752
REMARK INTRA:                   0.125
REMARK UNBOUND:                 0.125
REMARK  Name = No_3201-gen_results/8p0m/2024-11-26-14-13-15/
REMARK  1 active torsions:
REMARK  status: ('A' for Active; 'I' for Inactive)
REMARK    1  A    between atoms: C_7  and  C_11
REMARK                            x       y       z     vdW  Elec       q    Type
REMARK                         _______ _______ _______ _____ _____    ______ ____
ROOT
ATOM      1  C   UNL A   1     -24.072  -4.688  28.581  0.00  0.00    -0.000 A 
ATOM      2  C   UNL A   1     -23.834  -3.512  28.733  0.00  0.00    -0.000 A 
ATOM      3  C   UNL A   1     -24.679  -2.635  29.412  0.00  0.00    +0.004 A 
ATOM      4  C   UNL A   1     -25.945  -3.127  29.920  0.00  0.00    -0.000 A 
ATOM      5  C   UNL A   1     -26.188  -4.483  29.706  0.00  0.00    -0.000 A 
ATOM      6  C   UNL A   1     -25.336  -5.239  29.042  0.00  0.00    -0.000 A 
ATOM      7  C   UNL A   1     -24.337  -1.214  29.461  0.00  0.00    +0.071 A 
ATOM      8  C   UNL A   1     -25.241  -0.365  30.049  0.00  0.00    +0.004 A 
ATOM      9  C   UNL A   1     -26.355  -0.962  30.772  0.00  0.00    -0.000 A 
ATOM     10  C   UNL A   1     -26.765  -2.256  30.630  0.00  0.00    -0.000 A 
ENDROOT
BRANCH   7  11
ATOM     11  C   UNL A   1     -23.140  -0.645  28.954  0.00  0.00    +0.419 C 
ATOM     12  F   UNL A   1     -22.249  -1.435  28.950  0.00  0.00    -0.166 F 
ATOM     13  F   UNL A   1     -22.812   0.393  29.741  0.00  0.00    -0.166 F 
ATOM     14  F   UNL A   1     -23.282  -0.162  27.671  0.00  0.00    -0.166 F 
ENDBRANCH   7  11
TORSDOF 1
ENDMDL
ENDMDL
