REMARK  Name = No_3201-gen_results/8p0m/2024-11-26-14-13-15/
REMARK  1 active torsions:
REMARK  status: ('A' for Active; 'I' for Inactive)
REMARK    1  A    between atoms: C_7  and  C_11
REMARK                            x       y       z     vdW  Elec       q    Type
REMARK                         _______ _______ _______ _____ _____    ______ ____
ROOT
ATOM      1  C   UNL A   1     -28.016  -0.814  28.878  0.00  0.00    -0.000 A 
ATOM      2  C   UNL A   1     -27.064  -0.119  28.608  0.00  0.00    -0.000 A 
ATOM      3  C   UNL A   1     -25.765  -0.390  29.036  0.00  0.00    +0.004 A 
ATOM      4  C   UNL A   1     -25.530  -1.530  29.901  0.00  0.00    -0.000 A 
ATOM      5  C   UNL A   1     -26.658  -2.292  30.203  0.00  0.00    -0.000 A 
ATOM      6  C   UNL A   1     -27.855  -1.956  29.763  0.00  0.00    -0.000 A 
ATOM      7  C   UNL A   1     -24.701   0.565  28.727  0.00  0.00    +0.071 A 
ATOM      8  C   UNL A   1     -23.456   0.318  29.249  0.00  0.00    +0.004 A 
ATOM      9  C   UNL A   1     -23.234  -0.977  29.877  0.00  0.00    -0.000 A 
ATOM     10  C   UNL A   1     -24.227  -1.817  30.292  0.00  0.00    -0.000 A 
ENDROOT
BRANCH   7  11
ATOM     11  C   UNL A   1     -24.854   1.724  27.922  0.00  0.00    +0.419 C 
ATOM     12  F   UNL A   1     -25.041   2.695  28.585  0.00  0.00    -0.166 F 
ATOM     13  F   UNL A   1     -25.908   1.527  27.113  0.00  0.00    -0.166 F 
ATOM     14  F   UNL A   1     -23.758   1.964  27.121  0.00  0.00    -0.166 F 
ENDBRANCH   7  11
TORSDOF 1
