MODEL 3202
MODEL 1
REMARK VINA RESULT:    -8.335      0.000      0.000
REMARK INTER + INTRA:         -12.565
REMARK INTER:                 -10.771
REMARK INTRA:                  -1.794
REMARK UNBOUND:                -1.794
REMARK  Name = No_3202-gen_results/8p0m/2024-11-26-14-13-15/
REMARK  5 active torsions:
REMARK  status: ('A' for Active; 'I' for Inactive)
REMARK    1  A    between atoms: C_2  and  C_14
REMARK    2  A    between atoms: C_9  and  C_11
REMARK    3  A    between atoms: C_14  and  O_15
REMARK    4  A    between atoms: O_15  and  C_18
REMARK    5  A    between atoms: C_18  and  C_19
REMARK                            x       y       z     vdW  Elec       q    Type
REMARK                         _______ _______ _______ _____ _____    ______ ____
ROOT
ATOM      1  C   UNL A   1     -23.435   0.651  27.674  0.00  0.00    +0.342 C 
ATOM      2  O   UNL A   1     -22.756   1.717  27.892  0.00  0.00    -0.245 OA
ENDROOT
BRANCH   1   4
ATOM      3  C   UNL A   1     -25.687   0.520  27.327  0.00  0.00    +0.006 A 
ATOM      4  C   UNL A   1     -24.778   0.599  26.802  0.00  0.00    +0.076 A 
ATOM      5  C   UNL A   1     -26.928   0.414  26.468  0.00  0.00    +0.000 A 
ATOM      6  C   UNL A   1     -28.292   0.443  26.932  0.00  0.00    +0.000 A 
ATOM      7  C   UNL A   1     -24.445   0.408  25.384  0.00  0.00    +0.006 A 
ATOM      8  C   UNL A   1     -25.525   0.277  24.538  0.00  0.00    +0.000 A 
ATOM      9  C   UNL A   1     -26.800   0.243  25.042  0.00  0.00    +0.000 A 
ATOM     10  C   UNL A   1     -29.344   0.676  26.042  0.00  0.00    +0.005 A 
ATOM     11  C   UNL A   1     -29.147   0.468  24.660  0.00  0.00    +0.055 A 
ATOM     12  C   UNL A   1     -27.927   0.340  24.161  0.00  0.00    +0.005 A 
BRANCH  11  13
ATOM     13  C   UNL A   1     -30.352   0.561  23.787  0.00  0.00    +0.265 C 
ATOM     14  N   UNL A   1     -31.350  -0.083  23.369  0.00  0.00    -0.200 NA
ATOM     15  O   UNL A   1     -30.281   1.812  23.158  0.00  0.00    -0.268 OA
ATOM     16  C   UNL A   1     -31.510  -1.480  23.760  0.00  0.00    +0.139 C 
ENDBRANCH  11  13
ENDBRANCH   1   4
BRANCH   1  17
ATOM     17  O   UNL A   1     -23.207  -0.368  28.137  0.00  0.00    -0.440 OA
BRANCH  17  18
ATOM     18  C   UNL A   1     -22.717  -0.628  29.377  0.00  0.00    +0.235 C 
BRANCH  18  19
ATOM     19  C   UNL A   1     -23.519  -1.063  30.192  0.00  0.00    +0.021 A 
ATOM     20  C   UNL A   1     -24.411  -2.072  29.951  0.00  0.00    -0.001 A 
ATOM     21  C   UNL A   1     -25.486  -2.351  30.300  0.00  0.00    -0.000 A 
ATOM     22  C   UNL A   1     -26.337  -3.592  29.999  0.00  0.00    -0.000 A 
ATOM     23  C   UNL A   1     -25.723  -4.541  29.142  0.00  0.00    -0.000 A 
ATOM     24  C   UNL A   1     -24.412  -4.382  28.867  0.00  0.00    -0.000 A 
ATOM     25  C   UNL A   1     -23.771  -3.263  29.174  0.00  0.00    -0.000 A 
ATOM     26  C   UNL A   1     -24.541  -0.037  30.803  0.00  0.00    -0.001 A 
ATOM     27  C   UNL A   1     -23.946   1.177  31.153  0.00  0.00    -0.000 A 
ATOM     28  C   UNL A   1     -24.710   2.195  31.767  0.00  0.00    -0.000 A 
ATOM     29  C   UNL A   1     -26.045   1.848  32.073  0.00  0.00    -0.000 A 
ATOM     30  C   UNL A   1     -26.609   0.661  31.744  0.00  0.00    -0.000 A 
ATOM     31  C   UNL A   1     -25.822  -0.313  31.082  0.00  0.00    -0.000 A 
ATOM     32  C   UNL A   1     -26.394  -1.513  30.793  0.00  0.00    -0.000 A 
ENDBRANCH  18  19
ENDBRANCH  17  18
ENDBRANCH   1  17
TORSDOF 5
ENDMDL
ENDMDL
