REMARK  Name = No_3202-gen_results/8p0m/2024-11-26-14-13-15/
REMARK  5 active torsions:
REMARK  status: ('A' for Active; 'I' for Inactive)
REMARK    1  A    between atoms: C_2  and  C_14
REMARK    2  A    between atoms: C_9  and  C_11
REMARK    3  A    between atoms: C_14  and  O_15
REMARK    4  A    between atoms: O_15  and  C_18
REMARK    5  A    between atoms: C_18  and  C_19
REMARK                            x       y       z     vdW  Elec       q    Type
REMARK                         _______ _______ _______ _____ _____    ______ ____
ROOT
ATOM      1  C   UNL A   1     -30.067  -0.883  29.877  0.00  0.00    +0.342 C 
ATOM      2  O   UNL A   1     -30.727  -1.467  30.809  0.00  0.00    -0.245 OA
ENDROOT
BRANCH   1   4
ATOM      3  C   UNL A   1     -28.016  -0.814  28.878  0.00  0.00    +0.006 A 
ATOM      4  C   UNL A   1     -28.469  -0.785  29.829  0.00  0.00    +0.076 A 
ATOM      5  C   UNL A   1     -26.504  -0.778  28.877  0.00  0.00    +0.000 A 
ATOM      6  C   UNL A   1     -25.654  -0.660  27.719  0.00  0.00    +0.000 A 
ATOM      7  C   UNL A   1     -27.918  -0.937  31.182  0.00  0.00    +0.006 A 
ATOM      8  C   UNL A   1     -26.542  -0.940  31.261  0.00  0.00    +0.000 A 
ATOM      9  C   UNL A   1     -25.783  -0.893  30.120  0.00  0.00    +0.000 A 
ATOM     10  C   UNL A   1     -24.310  -0.301  27.853  0.00  0.00    +0.005 A 
ATOM     11  C   UNL A   1     -23.667  -0.460  29.099  0.00  0.00    +0.055 A 
ATOM     12  C   UNL A   1     -24.370  -0.664  30.203  0.00  0.00    +0.005 A 
BRANCH  11  13
ATOM     13  C   UNL A   1     -22.195  -0.229  29.131  0.00  0.00    +0.265 C 
ATOM     14  N   UNL A   1     -21.288   0.567  28.771  0.00  0.00    -0.200 NA
ATOM     15  O   UNL A   1     -21.635  -1.371  29.721  0.00  0.00    -0.268 OA
ATOM     16  C   UNL A   1     -21.643   1.736  27.974  0.00  0.00    +0.139 C 
ENDBRANCH  11  13
ENDBRANCH   1   4
BRANCH   1  17
ATOM     17  O   UNL A   1     -30.540  -0.301  29.015  0.00  0.00    -0.440 OA
BRANCH  17  18
ATOM     18  C   UNL A   1     -31.801   0.200  28.943  0.00  0.00    +0.235 C 
BRANCH  18  19
ATOM     19  C   UNL A   1     -32.237   0.400  27.817  0.00  0.00    +0.021 A 
ATOM     20  C   UNL A   1     -31.509   0.288  26.664  0.00  0.00    -0.001 A 
ATOM     21  C   UNL A   1     -31.490   0.809  25.623  0.00  0.00    -0.000 A 
ATOM     22  C   UNL A   1     -30.651   0.503  24.375  0.00  0.00    -0.000 A 
ATOM     23  C   UNL A   1     -29.737  -0.572  24.521  0.00  0.00    -0.000 A 
ATOM     24  C   UNL A   1     -29.847  -1.344  25.622  0.00  0.00    -0.000 A 
ATOM     25  C   UNL A   1     -30.606  -0.983  26.647  0.00  0.00    -0.000 A 
ATOM     26  C   UNL A   1     -32.845   1.820  27.531  0.00  0.00    -0.001 A 
ATOM     27  C   UNL A   1     -33.660   2.280  28.568  0.00  0.00    -0.000 A 
ATOM     28  C   UNL A   1     -34.331   3.518  28.453  0.00  0.00    -0.000 A 
ATOM     29  C   UNL A   1     -34.190   4.169  27.207  0.00  0.00    -0.000 A 
ATOM     30  C   UNL A   1     -33.410   3.707  26.200  0.00  0.00    -0.000 A 
ATOM     31  C   UNL A   1     -32.712   2.487  26.377  0.00  0.00    -0.000 A 
ATOM     32  C   UNL A   1     -31.964   2.019  25.341  0.00  0.00    -0.000 A 
ENDBRANCH  18  19
ENDBRANCH  17  18
ENDBRANCH   1  17
TORSDOF 5
