MODEL 3203
MODEL 1
REMARK VINA RESULT:    -7.476      0.000      0.000
REMARK INTER + INTRA:         -12.358
REMARK INTER:                 -10.973
REMARK INTRA:                  -1.385
REMARK UNBOUND:                -1.385
REMARK  Name = No_3203-gen_results/8p0m/2024-11-26-14-13-15/
REMARK  8 active torsions:
REMARK  status: ('A' for Active; 'I' for Inactive)
REMARK    1  A    between atoms: C_1  and  C_2
REMARK    2  A    between atoms: C_1  and  C_8
REMARK    3  A    between atoms: C_7  and  C_15
REMARK    4  A    between atoms: C_8  and  C_9
REMARK    5  A    between atoms: C_8  and  N_29
REMARK    6  A    between atoms: C_15  and  O_17
REMARK    7  A    between atoms: O_17  and  C_22
REMARK    8  A    between atoms: C_32  and  C_34
REMARK                            x       y       z     vdW  Elec       q    Type
REMARK                         _______ _______ _______ _____ _____    ______ ____
ROOT
ATOM      1  C   UNL A   1      -9.737   0.701  36.026  0.00  0.00    -0.014 A 
ATOM      2  C   UNL A   1     -10.668  -0.017  36.768  0.00  0.00    -0.003 A 
ATOM      3  C   UNL A   1     -10.564  -0.364  38.214  0.00  0.00    +0.015 A 
ATOM      4  C   UNL A   1      -9.319  -0.058  38.840  0.00  0.00    +0.092 A 
ATOM      5  C   UNL A   1      -8.365   0.617  38.053  0.00  0.00    +0.014 A 
ATOM      6  C   UNL A   1      -8.539   0.950  36.766  0.00  0.00    +0.072 A 
ATOM      7  C   UNL A   1      -9.194  -0.435  40.231  0.00  0.00    +0.419 C 
ATOM      8  N   UNL A   1      -9.391  -1.287  40.749  0.00  0.00    +0.024 NA
ATOM      9  N   UNL A   1      -8.010   0.251  40.768  0.00  0.00    +0.216 NA
ATOM     10  C   UNL A   1     -10.760  -1.827  40.580  0.00  0.00    +0.455 C 
ATOM     11  C   UNL A   1     -11.499  -1.200  38.818  0.00  0.00    +0.049 C 
ATOM     12  C   UNL A   1     -11.388  -1.907  39.917  0.00  0.00    -0.005 C 
ATOM     13  N   UNL A   1     -10.938  -2.772  41.827  0.00  0.00    +0.226 NA
ENDROOT
BRANCH   6  14
ATOM     14  C   UNL A   1      -7.468   1.632  36.015  0.00  0.00    +0.345 C 
ATOM     15  O   UNL A   1      -7.257   2.742  36.151  0.00  0.00    -0.244 OA
BRANCH  14  16
ATOM     16  O   UNL A   1      -6.992   0.859  34.941  0.00  0.00    -0.418 OA
BRANCH  16  17
ATOM     17  C   UNL A   1      -5.904   0.039  35.126  0.00  0.00    +0.187 A 
ATOM     18  C   UNL A   1      -4.922   0.287  35.367  0.00  0.00    +0.041 A 
ATOM     19  C   UNL A   1      -3.779  -0.678  35.399  0.00  0.00    +0.003 A 
ATOM     20  C   UNL A   1      -4.144  -1.948  35.018  0.00  0.00    +0.004 A 
ATOM     21  C   UNL A   1      -6.257  -1.210  34.541  0.00  0.00    +0.230 A 
ATOM     22  C   UNL A   1      -5.353  -2.217  34.534  0.00  0.00    +0.045 A 
ATOM     23  O   UNL A   1      -7.516  -1.464  34.099  0.00  0.00    -0.283 OA
ENDBRANCH  16  17
ENDBRANCH  14  16
ENDBRANCH   6  14
BRANCH   1  24
ATOM     24  C   UNL A   1      -9.920   0.939  34.855  0.00  0.00    +0.058 C 
BRANCH  24  25
ATOM     25  C   UNL A   1     -10.490   2.334  34.607  0.00  0.00    +0.181 C 
BRANCH  25  26
ATOM     26  N   UNL A   1     -11.637   2.791  35.260  0.00  0.00    -0.298 N 
ATOM     27  C   UNL A   1     -11.646   3.652  36.222  0.00  0.00    +0.058 C 
ATOM     28  C   UNL A   1     -12.873   3.755  36.868  0.00  0.00    -0.005 C 
ATOM     29  C   UNL A   1     -13.760   2.833  36.180  0.00  0.00    +0.065 C 
ATOM     30  C   UNL A   1     -12.936   2.756  34.680  0.00  0.00    +0.100 C 
BRANCH  29  31
ATOM     31  C   UNL A   1     -15.185   3.376  35.914  0.00  0.00    -0.020 C 
ATOM     32  C   UNL A   1     -15.924   3.735  36.721  0.00  0.00    -0.004 C 
ENDBRANCH  29  31
ENDBRANCH  25  26
BRANCH  25  33
ATOM     33  C   UNL A   1      -9.757   3.234  33.811  0.00  0.00    +0.383 C 
ATOM     34  O   UNL A   1      -9.091   2.988  33.044  0.00  0.00    -0.244 OA
ATOM     35  O   UNL A   1     -10.153   4.552  33.840  0.00  0.00    -0.244 OA
ENDBRANCH  25  33
ENDBRANCH  24  25
ENDBRANCH   1  24
TORSDOF 8
ENDMDL
ENDMDL
