REMARK  Name = No_3203-gen_results/8p0m/2024-11-26-14-13-15/
REMARK  8 active torsions:
REMARK  status: ('A' for Active; 'I' for Inactive)
REMARK    1  A    between atoms: C_1  and  C_2
REMARK    2  A    between atoms: C_1  and  C_8
REMARK    3  A    between atoms: C_7  and  C_15
REMARK    4  A    between atoms: C_8  and  C_9
REMARK    5  A    between atoms: C_8  and  N_29
REMARK    6  A    between atoms: C_15  and  O_17
REMARK    7  A    between atoms: O_17  and  C_22
REMARK    8  A    between atoms: C_32  and  C_34
REMARK                            x       y       z     vdW  Elec       q    Type
REMARK                         _______ _______ _______ _____ _____    ______ ____
ROOT
ATOM      1  C   UNL A   1     -27.064  -0.119  28.608  0.00  0.00    -0.014 A 
ATOM      2  C   UNL A   1     -25.792  -0.430  29.076  0.00  0.00    -0.003 A 
ATOM      3  C   UNL A   1     -24.546   0.349  28.823  0.00  0.00    +0.015 A 
ATOM      4  C   UNL A   1     -24.659   1.420  27.888  0.00  0.00    +0.092 A 
ATOM      5  C   UNL A   1     -25.947   1.681  27.379  0.00  0.00    +0.014 A 
ATOM      6  C   UNL A   1     -27.044   0.974  27.687  0.00  0.00    +0.072 A 
ATOM      7  C   UNL A   1     -23.443   2.150  27.602  0.00  0.00    +0.419 C 
ATOM      8  N   UNL A   1     -22.496   1.871  27.362  0.00  0.00    +0.024 NA
ATOM      9  N   UNL A   1     -23.826   3.386  26.905  0.00  0.00    +0.216 NA
ATOM     10  C   UNL A   1     -21.865   0.908  28.295  0.00  0.00    +0.455 C 
ATOM     11  C   UNL A   1     -23.306  -0.132  29.236  0.00  0.00    +0.049 C 
ATOM     12  C   UNL A   1     -22.110   0.184  28.801  0.00  0.00    -0.005 C 
ATOM     13  N   UNL A   1     -20.327   1.062  27.996  0.00  0.00    +0.226 NA
ENDROOT
BRANCH   6  14
ATOM     14  C   UNL A   1     -28.346   1.306  27.079  0.00  0.00    +0.345 C 
ATOM     15  O   UNL A   1     -29.117   1.940  27.627  0.00  0.00    -0.244 OA
BRANCH  14  16
ATOM     16  O   UNL A   1     -28.626   0.518  25.949  0.00  0.00    -0.418 OA
BRANCH  16  17
ATOM     17  C   UNL A   1     -29.906   0.481  25.448  0.00  0.00    +0.187 A 
ATOM     18  C   UNL A   1     -30.814   0.447  25.956  0.00  0.00    +0.041 A 
ATOM     19  C   UNL A   1     -32.150   0.260  25.308  0.00  0.00    +0.003 A 
ATOM     20  C   UNL A   1     -32.061   0.079  23.948  0.00  0.00    +0.004 A 
ATOM     21  C   UNL A   1     -29.777   0.098  24.083  0.00  0.00    +0.230 A 
ATOM     22  C   UNL A   1     -30.891  -0.063  23.332  0.00  0.00    +0.045 A 
ATOM     23  O   UNL A   1     -28.565   0.009  23.475  0.00  0.00    -0.283 OA
ENDBRANCH  16  17
ENDBRANCH  14  16
ENDBRANCH   6  14
BRANCH   1  24
ATOM     24  C   UNL A   1     -28.016  -0.814  28.878  0.00  0.00    +0.058 C 
BRANCH  24  25
ATOM     25  C   UNL A   1     -28.670  -0.446  30.208  0.00  0.00    +0.181 C 
BRANCH  25  26
ATOM     26  N   UNL A   1     -28.338   0.723  30.897  0.00  0.00    -0.298 N 
ATOM     27  C   UNL A   1     -29.083   1.775  30.969  0.00  0.00    +0.058 C 
ATOM     28  C   UNL A   1     -28.432   2.885  31.495  0.00  0.00    -0.005 C 
ATOM     29  C   UNL A   1     -27.088   2.438  31.818  0.00  0.00    +0.065 C 
ATOM     30  C   UNL A   1     -27.405   0.762  31.971  0.00  0.00    +0.100 C 
BRANCH  29  31
ATOM     31  C   UNL A   1     -26.541   2.946  33.175  0.00  0.00    -0.020 C 
ATOM     32  C   UNL A   1     -26.801   2.505  34.206  0.00  0.00    -0.004 C 
ENDBRANCH  29  31
ENDBRANCH  25  26
BRANCH  25  33
ATOM     33  C   UNL A   1     -29.739  -1.232  30.678  0.00  0.00    +0.383 C 
ATOM     34  O   UNL A   1     -30.207  -2.016  30.170  0.00  0.00    -0.244 OA
ATOM     35  O   UNL A   1     -30.014  -1.162  32.025  0.00  0.00    -0.244 OA
ENDBRANCH  25  33
ENDBRANCH  24  25
ENDBRANCH   1  24
TORSDOF 8
