MODEL 3205
MODEL 1
REMARK VINA RESULT:    -5.373      0.000      0.000
REMARK INTER + INTRA:          -5.727
REMARK INTER:                  -5.687
REMARK INTRA:                  -0.040
REMARK UNBOUND:                -0.040
REMARK  Name = No_3205-gen_results/8p0m/2024-11-26-14-13-15/
REMARK  1 active torsions:
REMARK  status: ('A' for Active; 'I' for Inactive)
REMARK    1  A    between atoms: C_1  and  C_7
REMARK                            x       y       z     vdW  Elec       q    Type
REMARK                         _______ _______ _______ _____ _____    ______ ____
ROOT
ATOM      1  C   UNL A   1      -9.509 -10.122  18.223  0.00  0.00    +0.080 A 
ATOM      2  C   UNL A   1      -8.423 -10.510  18.585  0.00  0.00    +0.007 A 
ATOM      3  C   UNL A   1      -7.842 -10.148  19.784  0.00  0.00    +0.000 A 
ATOM      4  C   UNL A   1      -8.584  -9.303  20.656  0.00  0.00    +0.000 A 
ATOM      5  C   UNL A   1      -9.858  -9.035  20.284  0.00  0.00    +0.000 A 
ATOM      6  C   UNL A   1     -10.345  -9.459  19.134  0.00  0.00    +0.007 A 
ENDROOT
BRANCH   1   7
ATOM      7  C   UNL A   1     -10.072 -10.578  16.899  0.00  0.00    +0.388 C 
ATOM      8  O   UNL A   1      -9.634 -11.003  16.063  0.00  0.00    -0.241 OA
ATOM      9  O   UNL A   1     -11.494 -10.519  16.968  0.00  0.00    -0.241 OA
ENDBRANCH   1   7
TORSDOF 1
ENDMDL
ENDMDL
