MODEL 3206
MODEL 1
REMARK VINA RESULT:    -4.422      0.000      0.000
REMARK INTER + INTRA:          -4.422
REMARK INTER:                  -4.422
REMARK INTRA:                   0.000
REMARK UNBOUND:                 0.000
REMARK  Name = No_3206-gen_results/8p0m/2024-11-26-14-13-15/
REMARK  0 active torsions:
REMARK  status: ('A' for Active; 'I' for Inactive)
REMARK                            x       y       z     vdW  Elec       q    Type
REMARK                         _______ _______ _______ _____ _____    ______ ____
ROOT
ATOM      1  C   UNL A   1      -9.240  -9.252  20.135  0.00  0.00    +0.011 A 
ATOM      2  C   UNL A   1      -8.236  -9.871  19.867  0.00  0.00    +0.058 A 
ATOM      3  C   UNL A   1      -8.004 -10.599  18.812  0.00  0.00    +0.011 A 
ATOM      4  C   UNL A   1      -9.039 -10.716  17.835  0.00  0.00    +0.001 A 
ATOM      5  C   UNL A   1     -10.292  -9.229  19.137  0.00  0.00    +0.001 A 
ATOM      6  C   UNL A   1     -10.142  -9.963  18.034  0.00  0.00    +0.000 A 
ATOM      7 CL   UNL A   1      -6.873  -9.828  20.999  0.00  0.00    -0.082 Cl
ENDROOT
TORSDOF 0
ENDMDL
ENDMDL
