MODEL 3207
MODEL 1
REMARK VINA RESULT:    -4.267      0.000      0.000
REMARK INTER + INTRA:          -4.559
REMARK INTER:                  -4.517
REMARK INTRA:                  -0.043
REMARK UNBOUND:                -0.043
REMARK  Name = No_3207-gen_results/8p0m/2024-11-26-14-13-15/
REMARK  1 active torsions:
REMARK  status: ('A' for Active; 'I' for Inactive)
REMARK    1  A    between atoms: C_2  and  N_7
REMARK                            x       y       z     vdW  Elec       q    Type
REMARK                         _______ _______ _______ _____ _____    ______ ____
ROOT
ATOM      1  C   UNL A   1     -24.115  -4.345  28.869  0.00  0.00    +0.036 A 
ATOM      2  C   UNL A   1     -24.117  -3.163  29.120  0.00  0.00    +0.148 A 
ATOM      3  N   UNL A   1     -25.115  -2.537  29.672  0.00  0.00    -0.228 NA
ATOM      4  C   UNL A   1     -25.311  -5.114  29.195  0.00  0.00    +0.004 A 
ATOM      5  C   UNL A   1     -26.377  -4.524  29.678  0.00  0.00    +0.021 A 
ATOM      6  C   UNL A   1     -26.276  -3.172  29.932  0.00  0.00    +0.100 A 
ENDROOT
BRANCH   2   7
ATOM      7  N   UNL A   1     -23.129  -2.206  28.848  0.00  0.00    -0.218 NA
ATOM      8  C   UNL A   1     -23.036  -1.126  29.643  0.00  0.00    +0.137 C 
ENDBRANCH   2   7
TORSDOF 1
ENDMDL
ENDMDL
