MODEL 3208
MODEL 1
REMARK VINA RESULT:    -4.457      0.000      0.000
REMARK INTER + INTRA:          -4.457
REMARK INTER:                  -4.457
REMARK INTRA:                   0.000
REMARK UNBOUND:                 0.000
REMARK  Name = No_3208-gen_results/8p0m/2024-11-26-14-13-15/
REMARK  0 active torsions:
REMARK  status: ('A' for Active; 'I' for Inactive)
REMARK                            x       y       z     vdW  Elec       q    Type
REMARK                         _______ _______ _______ _____ _____    ______ ____
ROOT
ATOM      1  C   UNL A   1      -9.201  -9.230  20.083  0.00  0.00    +0.011 A 
ATOM      2  C   UNL A   1      -8.361  -9.817  19.841  0.00  0.00    +0.058 A 
ATOM      3  C   UNL A   1     -10.305  -9.219  19.050  0.00  0.00    +0.001 A 
ATOM      4  C   UNL A   1     -10.216 -10.077  17.933  0.00  0.00    +0.000 A 
ATOM      5  C   UNL A   1      -8.037 -10.808  18.790  0.00  0.00    +0.011 A 
ATOM      6  C   UNL A   1      -9.033 -10.831  17.824  0.00  0.00    +0.001 A 
ATOM      7 CL   UNL A   1      -7.002  -9.959  21.097  0.00  0.00    -0.082 Cl
ENDROOT
TORSDOF 0
ENDMDL
ENDMDL
