MODEL 3209
MODEL 1
REMARK VINA RESULT:    -4.348      0.000      0.000
REMARK INTER + INTRA:          -4.348
REMARK INTER:                  -4.348
REMARK INTRA:                   0.000
REMARK UNBOUND:                 0.000
REMARK  Name = No_3209-gen_results/8p0m/2024-11-26-14-13-15/
REMARK  0 active torsions:
REMARK  status: ('A' for Active; 'I' for Inactive)
REMARK                            x       y       z     vdW  Elec       q    Type
REMARK                         _______ _______ _______ _____ _____    ______ ____
ROOT
ATOM      1  C   UNL A   1     -24.939  -5.414  29.004  0.00  0.00    +0.000 A 
ATOM      2  C   UNL A   1     -24.201  -4.739  28.675  0.00  0.00    +0.000 A 
ATOM      3  C   UNL A   1     -26.116  -4.757  29.586  0.00  0.00    +0.000 A 
ATOM      4  C   UNL A   1     -26.154  -3.448  29.838  0.00  0.00    +0.000 A 
ATOM      5  C   UNL A   1     -24.013  -3.319  28.850  0.00  0.00    +0.000 A 
ATOM      6  C   UNL A   1     -25.106  -2.730  29.414  0.00  0.00    +0.000 A 
ENDROOT
TORSDOF 0
ENDMDL
ENDMDL
