MODEL 320
MODEL 1
REMARK VINA RESULT:    -4.351      0.000      0.000
REMARK INTER + INTRA:          -4.351
REMARK INTER:                  -4.351
REMARK INTRA:                   0.000
REMARK UNBOUND:                 0.000
REMARK  Name = No_320-gen_results/8p0m/2024-11-26-14-13-15/
REMARK  0 active torsions:
REMARK  status: ('A' for Active; 'I' for Inactive)
REMARK                            x       y       z     vdW  Elec       q    Type
REMARK                         _______ _______ _______ _____ _____    ______ ____
ROOT
ATOM      1  C   UNL A   1     -26.213  -4.698  29.695  0.00  0.00    +0.007 A 
ATOM      2  C   UNL A   1     -26.196  -3.645  29.712  0.00  0.00    +0.035 A 
ATOM      3  C   UNL A   1     -25.085  -5.365  29.024  0.00  0.00    +0.001 A 
ATOM      4  C   UNL A   1     -23.971  -4.609  28.557  0.00  0.00    +0.000 A 
ATOM      5  C   UNL A   1     -25.153  -2.643  29.359  0.00  0.00    +0.007 A 
ATOM      6  C   UNL A   1     -24.095  -3.222  28.725  0.00  0.00    +0.001 A 
ATOM      7 BR   UNL A   1     -27.701  -2.727  30.621  0.00  0.00    -0.049 Br
ENDROOT
TORSDOF 0
ENDMDL
ENDMDL
