REMARK  Name = No_3210-gen_results/8p0m/2024-11-26-14-13-15/
REMARK  5 active torsions:
REMARK  status: ('A' for Active; 'I' for Inactive)
REMARK    1  A    between atoms: C_6  and  O_7
REMARK    2  A    between atoms: O_7  and  C_9
REMARK    3  A    between atoms: C_9  and  C_10
REMARK    4  A    between atoms: C_10  and  O_11
REMARK    5  A    between atoms: O_11  and  C_12
REMARK                            x       y       z     vdW  Elec       q    Type
REMARK                         _______ _______ _______ _____ _____    ______ ____
ROOT
ATOM      1  C   UNL A   1     -28.016  -0.814  28.878  0.00  0.00    +0.037 A 
ATOM      2  C   UNL A   1     -27.064  -0.119  28.608  0.00  0.00    +0.010 A 
ATOM      3  C   UNL A   1     -25.792  -0.430  29.076  0.00  0.00    +0.035 A 
ATOM      4  C   UNL A   1     -25.576  -1.565  29.936  0.00  0.00    +0.010 A 
ATOM      5  C   UNL A   1     -26.735  -2.300  30.217  0.00  0.00    +0.037 A 
ATOM      6  C   UNL A   1     -27.918  -1.954  29.763  0.00  0.00    +0.139 A 
ATOM      7 BR   UNL A   1     -24.217   0.577  28.708  0.00  0.00    -0.049 Br
ENDROOT
BRANCH   6   8
ATOM      8  O   UNL A   1     -29.000  -2.701  30.115  0.00  0.00    -0.471 OA
BRANCH   8   9
ATOM      9  C   UNL A   1     -28.886  -3.945  30.596  0.00  0.00    +0.253 C 
BRANCH   9  10
ATOM     10  C   UNL A   1     -30.102  -4.610  30.918  0.00  0.00    +0.253 C 
BRANCH  10  11
ATOM     11  O   UNL A   1     -30.825  -4.033  31.652  0.00  0.00    -0.468 OA
BRANCH  11  12
ATOM     12  C   UNL A   1     -31.953  -3.862  31.747  0.00  0.00    +0.172 C 
ATOM     13  C   UNL A   1     -32.624  -2.941  31.599  0.00  0.00    +0.043 C 
ENDBRANCH  11  12
ENDBRANCH  10  11
ENDBRANCH   9  10
ENDBRANCH   8   9
ENDBRANCH   6   8
TORSDOF 5
