REMARK  Name = No_3211-gen_results/8p0m/2024-11-26-14-13-15/
REMARK  2 active torsions:
REMARK  status: ('A' for Active; 'I' for Inactive)
REMARK    1  A    between atoms: C_3  and  C_15
REMARK    2  A    between atoms: C_5  and  C_11
REMARK                            x       y       z     vdW  Elec       q    Type
REMARK                         _______ _______ _______ _____ _____    ______ ____
ROOT
ATOM      1  C   UNL A   1     -28.016  -0.814  28.878  0.00  0.00    +0.000 A 
ATOM      2  C   UNL A   1     -27.064  -0.119  28.608  0.00  0.00    +0.004 A 
ATOM      3  C   UNL A   1     -26.972   0.714  27.506  0.00  0.00    +0.050 A 
ATOM      4  C   UNL A   1     -25.820   1.491  27.116  0.00  0.00    +0.008 A 
ATOM      5  C   UNL A   1     -24.656   1.424  27.918  0.00  0.00    +0.071 A 
ATOM      6  C   UNL A   1     -24.685   0.590  29.066  0.00  0.00    +0.004 A 
ATOM      7  C   UNL A   1     -25.810  -0.127  29.334  0.00  0.00    +0.000 A 
ATOM      8  C   UNL A   1     -28.044  -1.573  30.169  0.00  0.00    +0.000 A 
ATOM      9  C   UNL A   1     -26.817  -1.760  30.870  0.00  0.00    -0.000 A 
ATOM     10  C   UNL A   1     -25.748  -0.992  30.538  0.00  0.00    -0.000 A 
ENDROOT
BRANCH   5  11
ATOM     11  C   UNL A   1     -23.459   2.228  27.584  0.00  0.00    +0.419 C 
ATOM     12  F   UNL A   1     -23.670   3.306  27.036  0.00  0.00    -0.166 F 
ATOM     13  F   UNL A   1     -22.753   2.575  28.723  0.00  0.00    -0.166 F 
ATOM     14  F   UNL A   1     -22.567   1.518  26.864  0.00  0.00    -0.166 F 
ENDBRANCH   5  11
BRANCH   3  15
ATOM     15  C   UNL A   1     -28.105   0.831  26.568  0.00  0.00    +0.254 C 
ATOM     16 CL   UNL A   1     -28.284   1.698  25.835  0.00  0.00    -0.038 Cl
ATOM     17  O   UNL A   1     -28.639  -0.408  26.466  0.00  0.00    -0.274 OA
ENDBRANCH   3  15
TORSDOF 2
