MODEL 3211
MODEL 1
REMARK VINA RESULT:    -6.230      0.000      0.000
REMARK INTER + INTRA:          -7.356
REMARK INTER:                  -6.958
REMARK INTRA:                  -0.397
REMARK UNBOUND:                -0.397
REMARK  Name = No_3211-gen_results/8p0m/2024-11-26-14-13-15/
REMARK  2 active torsions:
REMARK  status: ('A' for Active; 'I' for Inactive)
REMARK    1  A    between atoms: C_3  and  C_15
REMARK    2  A    between atoms: C_5  and  C_11
REMARK                            x       y       z     vdW  Elec       q    Type
REMARK                         _______ _______ _______ _____ _____    ______ ____
ROOT
ATOM      1  C   UNL A   1     -30.704  -9.770  29.191  0.00  0.00    +0.000 A 
ATOM      2  C   UNL A   1     -30.031 -10.287  30.053  0.00  0.00    +0.004 A 
ATOM      3  C   UNL A   1     -29.927  -9.839  31.358  0.00  0.00    +0.050 A 
ATOM      4  C   UNL A   1     -29.072 -10.386  32.384  0.00  0.00    +0.008 A 
ATOM      5  C   UNL A   1     -28.251 -11.493  32.061  0.00  0.00    +0.071 A 
ATOM      6  C   UNL A   1     -28.313 -12.004  30.738  0.00  0.00    +0.004 A 
ATOM      7  C   UNL A   1     -29.130 -11.400  29.833  0.00  0.00    +0.000 A 
ATOM      8  C   UNL A   1     -30.833 -10.427  27.851  0.00  0.00    +0.000 A 
ATOM      9  C   UNL A   1     -29.884 -11.429  27.495  0.00  0.00    -0.000 A 
ATOM     10  C   UNL A   1     -29.116 -11.982  28.468  0.00  0.00    -0.000 A 
ENDROOT
BRANCH   5  11
ATOM     11  C   UNL A   1     -27.382 -12.116  33.085  0.00  0.00    +0.419 C 
ATOM     12  F   UNL A   1     -26.498 -12.855  32.663  0.00  0.00    -0.166 F 
ATOM     13  F   UNL A   1     -26.689 -11.158  33.805  0.00  0.00    -0.166 F 
ATOM     14  F   UNL A   1     -28.103 -12.758  34.026  0.00  0.00    -0.166 F 
ENDBRANCH   5  11
BRANCH   3  15
ATOM     15  C   UNL A   1     -30.698  -8.662  31.802  0.00  0.00    +0.254 C 
ATOM     16 CL   UNL A   1     -31.715  -8.687  32.338  0.00  0.00    -0.038 Cl
ATOM     17  O   UNL A   1     -29.829  -7.624  31.813  0.00  0.00    -0.274 OA
ENDBRANCH   3  15
TORSDOF 2
ENDMDL
ENDMDL
