MODEL 3212
MODEL 1
REMARK VINA RESULT:    -4.281      0.000      0.000
REMARK INTER + INTRA:          -4.281
REMARK INTER:                  -4.281
REMARK INTRA:                   0.000
REMARK UNBOUND:                 0.000
REMARK  Name = No_3212-gen_results/8p0m/2024-11-26-14-13-15/
REMARK  0 active torsions:
REMARK  status: ('A' for Active; 'I' for Inactive)
REMARK                            x       y       z     vdW  Elec       q    Type
REMARK                         _______ _______ _______ _____ _____    ______ ____
ROOT
ATOM      1  C   UNL A   1     -25.036  -5.337  29.091  0.00  0.00    +0.000 A 
ATOM      2  C   UNL A   1     -26.022  -4.814  29.558  0.00  0.00    +0.000 A 
ATOM      3  C   UNL A   1     -26.124  -3.458  29.804  0.00  0.00    +0.000 A 
ATOM      4  C   UNL A   1     -25.021  -2.631  29.451  0.00  0.00    +0.000 A 
ATOM      5  C   UNL A   1     -24.014  -3.236  28.778  0.00  0.00    +0.000 A 
ATOM      6  C   UNL A   1     -24.019  -4.536  28.550  0.00  0.00    +0.000 A 
ENDROOT
TORSDOF 0
ENDMDL
ENDMDL
