MODEL 3213
MODEL 1
REMARK VINA RESULT:    -4.598      0.000      0.000
REMARK INTER + INTRA:          -4.598
REMARK INTER:                  -4.598
REMARK INTRA:                   0.000
REMARK UNBOUND:                 0.000
REMARK  Name = No_3213-gen_results/8p0m/2024-11-26-14-13-15/
REMARK  0 active torsions:
REMARK  status: ('A' for Active; 'I' for Inactive)
REMARK                            x       y       z     vdW  Elec       q    Type
REMARK                         _______ _______ _______ _____ _____    ______ ____
ROOT
ATOM      1  C   UNL A   1     -24.992  -5.117  28.998  0.00  0.00    +0.140 A 
ATOM      2  C   UNL A   1     -26.014  -4.715  29.503  0.00  0.00    +0.030 A 
ATOM      3  C   UNL A   1     -26.189  -3.417  29.943  0.00  0.00    +0.002 A 
ATOM      4  C   UNL A   1     -25.119  -2.498  29.755  0.00  0.00    +0.000 A 
ATOM      5  C   UNL A   1     -24.066  -2.951  29.034  0.00  0.00    +0.002 A 
ATOM      6  C   UNL A   1     -24.001  -4.200  28.616  0.00  0.00    +0.030 A 
ATOM      7  F   UNL A   1     -24.890  -6.381  28.538  0.00  0.00    -0.204 F 
ENDROOT
TORSDOF 0
ENDMDL
ENDMDL
