MODEL 3214
MODEL 1
REMARK VINA RESULT:    -6.402      0.000      0.000
REMARK INTER + INTRA:          -7.335
REMARK INTER:                  -7.151
REMARK INTRA:                  -0.184
REMARK UNBOUND:                -0.184
REMARK  Name = No_3214-gen_results/8p0m/2024-11-26-14-13-15/
REMARK  2 active torsions:
REMARK  status: ('A' for Active; 'I' for Inactive)
REMARK    1  A    between atoms: C_7  and  C_11
REMARK    2  A    between atoms: C_11  and  C_13
REMARK                            x       y       z     vdW  Elec       q    Type
REMARK                         _______ _______ _______ _____ _____    ______ ____
ROOT
ATOM      1  C   UNL A   1     -23.982  -4.631  28.549  0.00  0.00    -0.000 A 
ATOM      2  C   UNL A   1     -23.891  -3.428  28.642  0.00  0.00    -0.000 A 
ATOM      3  C   UNL A   1     -24.845  -2.629  29.271  0.00  0.00    -0.004 A 
ATOM      4  C   UNL A   1     -26.046  -3.247  29.799  0.00  0.00    -0.000 A 
ATOM      5  C   UNL A   1     -26.118  -4.631  29.653  0.00  0.00    -0.000 A 
ATOM      6  C   UNL A   1     -25.173  -5.310  29.033  0.00  0.00    -0.000 A 
ATOM      7  C   UNL A   1     -24.681  -1.176  29.248  0.00  0.00    -0.015 A 
ATOM      8  C   UNL A   1     -25.688  -0.416  29.788  0.00  0.00    -0.004 A 
ATOM      9  C   UNL A   1     -26.728  -1.109  30.536  0.00  0.00    -0.000 A 
ATOM     10  C   UNL A   1     -26.974  -2.449  30.459  0.00  0.00    -0.000 A 
ENDROOT
BRANCH   7  11
ATOM     11  C   UNL A   1     -23.567  -0.472  28.712  0.00  0.00    +0.087 C 
ATOM     12  C   UNL A   1     -23.651   0.296  27.618  0.00  0.00    +0.013 C 
BRANCH  11  13
ATOM     13  C   UNL A   1     -22.331  -0.466  29.485  0.00  0.00    +0.211 C 
ATOM     14  O   UNL A   1     -21.290  -1.059  28.982  0.00  0.00    -0.288 OA
ENDBRANCH  11  13
ENDBRANCH   7  11
TORSDOF 2
ENDMDL
ENDMDL
