REMARK  Name = No_3215-gen_results/8p0m/2024-11-26-14-13-15/
REMARK  0 active torsions:
REMARK  status: ('A' for Active; 'I' for Inactive)
REMARK                            x       y       z     vdW  Elec       q    Type
REMARK                         _______ _______ _______ _____ _____    ______ ____
ROOT
ATOM      1  C   UNL A   1     -28.016  -0.814  28.878  0.00  0.00    +0.135 A 
ATOM      2  C   UNL A   1     -28.469  -0.785  29.829  0.00  0.00    +0.037 A 
ATOM      3  C   UNL A   1     -28.196   0.348  28.055  0.00  0.00    +0.012 A 
ATOM      4  C   UNL A   1     -29.019   1.350  28.378  0.00  0.00    -0.001 A 
ATOM      5  C   UNL A   1     -29.411   0.180  30.378  0.00  0.00    +0.003 A 
ATOM      6  C   UNL A   1     -29.606   1.250  29.619  0.00  0.00    -0.000 A 
ATOM      7  C   UNL A   1     -27.348   0.233  26.812  0.00  0.00    +0.030 C 
ATOM      8  C   UNL A   1     -25.900   0.274  26.902  0.00  0.00    +0.012 C 
ATOM      9  C   UNL A   1     -25.240  -0.110  28.024  0.00  0.00    +0.056 C 
ATOM     10  C   UNL A   1     -23.835  -0.040  28.087  0.00  0.00    -0.024 C 
ATOM     11  C   UNL A   1     -23.119  -0.544  29.215  0.00  0.00    -0.005 C 
ATOM     12  C   UNL A   1     -23.806  -1.300  30.140  0.00  0.00    -0.006 C 
ATOM     13  C   UNL A   1     -25.145  -1.476  30.078  0.00  0.00    -0.015 C 
ATOM     14  C   UNL A   1     -25.851  -0.930  29.057  0.00  0.00    +0.152 C 
ATOM     15  O   UNL A   1     -27.482  -1.609  28.329  0.00  0.00    -0.476 OA
ATOM     16  F   UNL A   1     -26.218   0.112  29.787  0.00  0.00    -0.235 F 
ATOM     17  C   UNL A   1     -27.245  -2.843  29.070  0.00  0.00    +0.205 C 
ATOM     18  C   UNL A   1     -25.256  -2.082  28.293  0.00  0.00    +0.038 C 
ATOM     19  C   UNL A   1     -26.017  -3.338  28.667  0.00  0.00    +0.050 C 
ATOM     20  C   UNL A   1     -24.273  -2.312  27.522  0.00  0.00    +0.003 C 
ATOM     21  C   UNL A   1     -25.695  -1.938  31.233  0.00  0.00    +0.029 C 
ENDROOT
TORSDOF 0
