MODEL 3215
MODEL 1
REMARK VINA RESULT:    -7.875      0.000      0.000
REMARK INTER + INTRA:          -7.875
REMARK INTER:                  -7.875
REMARK INTRA:                   0.000
REMARK UNBOUND:                 0.000
REMARK  Name = No_3215-gen_results/8p0m/2024-11-26-14-13-15/
REMARK  0 active torsions:
REMARK  status: ('A' for Active; 'I' for Inactive)
REMARK                            x       y       z     vdW  Elec       q    Type
REMARK                         _______ _______ _______ _____ _____    ______ ____
ROOT
ATOM      1  C   UNL A   1     -25.258  -2.747  28.856  0.00  0.00    +0.135 A 
ATOM      2  C   UNL A   1     -24.364  -3.210  28.542  0.00  0.00    +0.037 A 
ATOM      3  C   UNL A   1     -26.189  -3.581  29.561  0.00  0.00    +0.012 A 
ATOM      4  C   UNL A   1     -26.036  -4.903  29.683  0.00  0.00    -0.001 A 
ATOM      5  C   UNL A   1     -23.997  -4.619  28.550  0.00  0.00    +0.003 A 
ATOM      6  C   UNL A   1     -24.858  -5.407  29.179  0.00  0.00    -0.000 A 
ATOM      7  C   UNL A   1     -27.324  -2.744  30.098  0.00  0.00    +0.030 C 
ATOM      8  C   UNL A   1     -27.089  -1.772  31.149  0.00  0.00    +0.012 C 
ATOM      9  C   UNL A   1     -25.877  -1.188  31.329  0.00  0.00    +0.056 C 
ATOM     10  C   UNL A   1     -25.675  -0.263  32.371  0.00  0.00    -0.024 C 
ATOM     11  C   UNL A   1     -24.442   0.444  32.505  0.00  0.00    -0.005 C 
ATOM     12  C   UNL A   1     -23.533   0.373  31.472  0.00  0.00    -0.006 C 
ATOM     13  C   UNL A   1     -23.718  -0.432  30.401  0.00  0.00    -0.015 C 
ATOM     14  C   UNL A   1     -24.848  -1.175  30.302  0.00  0.00    +0.152 C 
ATOM     15  O   UNL A   1     -25.681  -1.743  28.679  0.00  0.00    -0.476 OA
ATOM     16  F   UNL A   1     -24.248  -2.260  30.769  0.00  0.00    -0.235 F 
ATOM     17  C   UNL A   1     -24.820  -0.808  27.964  0.00  0.00    +0.205 C 
ATOM     18  C   UNL A   1     -25.448   0.151  29.920  0.00  0.00    +0.038 C 
ATOM     19  C   UNL A   1     -25.051   0.452  28.488  0.00  0.00    +0.050 C 
ATOM     20  C   UNL A   1     -26.092   1.101  30.463  0.00  0.00    +0.003 C 
ATOM     21  C   UNL A   1     -22.591  -0.644  29.669  0.00  0.00    +0.029 C 
ENDROOT
TORSDOF 0
ENDMDL
ENDMDL
