REMARK  Name = No_3216-gen_results/8p0m/2024-11-26-14-13-15/
REMARK  2 active torsions:
REMARK  status: ('A' for Active; 'I' for Inactive)
REMARK    1  A    between atoms: C_3  and  C_7
REMARK    2  A    between atoms: C_14  and  C_15
REMARK                            x       y       z     vdW  Elec       q    Type
REMARK                         _______ _______ _______ _____ _____    ______ ____
ROOT
ATOM      1  C   UNL A   1     -26.399   0.295  27.228  0.00  0.00    +0.255 C 
ATOM      2  N   UNL A   1     -26.030   1.448  26.758  0.00  0.00    -0.226 N 
ATOM      3  O   UNL A   1     -25.758  -0.679  26.801  0.00  0.00    -0.270 OA
ATOM      4  C   UNL A   1     -25.127   1.687  25.946  0.00  0.00    +0.101 C 
ATOM      5  C   UNL A   1     -24.091   2.723  26.286  0.00  0.00    +0.023 C 
ATOM      6  C   UNL A   1     -24.227   3.358  27.539  0.00  0.00    +0.015 C 
ATOM      7  C   UNL A   1     -26.886   2.665  27.091  0.00  0.00    +0.234 C 
ATOM      8  C   UNL A   1     -25.707   3.945  27.645  0.00  0.00    +0.088 C 
ATOM      9  C   UNL A   1     -25.876   5.045  26.594  0.00  0.00    +0.013 C 
ATOM     10  O   UNL A   1     -27.928   2.940  26.924  0.00  0.00    -0.274 OA
ENDROOT
BRANCH   8  11
ATOM     11  C   UNL A   1     -25.980   4.334  29.071  0.00  0.00    -0.011 A 
ATOM     12  C   UNL A   1     -26.973   5.311  29.144  0.00  0.00    -0.004 A 
ATOM     13  C   UNL A   1     -27.414   5.574  30.444  0.00  0.00    +0.003 A 
ATOM     14  C   UNL A   1     -26.653   5.190  31.574  0.00  0.00    +0.042 A 
ATOM     15  C   UNL A   1     -25.617   4.251  31.420  0.00  0.00    +0.195 A 
ATOM     16  C   UNL A   1     -25.269   3.856  30.131  0.00  0.00    +0.038 A 
ATOM     17  O   UNL A   1     -24.937   3.800  32.488  0.00  0.00    -0.287 OA
ENDBRANCH   8  11
BRANCH   1  20
ATOM     18  C   UNL A   1     -28.016  -0.814  28.878  0.00  0.00    +0.004 A 
ATOM     19  C   UNL A   1     -28.469  -0.785  29.829  0.00  0.00    +0.000 A 
ATOM     20  C   UNL A   1     -27.136   0.236  28.535  0.00  0.00    +0.054 A 
ATOM     21  C   UNL A   1     -26.875   1.282  29.398  0.00  0.00    +0.004 A 
ATOM     22  C   UNL A   1     -28.361   0.199  30.924  0.00  0.00    +0.000 A 
ATOM     23  C   UNL A   1     -27.528   1.223  30.636  0.00  0.00    +0.000 A 
ENDBRANCH   1  20
TORSDOF 2
