MODEL 3216
MODEL 1
REMARK VINA RESULT:    -7.112      0.000      0.000
REMARK INTER + INTRA:          -8.936
REMARK INTER:                  -7.944
REMARK INTRA:                  -0.993
REMARK UNBOUND:                -0.993
REMARK  Name = No_3216-gen_results/8p0m/2024-11-26-14-13-15/
REMARK  2 active torsions:
REMARK  status: ('A' for Active; 'I' for Inactive)
REMARK    1  A    between atoms: C_3  and  C_7
REMARK    2  A    between atoms: C_14  and  C_15
REMARK                            x       y       z     vdW  Elec       q    Type
REMARK                         _______ _______ _______ _____ _____    ______ ____
ROOT
ATOM      1  C   UNL A   1     -22.284  -0.147  29.190  0.00  0.00    +0.255 C 
ATOM      2  N   UNL A   1     -22.876  -0.048  30.342  0.00  0.00    -0.226 N 
ATOM      3  O   UNL A   1     -21.515  -1.115  29.074  0.00  0.00    -0.270 OA
ATOM      4  C   UNL A   1     -22.766  -0.793  31.323  0.00  0.00    +0.101 C 
ATOM      5  C   UNL A   1     -24.007  -1.351  31.964  0.00  0.00    +0.023 C 
ATOM      6  C   UNL A   1     -25.236  -0.976  31.380  0.00  0.00    +0.015 C 
ATOM      7  C   UNL A   1     -23.689   1.211  30.623  0.00  0.00    +0.234 C 
ATOM      8  C   UNL A   1     -25.282   0.616  31.289  0.00  0.00    +0.088 C 
ATOM      9  C   UNL A   1     -25.297   1.190  32.708  0.00  0.00    +0.013 C 
ATOM     10  O   UNL A   1     -23.466   2.278  30.655  0.00  0.00    -0.274 OA
ENDROOT
BRANCH   8  11
ATOM     11  C   UNL A   1     -26.416   1.024  30.390  0.00  0.00    -0.011 A 
ATOM     12  C   UNL A   1     -26.898   2.288  30.731  0.00  0.00    -0.004 A 
ATOM     13  C   UNL A   1     -27.816   2.810  29.815  0.00  0.00    +0.003 A 
ATOM     14  C   UNL A   1     -28.479   1.981  28.879  0.00  0.00    +0.042 A 
ATOM     15  C   UNL A   1     -27.983   0.688  28.633  0.00  0.00    +0.195 A 
ATOM     16  C   UNL A   1     -26.954   0.209  29.439  0.00  0.00    +0.038 A 
ATOM     17  O   UNL A   1     -28.536  -0.089  27.686  0.00  0.00    -0.287 OA
ENDBRANCH   8  11
BRANCH   1  20
ATOM     18  C   UNL A   1     -24.137   0.128  27.442  0.00  0.00    +0.004 A 
ATOM     19  C   UNL A   1     -24.500   0.669  26.614  0.00  0.00    +0.000 A 
ATOM     20  C   UNL A   1     -22.895   0.516  27.990  0.00  0.00    +0.054 A 
ATOM     21  C   UNL A   1     -22.159   1.560  27.464  0.00  0.00    +0.004 A 
ATOM     22  C   UNL A   1     -23.924   1.809  25.873  0.00  0.00    +0.000 A 
ATOM     23  C   UNL A   1     -22.733   2.212  26.365  0.00  0.00    +0.000 A 
ENDBRANCH   1  20
TORSDOF 2
ENDMDL
ENDMDL
