MODEL 3217
MODEL 1
REMARK VINA RESULT:    -6.154      0.000      0.000
REMARK INTER + INTRA:          -9.466
REMARK INTER:                  -7.953
REMARK INTRA:                  -1.513
REMARK UNBOUND:                -1.513
REMARK  Name = No_3217-gen_results/8p0m/2024-11-26-14-13-15/
REMARK  5 active torsions:
REMARK  status: ('A' for Active; 'I' for Inactive)
REMARK    1  A    between atoms: C_3  and  C_7
REMARK    2  A    between atoms: C_8  and  N_17
REMARK    3  A    between atoms: C_9  and  C_10
REMARK    4  A    between atoms: N_17  and  C_21
REMARK    5  A    between atoms: C_21  and  C_22
REMARK                            x       y       z     vdW  Elec       q    Type
REMARK                         _______ _______ _______ _____ _____    ______ ____
ROOT
ATOM      1  C   UNL A   1     -23.949   0.239  27.923  0.00  0.00    +0.016 A 
ATOM      2  C   UNL A   1     -22.912   0.596  28.252  0.00  0.00    +0.068 A 
ATOM      3  C   UNL A   1     -24.552   0.890  26.711  0.00  0.00    +0.020 A 
ATOM      4  C   UNL A   1     -23.522   1.554  26.051  0.00  0.00    +0.099 A 
ATOM      5  C   UNL A   1     -22.055   1.486  27.584  0.00  0.00    +0.113 A 
ATOM      6  N   UNL A   1     -22.448   1.992  26.506  0.00  0.00    -0.241 NA
ENDROOT
BRANCH   1   9
ATOM      7  C   UNL A   1     -25.935  -0.468  29.339  0.00  0.00    +0.000 A 
ATOM      8  C   UNL A   1     -26.534  -1.270  29.668  0.00  0.00    +0.000 A 
ATOM      9  C   UNL A   1     -24.787  -0.890  28.527  0.00  0.00    +0.001 A 
ATOM     10  C   UNL A   1     -24.444  -2.171  28.383  0.00  0.00    +0.000 A 
ATOM     11  C   UNL A   1     -26.361  -2.702  29.655  0.00  0.00    +0.000 A 
ATOM     12  C   UNL A   1     -25.276  -3.073  28.917  0.00  0.00    +0.000 A 
ENDBRANCH   1   9
BRANCH   3  13
ATOM     13  C   UNL A   1     -25.732   0.520  26.105  0.00  0.00    +0.002 A 
ATOM     14  C   UNL A   1     -25.836  -0.377  25.082  0.00  0.00    +0.000 A 
ATOM     15  C   UNL A   1     -27.029  -0.623  24.420  0.00  0.00    +0.000 A 
ATOM     16  C   UNL A   1     -28.219   0.002  24.816  0.00  0.00    +0.000 A 
ATOM     17  C   UNL A   1     -28.144   0.949  25.836  0.00  0.00    +0.000 A 
ATOM     18  C   UNL A   1     -26.935   1.183  26.469  0.00  0.00    +0.000 A 
ENDBRANCH   3  13
BRANCH   2  19
ATOM     19  N   UNL A   1     -22.270   0.069  29.396  0.00  0.00    -0.301 N 
ATOM     20  C   UNL A   1     -21.271  -0.720  29.295  0.00  0.00    +0.113 C 
BRANCH  19  21
ATOM     21  C   UNL A   1     -22.842   0.315  30.674  0.00  0.00    +0.117 C 
BRANCH  21  22
ATOM     22  C   UNL A   1     -22.775  -0.753  31.593  0.00  0.00    -0.005 C 
ATOM     23  C   UNL A   1     -23.873  -0.918  32.345  0.00  0.00    -0.003 C 
ENDBRANCH  21  22
ENDBRANCH  19  21
ENDBRANCH   2  19
TORSDOF 5
ENDMDL
ENDMDL
