REMARK  Name = No_3217-gen_results/8p0m/2024-11-26-14-13-15/
REMARK  5 active torsions:
REMARK  status: ('A' for Active; 'I' for Inactive)
REMARK    1  A    between atoms: C_3  and  C_7
REMARK    2  A    between atoms: C_8  and  N_17
REMARK    3  A    between atoms: C_9  and  C_10
REMARK    4  A    between atoms: N_17  and  C_21
REMARK    5  A    between atoms: C_21  and  C_22
REMARK                            x       y       z     vdW  Elec       q    Type
REMARK                         _______ _______ _______ _____ _____    ______ ____
ROOT
ATOM      1  C   UNL A   1     -27.445   0.487  26.773  0.00  0.00    +0.016 A 
ATOM      2  C   UNL A   1     -27.863   0.805  25.756  0.00  0.00    +0.068 A 
ATOM      3  C   UNL A   1     -25.983   0.151  26.845  0.00  0.00    +0.020 A 
ATOM      4  C   UNL A   1     -25.392   0.657  25.692  0.00  0.00    +0.099 A 
ATOM      5  C   UNL A   1     -27.151   1.056  24.572  0.00  0.00    +0.113 A 
ATOM      6  N   UNL A   1     -25.907   0.898  24.583  0.00  0.00    -0.241 NA
ENDROOT
BRANCH   1   9
ATOM      7  C   UNL A   1     -28.016  -0.814  28.878  0.00  0.00    +0.000 A 
ATOM      8  C   UNL A   1     -28.469  -0.785  29.829  0.00  0.00    +0.000 A 
ATOM      9  C   UNL A   1     -28.182   0.428  28.113  0.00  0.00    +0.001 A 
ATOM     10  C   UNL A   1     -28.984   1.415  28.515  0.00  0.00    +0.000 A 
ATOM     11  C   UNL A   1     -29.380   0.138  30.461  0.00  0.00    +0.000 A 
ATOM     12  C   UNL A   1     -29.541   1.274  29.724  0.00  0.00    +0.000 A 
ENDBRANCH   1   9
BRANCH   3  13
ATOM     13  C   UNL A   1     -25.283  -0.144  27.994  0.00  0.00    +0.002 A 
ATOM     14  C   UNL A   1     -24.507   0.742  28.684  0.00  0.00    +0.000 A 
ATOM     15  C   UNL A   1     -23.721   0.367  29.763  0.00  0.00    +0.000 A 
ATOM     16  C   UNL A   1     -23.733  -0.949  30.245  0.00  0.00    +0.000 A 
ATOM     17  C   UNL A   1     -24.489  -1.887  29.545  0.00  0.00    +0.000 A 
ATOM     18  C   UNL A   1     -25.253  -1.485  28.462  0.00  0.00    +0.000 A 
ENDBRANCH   3  13
BRANCH   2  19
ATOM     19  N   UNL A   1     -29.231   1.113  25.575  0.00  0.00    -0.301 N 
ATOM     20  C   UNL A   1     -29.648   2.321  25.582  0.00  0.00    +0.113 C 
BRANCH  19  21
ATOM     21  C   UNL A   1     -30.171   0.048  25.527  0.00  0.00    +0.117 C 
BRANCH  21  22
ATOM     22  C   UNL A   1     -31.491   0.376  25.899  0.00  0.00    -0.005 C 
ATOM     23  C   UNL A   1     -32.129  -0.571  26.602  0.00  0.00    -0.003 C 
ENDBRANCH  21  22
ENDBRANCH  19  21
ENDBRANCH   2  19
TORSDOF 5
