MODEL 3218
MODEL 1
REMARK VINA RESULT:    -5.203      0.000      0.000
REMARK INTER + INTRA:          -5.559
REMARK INTER:                  -5.507
REMARK INTRA:                  -0.052
REMARK UNBOUND:                -0.052
REMARK  Name = No_3218-gen_results/8p0m/2024-11-26-14-13-15/
REMARK  1 active torsions:
REMARK  status: ('A' for Active; 'I' for Inactive)
REMARK    1  A    between atoms: C_2  and  C_7
REMARK                            x       y       z     vdW  Elec       q    Type
REMARK                         _______ _______ _______ _____ _____    ______ ____
ROOT
ATOM      1  C   UNL A   1      -9.303  -9.225  19.976  0.00  0.00    +0.006 A 
ATOM      2  C   UNL A   1      -8.431  -9.757  19.717  0.00  0.00    +0.068 A 
ATOM      3  C   UNL A   1     -10.438  -9.313  18.980  0.00  0.00    +0.000 A 
ATOM      4  C   UNL A   1     -10.324 -10.185  17.877  0.00  0.00    +0.000 A 
ATOM      5  C   UNL A   1      -8.071 -10.743  18.673  0.00  0.00    +0.006 A 
ATOM      6  C   UNL A   1      -9.094 -10.855  17.742  0.00  0.00    +0.000 A 
ENDROOT
BRANCH   2   7
ATOM      7  C   UNL A   1      -7.141  -9.833  20.699  0.00  0.00    +0.333 C 
ATOM      8  O   UNL A   1      -6.203  -9.351  20.283  0.00  0.00    -0.254 OA
ATOM      9  F   UNL A   1      -7.205 -10.305  21.905  0.00  0.00    -0.159 F 
ENDBRANCH   2   7
TORSDOF 1
ENDMDL
ENDMDL
