REMARK  Name = No_3219-gen_results/8p0m/2024-11-26-14-13-15/
REMARK  2 active torsions:
REMARK  status: ('A' for Active; 'I' for Inactive)
REMARK    1  A    between atoms: C_1  and  C_2
REMARK    2  A    between atoms: C_1  and  C_3
REMARK                            x       y       z     vdW  Elec       q    Type
REMARK                         _______ _______ _______ _____ _____    ______ ____
ROOT
ATOM      1  C   UNL A   1     -28.016  -0.814  28.878  0.00  0.00    +0.348 C 
ATOM      2  F   UNL A   1     -28.340  -0.126  27.886  0.00  0.00    -0.219 F 
ENDROOT
BRANCH   1   3
ATOM      3  C   UNL A   1     -28.469  -0.785  29.829  0.00  0.00    +0.436 C 
ATOM      4  F   UNL A   1     -27.809  -0.971  30.819  0.00  0.00    -0.167 F 
ATOM      5  F   UNL A   1     -29.611  -1.724  29.943  0.00  0.00    -0.167 F 
ATOM      6  F   UNL A   1     -29.303   0.334  29.953  0.00  0.00    -0.167 F 
ENDBRANCH   1   3
BRANCH   1   7
ATOM      7  C   UNL A   1     -26.504  -0.778  28.877  0.00  0.00    +0.436 C 
ATOM      8  F   UNL A   1     -26.008  -0.379  27.773  0.00  0.00    -0.167 F 
ATOM      9  F   UNL A   1     -25.980  -2.027  29.070  0.00  0.00    -0.167 F 
ATOM     10  F   UNL A   1     -25.907  -0.029  29.817  0.00  0.00    -0.167 F 
ENDBRANCH   1   7
TORSDOF 2
