MODEL 3219
MODEL 1
REMARK VINA RESULT:    -5.460      0.000      0.000
REMARK INTER + INTRA:          -6.238
REMARK INTER:                  -6.098
REMARK INTRA:                  -0.139
REMARK UNBOUND:                -0.139
REMARK  Name = No_3219-gen_results/8p0m/2024-11-26-14-13-15/
REMARK  2 active torsions:
REMARK  status: ('A' for Active; 'I' for Inactive)
REMARK    1  A    between atoms: C_1  and  C_2
REMARK    2  A    between atoms: C_1  and  C_3
REMARK                            x       y       z     vdW  Elec       q    Type
REMARK                         _______ _______ _______ _____ _____    ______ ____
ROOT
ATOM      1  C   UNL A   1      -9.550  -9.622  18.366  0.00  0.00    +0.348 C 
ATOM      2  F   UNL A   1     -10.658  -9.645  18.943  0.00  0.00    -0.219 F 
ENDROOT
BRANCH   1   3
ATOM      3  C   UNL A   1      -9.264 -10.218  17.545  0.00  0.00    +0.436 C 
ATOM      4  F   UNL A   1      -8.314  -9.907  16.873  0.00  0.00    -0.167 F 
ATOM      5  F   UNL A   1     -10.371 -10.421  16.578  0.00  0.00    -0.167 F 
ATOM      6  F   UNL A   1      -9.243 -11.575  17.893  0.00  0.00    -0.167 F 
ENDBRANCH   1   3
BRANCH   1   7
ATOM      7  C   UNL A   1      -8.545  -9.546  19.494  0.00  0.00    +0.436 C 
ATOM      8  F   UNL A   1      -9.083  -9.439  20.644  0.00  0.00    -0.167 F 
ATOM      9  F   UNL A   1      -7.747  -8.441  19.371  0.00  0.00    -0.167 F 
ATOM     10  F   UNL A   1      -7.675 -10.561  19.611  0.00  0.00    -0.167 F 
ENDBRANCH   1   7
TORSDOF 2
ENDMDL
ENDMDL
