MODEL 3220
MODEL 1
REMARK VINA RESULT:    -5.155      0.000      0.000
REMARK INTER + INTRA:          -5.505
REMARK INTER:                  -5.456
REMARK INTRA:                  -0.049
REMARK UNBOUND:                -0.049
REMARK  Name = No_3220-gen_results/8p0m/2024-11-26-14-13-15/
REMARK  1 active torsions:
REMARK  status: ('A' for Active; 'I' for Inactive)
REMARK    1  A    between atoms: C_5  and  C_8
REMARK                            x       y       z     vdW  Elec       q    Type
REMARK                         _______ _______ _______ _____ _____    ______ ____
ROOT
ATOM      1 CL   UNL A   1     -27.195  -4.497  29.949  0.00  0.00    -0.081 Cl
ATOM      2  C   UNL A   1     -26.001  -3.728  29.701  0.00  0.00    +0.068 A 
ATOM      3  C   UNL A   1     -24.983  -4.085  29.228  0.00  0.00    +0.068 A 
ATOM      4  C   UNL A   1     -23.823  -3.227  28.999  0.00  0.00    +0.019 A 
ATOM      5  C   UNL A   1     -23.879  -1.860  29.412  0.00  0.00    +0.081 A 
ATOM      6  C   UNL A   1     -25.053  -1.455  29.961  0.00  0.00    +0.007 A 
ATOM      7  C   UNL A   1     -26.093  -2.289  30.118  0.00  0.00    +0.013 A 
ATOM      8 CL   UNL A   1     -24.691  -5.689  28.632  0.00  0.00    -0.081 Cl
ENDROOT
BRANCH   5   9
ATOM      9  C   UNL A   1     -22.719  -0.972  29.266  0.00  0.00    +0.388 C 
ATOM     10  O   UNL A   1     -21.664  -1.295  29.004  0.00  0.00    -0.241 OA
ATOM     11  O   UNL A   1     -22.913   0.285  29.801  0.00  0.00    -0.241 OA
ENDBRANCH   5   9
TORSDOF 1
ENDMDL
ENDMDL
