REMARK  Name = No_3220-gen_results/8p0m/2024-11-26-14-13-15/
REMARK  1 active torsions:
REMARK  status: ('A' for Active; 'I' for Inactive)
REMARK    1  A    between atoms: C_5  and  C_8
REMARK                            x       y       z     vdW  Elec       q    Type
REMARK                         _______ _______ _______ _____ _____    ______ ____
ROOT
ATOM      1 CL   UNL A   1     -28.149  -0.820  28.908  0.00  0.00    -0.081 Cl
ATOM      2  C   UNL A   1     -26.912  -0.080  28.945  0.00  0.00    +0.068 A 
ATOM      3  C   UNL A   1     -26.738   1.044  29.253  0.00  0.00    +0.068 A 
ATOM      4  C   UNL A   1     -25.439   1.712  29.276  0.00  0.00    +0.019 A 
ATOM      5  C   UNL A   1     -24.281   0.989  28.854  0.00  0.00    +0.081 A 
ATOM      6  C   UNL A   1     -24.487  -0.304  28.496  0.00  0.00    +0.007 A 
ATOM      7  C   UNL A   1     -25.705  -0.867  28.524  0.00  0.00    +0.013 A 
ATOM      8 CL   UNL A   1     -27.988   2.106  29.821  0.00  0.00    -0.081 Cl
ENDROOT
BRANCH   5   9
ATOM      9  C   UNL A   1     -22.962   1.632  28.795  0.00  0.00    +0.388 C 
ATOM     10  O   UNL A   1     -22.768   2.736  28.624  0.00  0.00    -0.241 OA
ATOM     11  O   UNL A   1     -21.920   0.743  28.628  0.00  0.00    -0.241 OA
ENDBRANCH   5   9
TORSDOF 1
