REMARK  Name = No_3221-gen_results/8p0m/2024-11-26-14-13-15/
REMARK  1 active torsions:
REMARK  status: ('A' for Active; 'I' for Inactive)
REMARK    1  A    between atoms: C_11  and  C_12
REMARK                            x       y       z     vdW  Elec       q    Type
REMARK                         _______ _______ _______ _____ _____    ______ ____
ROOT
ATOM      1  C   UNL A   1     -28.016  -0.814  28.878  0.00  0.00    +0.050 A 
ATOM      2  C   UNL A   1     -28.469  -0.785  29.829  0.00  0.00    +0.249 C 
ATOM      3  C   UNL A   1     -26.504  -0.778  28.877  0.00  0.00    +0.004 A 
ATOM      4  C   UNL A   1     -25.762  -0.002  27.971  0.00  0.00    +0.000 A 
ATOM      5  C   UNL A   1     -26.093   0.613  27.095  0.00  0.00    -0.000 A 
ATOM      6  C   UNL A   1     -27.555   0.585  26.805  0.00  0.00    -0.004 A 
ATOM      7  C   UNL A   1     -28.341   0.044  27.727  0.00  0.00    -0.012 A 
ATOM      8  N   UNL A   1     -29.646  -0.457  30.143  0.00  0.00    -0.274 N 
ATOM      9  O   UNL A   1     -28.039  -1.715  30.864  0.00  0.00    -0.270 OA
ATOM     10  C   UNL A   1     -30.313   0.516  29.363  0.00  0.00    +0.102 C 
ATOM     11  C   UNL A   1     -29.779   0.597  28.022  0.00  0.00    +0.068 C 
ATOM     12  C   UNL A   1     -30.458  -0.696  31.467  0.00  0.00    +0.115 C 
ENDROOT
BRANCH  11  13
ATOM     13  C   UNL A   1     -30.457   1.062  26.881  0.00  0.00    +0.022 A 
ATOM     14  C   UNL A   1     -30.528   2.397  26.896  0.00  0.00    -0.001 A 
ATOM     15  C   UNL A   1     -31.796   0.418  26.720  0.00  0.00    +0.192 A 
ATOM     16  C   UNL A   1     -32.398   0.791  25.704  0.00  0.00    +0.042 A 
ATOM     17  C   UNL A   1     -31.181   2.972  25.618  0.00  0.00    -0.000 A 
ATOM     18  C   UNL A   1     -32.545   2.320  25.417  0.00  0.00    +0.003 A 
ATOM     19  O   UNL A   1     -31.622  -1.069  26.770  0.00  0.00    -0.287 OA
ENDBRANCH  11  13
TORSDOF 1
