MODEL 3222
MODEL 1
REMARK VINA RESULT:    -9.213      0.000      0.000
REMARK INTER + INTRA:         -13.245
REMARK INTER:                 -11.906
REMARK INTRA:                  -1.339
REMARK UNBOUND:                -1.339
REMARK  Name = No_3222-gen_results/8p0m/2024-11-26-14-13-15/
REMARK  5 active torsions:
REMARK  status: ('A' for Active; 'I' for Inactive)
REMARK    1  A    between atoms: C_2  and  O_15
REMARK    2  A    between atoms: C_4  and  C_6
REMARK    3  A    between atoms: C_14  and  C_17
REMARK    4  A    between atoms: O_15  and  C_16
REMARK    5  A    between atoms: C_16  and  C_23
REMARK                            x       y       z     vdW  Elec       q    Type
REMARK                         _______ _______ _______ _____ _____    ______ ____
ROOT
ATOM      1  C   UNL A   1     -25.212   0.219  33.272  0.00  0.00    +0.037 A 
ATOM      2  C   UNL A   1     -24.600  -0.575  33.596  0.00  0.00    +0.139 A 
ATOM      3  C   UNL A   1     -24.781   0.931  32.058  0.00  0.00    +0.003 A 
ATOM      4  C   UNL A   1     -23.669   0.462  31.300  0.00  0.00    -0.000 A 
ATOM      5  C   UNL A   1     -23.449  -1.285  32.974  0.00  0.00    +0.037 A 
ATOM      6  C   UNL A   1     -23.022  -0.662  31.812  0.00  0.00    +0.003 A 
ENDROOT
BRANCH   4   7
ATOM      7  C   UNL A   1     -23.208   1.098  30.134  0.00  0.00    -0.008 C 
ATOM      8  C   UNL A   1     -23.100   0.492  28.970  0.00  0.00    -0.040 C 
ATOM      9  C   UNL A   1     -22.792   1.221  27.734  0.00  0.00    +0.048 C 
ATOM     10  C   UNL A   1     -23.754   1.346  26.816  0.00  0.00    -0.026 C 
ATOM     11  C   UNL A   1     -24.739   0.340  26.532  0.00  0.00    -0.030 C 
ATOM     12  C   UNL A   1     -25.048  -0.524  27.652  0.00  0.00    +0.030 C 
ATOM     13  C   UNL A   1     -23.094  -0.967  28.750  0.00  0.00    +0.027 C 
ATOM     14  C   UNL A   1     -24.362  -1.300  28.362  0.00  0.00    +0.031 C 
BRANCH  14  15
ATOM     15  C   UNL A   1     -24.777  -2.671  28.834  0.00  0.00    -0.022 A 
ATOM     16  C   UNL A   1     -25.975  -2.867  29.426  0.00  0.00    -0.004 A 
ATOM     17  C   UNL A   1     -26.356  -4.181  29.801  0.00  0.00    -0.000 A 
ATOM     18  C   UNL A   1     -25.537  -5.293  29.372  0.00  0.00    -0.000 A 
ATOM     19  C   UNL A   1     -23.941  -3.795  28.509  0.00  0.00    -0.004 A 
ATOM     20  C   UNL A   1     -24.326  -5.039  28.739  0.00  0.00    -0.000 A 
ENDBRANCH  14  15
ENDBRANCH   4   7
BRANCH   2  21
ATOM     21  O   UNL A   1     -24.995  -1.316  34.813  0.00  0.00    -0.471 OA
BRANCH  21  22
ATOM     22  C   UNL A   1     -25.475  -0.644  35.781  0.00  0.00    +0.232 C 
BRANCH  22  23
ATOM     23  C   UNL A   1     -25.583  -1.256  37.079  0.00  0.00    +0.021 A 
ATOM     24  C   UNL A   1     -26.034  -2.241  37.290  0.00  0.00    -0.001 A 
ATOM     25  C   UNL A   1     -26.157  -2.903  38.638  0.00  0.00    -0.000 A 
ATOM     26  C   UNL A   1     -25.641  -2.115  39.666  0.00  0.00    -0.000 A 
ATOM     27  C   UNL A   1     -25.098  -0.915  39.483  0.00  0.00    -0.000 A 
ATOM     28  C   UNL A   1     -24.993  -0.399  38.164  0.00  0.00    -0.001 A 
ENDBRANCH  22  23
ENDBRANCH  21  22
ENDBRANCH   2  21
TORSDOF 5
ENDMDL
ENDMDL
