REMARK  Name = No_3222-gen_results/8p0m/2024-11-26-14-13-15/
REMARK  5 active torsions:
REMARK  status: ('A' for Active; 'I' for Inactive)
REMARK    1  A    between atoms: C_2  and  O_15
REMARK    2  A    between atoms: C_4  and  C_6
REMARK    3  A    between atoms: C_14  and  C_17
REMARK    4  A    between atoms: O_15  and  C_16
REMARK    5  A    between atoms: C_16  and  C_23
REMARK                            x       y       z     vdW  Elec       q    Type
REMARK                         _______ _______ _______ _____ _____    ______ ____
ROOT
ATOM      1  C   UNL A   1     -28.016  -0.814  28.878  0.00  0.00    +0.037 A 
ATOM      2  C   UNL A   1     -28.469  -0.785  29.829  0.00  0.00    +0.139 A 
ATOM      3  C   UNL A   1     -26.546  -0.876  28.850  0.00  0.00    +0.003 A 
ATOM      4  C   UNL A   1     -25.804  -1.032  30.057  0.00  0.00    -0.000 A 
ATOM      5  C   UNL A   1     -27.944  -0.987  31.207  0.00  0.00    +0.037 A 
ATOM      6  C   UNL A   1     -26.561  -1.075  31.227  0.00  0.00    +0.003 A 
ENDROOT
BRANCH   4   7
ATOM      7  C   UNL A   1     -24.401  -1.097  30.096  0.00  0.00    -0.008 C 
ATOM      8  C   UNL A   1     -23.634  -0.892  29.046  0.00  0.00    -0.040 C 
ATOM      9  C   UNL A   1     -22.174  -0.786  29.151  0.00  0.00    +0.048 C 
ATOM     10  C   UNL A   1     -21.609   0.408  28.950  0.00  0.00    -0.026 C 
ATOM     11  C   UNL A   1     -22.081   1.378  28.001  0.00  0.00    -0.030 C 
ATOM     12  C   UNL A   1     -23.500   1.300  27.725  0.00  0.00    +0.030 C 
ATOM     13  C   UNL A   1     -24.072  -0.911  27.637  0.00  0.00    +0.027 C 
ATOM     14  C   UNL A   1     -24.246   0.396  27.273  0.00  0.00    +0.031 C 
BRANCH  14  15
ATOM     15  C   UNL A   1     -25.359   0.581  26.272  0.00  0.00    -0.022 A 
ATOM     16  C   UNL A   1     -25.512  -0.277  25.241  0.00  0.00    -0.004 A 
ATOM     17  C   UNL A   1     -26.607  -0.107  24.355  0.00  0.00    -0.000 A 
ATOM     18  C   UNL A   1     -27.629   0.861  24.688  0.00  0.00    -0.000 A 
ATOM     19  C   UNL A   1     -26.346   1.597  26.518  0.00  0.00    -0.004 A 
ATOM     20  C   UNL A   1     -27.438   1.701  25.779  0.00  0.00    -0.000 A 
ENDBRANCH  14  15
ENDBRANCH   4   7
BRANCH   2  21
ATOM     21  O   UNL A   1     -29.944  -0.720  29.903  0.00  0.00    -0.471 OA
BRANCH  21  22
ATOM     22  C   UNL A   1     -30.557  -0.149  28.945  0.00  0.00    +0.232 C 
BRANCH  22  23
ATOM     23  C   UNL A   1     -31.915   0.288  29.137  0.00  0.00    +0.021 A 
ATOM     24  C   UNL A   1     -32.502   0.174  30.064  0.00  0.00    -0.001 A 
ATOM     25  C   UNL A   1     -33.922   0.624  30.290  0.00  0.00    -0.000 A 
ATOM     26  C   UNL A   1     -34.478   1.217  29.156  0.00  0.00    -0.000 A 
ATOM     27  C   UNL A   1     -33.831   1.372  28.005  0.00  0.00    -0.000 A 
ATOM     28  C   UNL A   1     -32.479   0.949  27.910  0.00  0.00    -0.001 A 
ENDBRANCH  22  23
ENDBRANCH  21  22
ENDBRANCH   2  21
TORSDOF 5
