MODEL 3223
MODEL 1
REMARK VINA RESULT:    -4.001      0.000      0.000
REMARK INTER + INTRA:          -4.001
REMARK INTER:                  -4.001
REMARK INTRA:                   0.000
REMARK UNBOUND:                 0.000
REMARK  Name = No_3223-gen_results/8p0m/2024-11-26-14-13-15/
REMARK  0 active torsions:
REMARK  status: ('A' for Active; 'I' for Inactive)
REMARK                            x       y       z     vdW  Elec       q    Type
REMARK                         _______ _______ _______ _____ _____    ______ ____
ROOT
ATOM      1  C   UNL A   1     -25.213  -4.163  29.159  0.00  0.00    +0.012 A 
ATOM      2  C   UNL A   1     -25.940  -3.633  29.708  0.00  0.00    +0.058 A 
ATOM      3  C   UNL A   1     -23.953  -3.391  28.835  0.00  0.00    +0.012 A 
ATOM      4  C   UNL A   1     -23.767  -2.107  29.389  0.00  0.00    +0.058 A 
ATOM      5  C   UNL A   1     -25.983  -2.335  30.418  0.00  0.00    +0.012 A 
ATOM      6  C   UNL A   1     -24.837  -1.599  30.149  0.00  0.00    +0.012 A 
ATOM      7 CL   UNL A   1     -22.430  -1.205  29.054  0.00  0.00    -0.082 Cl
ATOM      8 CL   UNL A   1     -27.481  -4.587  30.113  0.00  0.00    -0.082 Cl
ENDROOT
TORSDOF 0
ENDMDL
ENDMDL
