MODEL 3224
MODEL 1
REMARK VINA RESULT:    -6.572      0.000      0.000
REMARK INTER + INTRA:          -7.356
REMARK INTER:                  -6.956
REMARK INTRA:                  -0.400
REMARK UNBOUND:                -0.400
REMARK  Name = No_3224-gen_results/8p0m/2024-11-26-14-13-15/
REMARK  1 active torsions:
REMARK  status: ('A' for Active; 'I' for Inactive)
REMARK    1  A    between atoms: C_3  and  C_7
REMARK                            x       y       z     vdW  Elec       q    Type
REMARK                         _______ _______ _______ _____ _____    ______ ____
ROOT
ATOM      1  C   UNL A   1     -23.846  -3.884  28.559  0.00  0.00    +0.000 A 
ATOM      2  C   UNL A   1     -24.335  -4.799  28.744  0.00  0.00    +0.000 A 
ATOM      3  C   UNL A   1     -24.500  -2.696  28.954  0.00  0.00    +0.000 A 
ATOM      4  C   UNL A   1     -25.744  -2.711  29.552  0.00  0.00    +0.000 A 
ATOM      5  C   UNL A   1     -25.644  -5.091  29.361  0.00  0.00    +0.000 A 
ATOM      6  C   UNL A   1     -26.304  -3.979  29.753  0.00  0.00    +0.000 A 
ENDROOT
BRANCH   3   7
ATOM      7  C   UNL A   1     -23.894  -1.330  28.793  0.00  0.00    +0.000 A 
ATOM      8  C   UNL A   1     -24.472  -0.502  28.078  0.00  0.00    +0.000 A 
ATOM      9  C   UNL A   1     -23.685   0.566  27.405  0.00  0.00    +0.000 A 
ATOM     10  C   UNL A   1     -22.429   0.827  27.996  0.00  0.00    +0.000 A 
ATOM     11  C   UNL A   1     -22.576  -1.052  29.212  0.00  0.00    +0.000 A 
ATOM     12  C   UNL A   1     -21.888  -0.029  28.821  0.00  0.00    +0.000 A 
ENDBRANCH   3   7
TORSDOF 1
ENDMDL
ENDMDL
