MODEL 3225
MODEL 1
REMARK VINA RESULT:    -5.300      0.000      0.000
REMARK INTER + INTRA:          -5.835
REMARK INTER:                  -5.610
REMARK INTRA:                  -0.225
REMARK UNBOUND:                -0.225
REMARK  Name = No_3225-gen_results/8p0m/2024-11-26-14-13-15/
REMARK  1 active torsions:
REMARK  status: ('A' for Active; 'I' for Inactive)
REMARK    1  A    between atoms: C_3  and  C_4
REMARK                            x       y       z     vdW  Elec       q    Type
REMARK                         _______ _______ _______ _____ _____    ______ ____
ROOT
ATOM      1  C   UNL A   1      -8.470  -9.754  19.771  0.00  0.00    +0.004 A 
ATOM      2  C   UNL A   1      -7.762  -9.083  20.169  0.00  0.00    -0.000 A 
ATOM      3  C   UNL A   1      -8.744  -9.679  18.388  0.00  0.00    +0.071 A 
ATOM      4  C   UNL A   1      -6.970  -8.015  19.533  0.00  0.00    -0.000 A 
ATOM      5  C   UNL A   1      -7.192  -7.881  18.163  0.00  0.00    -0.000 A 
ATOM      6  C   UNL A   1      -8.047  -8.735  17.543  0.00  0.00    +0.004 A 
ENDROOT
BRANCH   3   7
ATOM      7  C   UNL A   1      -9.630 -10.620  17.652  0.00  0.00    +0.419 C 
ATOM      8  F   UNL A   1     -10.718 -10.452  18.045  0.00  0.00    -0.166 F 
ATOM      9  F   UNL A   1      -9.274 -11.876  18.028  0.00  0.00    -0.166 F 
ATOM     10  F   UNL A   1      -9.517 -10.503  16.307  0.00  0.00    -0.166 F 
ENDBRANCH   3   7
TORSDOF 1
ENDMDL
ENDMDL
