MODEL 3226
MODEL 1
REMARK VINA RESULT:    -4.929      0.000      0.000
REMARK INTER + INTRA:          -5.596
REMARK INTER:                  -5.505
REMARK INTRA:                  -0.091
REMARK UNBOUND:                -0.091
REMARK  Name = No_3226-gen_results/8p0m/2024-11-26-14-13-15/
REMARK  2 active torsions:
REMARK  status: ('A' for Active; 'I' for Inactive)
REMARK    1  A    between atoms: C_2  and  C_3
REMARK    2  A    between atoms: C_2  and  C_7
REMARK                            x       y       z     vdW  Elec       q    Type
REMARK                         _______ _______ _______ _____ _____    ______ ____
ROOT
ATOM      1 CL   UNL A   1      -9.923  -9.040  20.302  0.00  0.00    -0.106 Cl
ATOM      2  C   UNL A   1      -8.840  -9.406  19.561  0.00  0.00    +0.174 C 
ENDROOT
BRANCH   2   3
ATOM      3  C   UNL A   1      -8.999 -10.093  18.397  0.00  0.00    +0.411 C 
ATOM      4  F   UNL A   1      -8.575  -9.489  17.364  0.00  0.00    -0.169 F 
ATOM      5  F   UNL A   1      -8.249 -11.276  18.423  0.00  0.00    -0.169 F 
ATOM      6  F   UNL A   1     -10.305 -10.427  18.208  0.00  0.00    -0.169 F 
ENDBRANCH   2   3
BRANCH   2   7
ATOM      7  C   UNL A   1      -7.517  -8.945  19.953  0.00  0.00    +0.025 C 
ATOM      8  C   UNL A   1      -7.018  -7.925  19.618  0.00  0.00    +0.002 C 
ENDBRANCH   2   7
TORSDOF 2
ENDMDL
ENDMDL
