REMARK  Name = No_3226-gen_results/8p0m/2024-11-26-14-13-15/
REMARK  2 active torsions:
REMARK  status: ('A' for Active; 'I' for Inactive)
REMARK    1  A    between atoms: C_2  and  C_3
REMARK    2  A    between atoms: C_2  and  C_7
REMARK                            x       y       z     vdW  Elec       q    Type
REMARK                         _______ _______ _______ _____ _____    ______ ____
ROOT
ATOM      1 CL   UNL A   1     -28.149  -0.820  28.908  0.00  0.00    -0.106 Cl
ATOM      2  C   UNL A   1     -27.834   0.496  29.060  0.00  0.00    +0.174 C 
ENDROOT
BRANCH   2   3
ATOM      3  C   UNL A   1     -27.602   1.013  30.297  0.00  0.00    +0.411 C 
ATOM      4  F   UNL A   1     -27.372   2.262  30.314  0.00  0.00    -0.169 F 
ATOM      5  F   UNL A   1     -28.737   0.872  31.105  0.00  0.00    -0.169 F 
ATOM      6  F   UNL A   1     -26.570   0.366  30.905  0.00  0.00    -0.169 F 
ENDBRANCH   2   3
BRANCH   2   7
ATOM      7  C   UNL A   1     -27.618   1.320  27.880  0.00  0.00    +0.025 C 
ATOM      8  C   UNL A   1     -26.825   2.195  27.789  0.00  0.00    +0.002 C 
ENDBRANCH   2   7
TORSDOF 2
