MODEL 3227
MODEL 1
REMARK VINA RESULT:    -5.015      0.000      0.000
REMARK INTER + INTRA:          -5.015
REMARK INTER:                  -5.015
REMARK INTRA:                   0.000
REMARK UNBOUND:                 0.000
REMARK  Name = No_3227-gen_results/8p0m/2024-11-26-14-13-15/
REMARK  0 active torsions:
REMARK  status: ('A' for Active; 'I' for Inactive)
REMARK                            x       y       z     vdW  Elec       q    Type
REMARK                         _______ _______ _______ _____ _____    ______ ____
ROOT
ATOM      1  C   UNL A   1     -10.384  -9.287  19.125  0.00  0.00    +0.042 A 
ATOM      2  C   UNL A   1      -9.584  -9.129  20.018  0.00  0.00    +0.003 A 
ATOM      3  C   UNL A   1      -8.339  -9.746  19.985  0.00  0.00    +0.000 A 
ATOM      4  C   UNL A   1      -7.980 -10.631  18.907  0.00  0.00    +0.003 A 
ATOM      5  C   UNL A   1      -8.973 -10.776  17.929  0.00  0.00    +0.042 A 
ATOM      6  C   UNL A   1     -10.141 -10.182  18.016  0.00  0.00    +0.196 A 
ATOM      7  O   UNL A   1     -11.065 -10.407  17.042  0.00  0.00    -0.287 OA
ENDROOT
TORSDOF 0
ENDMDL
ENDMDL
