REMARK  Name = No_3228-gen_results/8p0m/2024-11-26-14-13-15/
REMARK  2 active torsions:
REMARK  status: ('A' for Active; 'I' for Inactive)
REMARK    1  A    between atoms: C_6  and  C_9
REMARK    2  A    between atoms: C_10  and  C_11
REMARK                            x       y       z     vdW  Elec       q    Type
REMARK                         _______ _______ _______ _____ _____    ______ ____
ROOT
ATOM      1  O   UNL A   1     -28.123  -1.335  28.487  0.00  0.00    -0.269 OA
ATOM      2  C   UNL A   1     -28.521  -0.436  29.078  0.00  0.00    +0.261 C 
ATOM      3  C   UNL A   1     -29.698   0.051  28.976  0.00  0.00    +0.033 C 
ATOM      4  N   UNL A   1     -27.541   0.176  30.005  0.00  0.00    -0.202 NA
ATOM      5  C   UNL A   1     -27.889   1.266  30.818  0.00  0.00    +0.116 C 
ATOM      6  C   UNL A   1     -30.576  -0.334  28.113  0.00  0.00    +0.000 C 
ATOM      7  C   UNL A   1     -29.170   1.701  30.638  0.00  0.00    +0.028 C 
ATOM      8  C   UNL A   1     -30.059   1.241  29.806  0.00  0.00    +0.033 C 
ENDROOT
BRANCH   6   9
ATOM      9  C   UNL A   1     -31.701   0.477  27.663  0.00  0.00    -0.000 C 
ATOM     10  C   UNL A   1     -32.542   0.070  26.795  0.00  0.00    -0.000 C 
BRANCH  10  11
ATOM     11  C   UNL A   1     -32.394  -1.223  26.137  0.00  0.00    -0.000 C 
ATOM     12  C   UNL A   1     -31.396  -2.074  26.500  0.00  0.00    -0.000 C 
ENDBRANCH  10  11
ENDBRANCH   6   9
TORSDOF 2
