MODEL 3228
MODEL 1
REMARK VINA RESULT:    -5.232      0.000      0.000
REMARK INTER + INTRA:          -6.179
REMARK INTER:                  -5.843
REMARK INTRA:                  -0.335
REMARK UNBOUND:                -0.335
REMARK  Name = No_3228-gen_results/8p0m/2024-11-26-14-13-15/
REMARK  2 active torsions:
REMARK  status: ('A' for Active; 'I' for Inactive)
REMARK    1  A    between atoms: C_6  and  C_9
REMARK    2  A    between atoms: C_10  and  C_11
REMARK                            x       y       z     vdW  Elec       q    Type
REMARK                         _______ _______ _______ _____ _____    ______ ____
ROOT
ATOM      1  O   UNL A   1     -26.627 -12.747  33.475  0.00  0.00    -0.269 OA
ATOM      2  C   UNL A   1     -27.321 -11.834  33.443  0.00  0.00    +0.261 C 
ATOM      3  C   UNL A   1     -28.124 -11.550  32.490  0.00  0.00    +0.033 C 
ATOM      4  N   UNL A   1     -27.223 -10.943  34.623  0.00  0.00    -0.202 NA
ATOM      5  C   UNL A   1     -28.031  -9.801  34.743  0.00  0.00    +0.116 C 
ATOM      6  C   UNL A   1     -28.190 -12.195  31.374  0.00  0.00    +0.000 C 
ATOM      7  C   UNL A   1     -28.857  -9.596  33.676  0.00  0.00    +0.028 C 
ATOM      8  C   UNL A   1     -28.952 -10.310  32.592  0.00  0.00    +0.033 C 
ENDROOT
BRANCH   6   9
ATOM      9  C   UNL A   1     -28.720 -11.642  30.133  0.00  0.00    -0.000 C 
ATOM     10  C   UNL A   1     -29.733 -12.135  29.535  0.00  0.00    -0.000 C 
BRANCH  10  11
ATOM     11  C   UNL A   1     -30.395 -13.340  30.023  0.00  0.00    -0.000 C 
ATOM     12  C   UNL A   1     -30.326 -14.501  29.317  0.00  0.00    -0.000 C 
ENDBRANCH  10  11
ENDBRANCH   6   9
TORSDOF 2
ENDMDL
ENDMDL
