MODEL 3229
MODEL 1
REMARK VINA RESULT:    -5.221      0.000      0.000
REMARK INTER + INTRA:          -5.665
REMARK INTER:                  -5.527
REMARK INTRA:                  -0.138
REMARK UNBOUND:                -0.138
REMARK  Name = No_3229-gen_results/8p0m/2024-11-26-14-13-15/
REMARK  1 active torsions:
REMARK  status: ('A' for Active; 'I' for Inactive)
REMARK    1  A    between atoms: C_2  and  C_7
REMARK                            x       y       z     vdW  Elec       q    Type
REMARK                         _______ _______ _______ _____ _____    ______ ____
ROOT
ATOM      1  C   UNL A   1     -24.098  -3.918  28.713  0.00  0.00    +0.004 A 
ATOM      2  C   UNL A   1     -24.515  -2.836  29.057  0.00  0.00    +0.071 A 
ATOM      3  C   UNL A   1     -25.719  -2.640  29.652  0.00  0.00    +0.004 A 
ATOM      4  C   UNL A   1     -26.538  -3.761  29.885  0.00  0.00    -0.000 A 
ATOM      5  C   UNL A   1     -24.841  -5.117  29.007  0.00  0.00    -0.000 A 
ATOM      6  C   UNL A   1     -26.071  -4.972  29.577  0.00  0.00    -0.000 A 
ENDROOT
BRANCH   2   7
ATOM      7  C   UNL A   1     -23.717  -1.557  28.866  0.00  0.00    +0.419 C 
ATOM      8  F   UNL A   1     -22.544  -1.725  28.916  0.00  0.00    -0.166 F 
ATOM      9  F   UNL A   1     -24.034  -0.522  29.823  0.00  0.00    -0.166 F 
ATOM     10  F   UNL A   1     -24.163  -0.785  27.777  0.00  0.00    -0.166 F 
ENDBRANCH   2   7
TORSDOF 1
ENDMDL
ENDMDL
