REMARK  Name = No_3229-gen_results/8p0m/2024-11-26-14-13-15/
REMARK  1 active torsions:
REMARK  status: ('A' for Active; 'I' for Inactive)
REMARK    1  A    between atoms: C_2  and  C_7
REMARK                            x       y       z     vdW  Elec       q    Type
REMARK                         _______ _______ _______ _____ _____    ______ ____
ROOT
ATOM      1  C   UNL A   1     -28.016  -0.814  28.878  0.00  0.00    +0.004 A 
ATOM      2  C   UNL A   1     -27.064  -0.119  28.608  0.00  0.00    +0.071 A 
ATOM      3  C   UNL A   1     -26.929   1.171  29.008  0.00  0.00    +0.004 A 
ATOM      4  C   UNL A   1     -27.956   1.741  29.784  0.00  0.00    -0.000 A 
ATOM      5  C   UNL A   1     -29.057  -0.327  29.747  0.00  0.00    -0.000 A 
ATOM      6  C   UNL A   1     -28.983   0.972  30.152  0.00  0.00    -0.000 A 
ENDROOT
BRANCH   2   7
ATOM      7  C   UNL A   1     -25.891  -0.626  27.786  0.00  0.00    +0.419 C 
ATOM      8  F   UNL A   1     -25.530  -1.710  28.105  0.00  0.00    -0.166 F 
ATOM      9  F   UNL A   1     -24.731   0.234  27.831  0.00  0.00    -0.166 F 
ATOM     10  F   UNL A   1     -26.064  -0.438  26.402  0.00  0.00    -0.166 F 
ENDBRANCH   2   7
TORSDOF 1
