MODEL 322
MODEL 1
REMARK VINA RESULT:    -4.355      0.000      0.000
REMARK INTER + INTRA:          -4.355
REMARK INTER:                  -4.355
REMARK INTRA:                   0.000
REMARK UNBOUND:                 0.000
REMARK  Name = No_322-gen_results/8p0m/2024-11-26-14-13-15/
REMARK  0 active torsions:
REMARK  status: ('A' for Active; 'I' for Inactive)
REMARK                            x       y       z     vdW  Elec       q    Type
REMARK                         _______ _______ _______ _____ _____    ______ ____
ROOT
ATOM      1  C   UNL A   1     -24.951  -5.396  29.014  0.00  0.00    +0.000 A 
ATOM      2  C   UNL A   1     -24.205  -4.723  28.695  0.00  0.00    +0.000 A 
ATOM      3  C   UNL A   1     -26.135  -4.734  29.574  0.00  0.00    +0.000 A 
ATOM      4  C   UNL A   1     -26.174  -3.423  29.820  0.00  0.00    +0.000 A 
ATOM      5  C   UNL A   1     -24.017  -3.303  28.868  0.00  0.00    +0.000 A 
ATOM      6  C   UNL A   1     -25.117  -2.710  29.413  0.00  0.00    +0.000 A 
ENDROOT
TORSDOF 0
ENDMDL
ENDMDL
