MODEL 3230
MODEL 1
REMARK VINA RESULT:    -8.224      0.000      0.000
REMARK INTER + INTRA:         -11.662
REMARK INTER:                 -10.147
REMARK INTRA:                  -1.515
REMARK UNBOUND:                -1.515
REMARK  Name = No_3230-gen_results/8p0m/2024-11-26-14-13-15/
REMARK  4 active torsions:
REMARK  status: ('A' for Active; 'I' for Inactive)
REMARK    1  A    between atoms: C_3  and  C_4
REMARK    2  A    between atoms: C_5  and  C_6
REMARK    3  A    between atoms: C_8  and  C_19
REMARK    4  A    between atoms: C_11  and  O_23
REMARK                            x       y       z     vdW  Elec       q    Type
REMARK                         _______ _______ _______ _____ _____    ______ ____
ROOT
ATOM      1  C   UNL A   1     -24.770  -1.413  30.251  0.00  0.00    +0.003 A 
ATOM      2  C   UNL A   1     -24.323  -0.847  29.457  0.00  0.00    +0.000 A 
ATOM      3  C   UNL A   1     -24.595  -1.026  31.717  0.00  0.00    +0.000 A 
ATOM      4  C   UNL A   1     -23.212  -0.949  32.032  0.00  0.00    +0.000 A 
ATOM      5  C   UNL A   1     -22.721  -0.834  29.807  0.00  0.00    +0.000 A 
ATOM      6  C   UNL A   1     -22.364  -0.610  31.052  0.00  0.00    +0.000 A 
ENDROOT
BRANCH   1   9
ATOM      7  C   UNL A   1     -27.136  -2.229  30.790  0.00  0.00    +0.003 A 
ATOM      8  C   UNL A   1     -27.826  -2.995  30.575  0.00  0.00    +0.000 A 
ATOM      9  C   UNL A   1     -25.803  -2.466  30.223  0.00  0.00    +0.034 A 
ATOM     10  C   UNL A   1     -27.694  -4.350  30.104  0.00  0.00    +0.003 A 
ATOM     11  C   UNL A   1     -26.457  -4.625  29.653  0.00  0.00    +0.037 A 
ATOM     12  C   UNL A   1     -25.485  -3.699  29.693  0.00  0.00    +0.139 A 
BRANCH  12  13
ATOM     13  O   UNL A   1     -24.277  -3.951  29.270  0.00  0.00    -0.471 OA
ATOM     14  C   UNL A   1     -23.976  -4.888  28.413  0.00  0.00    +0.253 C 
ENDBRANCH  12  13
ENDBRANCH   1   9
BRANCH   2  15
ATOM     15  C   UNL A   1     -24.440  -0.027  28.471  0.00  0.00    -0.000 A 
ATOM     16  C   UNL A   1     -24.933  -0.316  27.180  0.00  0.00    +0.004 A 
ATOM     17  C   UNL A   1     -24.717   0.428  26.034  0.00  0.00    +0.071 A 
ATOM     18  C   UNL A   1     -23.914   1.575  26.101  0.00  0.00    +0.004 A 
ATOM     19  C   UNL A   1     -23.322   1.939  27.326  0.00  0.00    -0.000 A 
ATOM     20  C   UNL A   1     -23.497   1.139  28.427  0.00  0.00    -0.000 A 
BRANCH  17  21
ATOM     21  C   UNL A   1     -25.346   0.066  24.773  0.00  0.00    +0.419 C 
ATOM     22  F   UNL A   1     -25.681  -1.167  24.735  0.00  0.00    -0.166 F 
ATOM     23  F   UNL A   1     -26.442   0.781  24.603  0.00  0.00    -0.166 F 
ATOM     24  F   UNL A   1     -24.431   0.261  23.768  0.00  0.00    -0.166 F 
ENDBRANCH  17  21
ENDBRANCH   2  15
TORSDOF 4
ENDMDL
ENDMDL
