REMARK  Name = No_3230-gen_results/8p0m/2024-11-26-14-13-15/
REMARK  4 active torsions:
REMARK  status: ('A' for Active; 'I' for Inactive)
REMARK    1  A    between atoms: C_3  and  C_4
REMARK    2  A    between atoms: C_5  and  C_6
REMARK    3  A    between atoms: C_8  and  C_19
REMARK    4  A    between atoms: C_11  and  O_23
REMARK                            x       y       z     vdW  Elec       q    Type
REMARK                         _______ _______ _______ _____ _____    ______ ____
ROOT
ATOM      1  C   UNL A   1     -27.450   0.643  26.850  0.00  0.00    +0.003 A 
ATOM      2  C   UNL A   1     -26.453   0.994  26.668  0.00  0.00    +0.000 A 
ATOM      3  C   UNL A   1     -28.293  -0.004  25.754  0.00  0.00    +0.000 A 
ATOM      4  C   UNL A   1     -28.393   0.876  24.643  0.00  0.00    +0.000 A 
ATOM      5  C   UNL A   1     -26.608   2.059  25.430  0.00  0.00    +0.000 A 
ATOM      6  C   UNL A   1     -27.379   1.722  24.420  0.00  0.00    +0.000 A 
ENDROOT
BRANCH   1   9
ATOM      7  C   UNL A   1     -28.016  -0.814  28.878  0.00  0.00    +0.003 A 
ATOM      8  C   UNL A   1     -28.469  -0.785  29.829  0.00  0.00    +0.000 A 
ATOM      9  C   UNL A   1     -28.182   0.428  28.113  0.00  0.00    +0.034 A 
ATOM     10  C   UNL A   1     -29.452   0.074  30.437  0.00  0.00    +0.003 A 
ATOM     11  C   UNL A   1     -29.689   1.185  29.717  0.00  0.00    +0.037 A 
ATOM     12  C   UNL A   1     -29.063   1.396  28.547  0.00  0.00    +0.139 A 
BRANCH  12  13
ATOM     13  O   UNL A   1     -29.288   2.463  27.830  0.00  0.00    -0.471 OA
ATOM     14  C   UNL A   1     -30.457   2.805  27.362  0.00  0.00    +0.253 C 
ENDBRANCH  12  13
ENDBRANCH   1   9
BRANCH   2  15
ATOM     15  C   UNL A   1     -25.181   0.862  26.816  0.00  0.00    -0.000 A 
ATOM     16  C   UNL A   1     -24.515   0.116  27.812  0.00  0.00    +0.004 A 
ATOM     17  C   UNL A   1     -23.198   0.265  28.206  0.00  0.00    +0.071 A 
ATOM     18  C   UNL A   1     -22.411   1.260  27.609  0.00  0.00    +0.004 A 
ATOM     19  C   UNL A   1     -22.979   2.104  26.635  0.00  0.00    -0.000 A 
ATOM     20  C   UNL A   1     -24.308   1.977  26.320  0.00  0.00    -0.000 A 
BRANCH  17  21
ATOM     21  C   UNL A   1     -22.603  -0.620  29.195  0.00  0.00    +0.419 C 
ATOM     22  F   UNL A   1     -22.627  -0.118  30.371  0.00  0.00    -0.166 F 
ATOM     23  F   UNL A   1     -23.274  -1.755  29.235  0.00  0.00    -0.166 F 
ATOM     24  F   UNL A   1     -21.282  -0.802  28.867  0.00  0.00    -0.166 F 
ENDBRANCH  17  21
ENDBRANCH   2  15
TORSDOF 4
