MODEL 3231
MODEL 1
REMARK VINA RESULT:    -5.378      0.000      0.000
REMARK INTER + INTRA:          -5.807
REMARK INTER:                  -5.692
REMARK INTRA:                  -0.115
REMARK UNBOUND:                -0.115
REMARK  Name = No_3231-gen_results/8p0m/2024-11-26-14-13-15/
REMARK  1 active torsions:
REMARK  status: ('A' for Active; 'I' for Inactive)
REMARK    1  A    between atoms: C_1  and  C_2
REMARK                            x       y       z     vdW  Elec       q    Type
REMARK                         _______ _______ _______ _____ _____    ______ ____
ROOT
ATOM      1  C   UNL A   1      -8.115  -9.829  19.794  0.00  0.00    +0.044 A 
ATOM      2  C   UNL A   1      -9.234  -9.177  19.931  0.00  0.00    +0.001 A 
ATOM      3  C   UNL A   1     -10.442  -9.318  19.080  0.00  0.00    -0.000 A 
ATOM      4  C   UNL A   1     -10.340 -10.221  17.983  0.00  0.00    -0.000 A 
ATOM      5  C   UNL A   1      -9.143 -10.865  17.800  0.00  0.00    -0.000 A 
ATOM      6  C   UNL A   1      -8.059 -10.697  18.591  0.00  0.00    +0.001 A 
ENDROOT
BRANCH   1   7
ATOM      7  C   UNL A   1      -7.114  -9.735  20.466  0.00  0.00    +0.341 C 
ATOM      8  F   UNL A   1      -6.604  -8.603  20.408  0.00  0.00    -0.193 F 
ATOM      9  F   UNL A   1      -7.256 -10.146  21.761  0.00  0.00    -0.193 F 
ENDBRANCH   1   7
TORSDOF 1
ENDMDL
ENDMDL
