MODEL 3232
MODEL 1
REMARK VINA RESULT:    -4.844      0.000      0.000
REMARK INTER + INTRA:          -5.177
REMARK INTER:                  -5.127
REMARK INTRA:                  -0.051
REMARK UNBOUND:                -0.051
REMARK  Name = No_3232-gen_results/8p0m/2024-11-26-14-13-15/
REMARK  1 active torsions:
REMARK  status: ('A' for Active; 'I' for Inactive)
REMARK    1  A    between atoms: C_1  and  C_8
REMARK                            x       y       z     vdW  Elec       q    Type
REMARK                         _______ _______ _______ _____ _____    ______ ____
ROOT
ATOM      1  C   UNL A   1     -23.941  -1.414  28.658  0.00  0.00    +0.037 C 
ATOM      2  C   UNL A   1     -24.450  -2.491  28.861  0.00  0.00    -0.041 C 
ATOM      3  C   UNL A   1     -23.954  -3.670  28.613  0.00  0.00    +0.022 C 
ATOM      4  C   UNL A   1     -24.611  -4.973  28.883  0.00  0.00    +0.004 C 
ATOM      5  C   UNL A   1     -25.885  -4.920  29.514  0.00  0.00    +0.001 C 
ATOM      6  C   UNL A   1     -26.386  -3.682  29.831  0.00  0.00    +0.004 C 
ATOM      7  C   UNL A   1     -25.747  -2.515  29.582  0.00  0.00    +0.022 C 
ENDROOT
BRANCH   1   8
ATOM      8  C   UNL A   1     -22.929  -0.909  29.695  0.00  0.00    +0.234 C 
ATOM      9  O   UNL A   1     -21.701  -0.830  29.328  0.00  0.00    -0.283 OA
ENDBRANCH   1   8
TORSDOF 1
ENDMDL
ENDMDL
