REMARK  Name = No_3233-gen_results/8p0m/2024-11-26-14-13-15/
REMARK  3 active torsions:
REMARK  status: ('A' for Active; 'I' for Inactive)
REMARK    1  A    between atoms: C_3  and  C_7
REMARK    2  A    between atoms: C_7  and  C_8
REMARK    3  A    between atoms: C_7  and  C_14
REMARK                            x       y       z     vdW  Elec       q    Type
REMARK                         _______ _______ _______ _____ _____    ______ ____
ROOT
ATOM      1  C   UNL A   1     -26.408   0.307  27.226  0.00  0.00    +0.136 C 
ENDROOT
BRANCH   1   4
ATOM      2  C   UNL A   1     -28.016  -0.814  28.878  0.00  0.00    -0.003 A 
ATOM      3  C   UNL A   1     -28.469  -0.785  29.829  0.00  0.00    -0.000 A 
ATOM      4  C   UNL A   1     -27.136   0.236  28.535  0.00  0.00    -0.004 A 
ATOM      5  C   UNL A   1     -26.875   1.282  29.398  0.00  0.00    -0.003 A 
ATOM      6  C   UNL A   1     -27.507   1.238  30.630  0.00  0.00    -0.000 A 
ATOM      7  C   UNL A   1     -28.329   0.174  30.935  0.00  0.00    -0.000 A 
ENDBRANCH   1   4
BRANCH   1   8
ATOM      8  C   UNL A   1     -25.011   0.390  27.323  0.00  0.00    -0.004 A 
ATOM      9  C   UNL A   1     -24.368   0.221  28.524  0.00  0.00    -0.003 A 
ATOM     10  C   UNL A   1     -22.911   0.566  28.507  0.00  0.00    -0.000 A 
ATOM     11  C   UNL A   1     -22.375   1.344  27.509  0.00  0.00    -0.000 A 
ATOM     12  C   UNL A   1     -23.136   1.713  26.415  0.00  0.00    -0.000 A 
ATOM     13  C   UNL A   1     -24.472   1.280  26.298  0.00  0.00    -0.003 A 
ENDBRANCH   1   8
BRANCH   1  14
ATOM     14  C   UNL A   1     -27.081   0.148  26.053  0.00  0.00    +0.081 C 
ATOM     15  N   UNL A   1     -27.801   0.468  25.427  0.00  0.00    -0.195 NA
ENDBRANCH   1  14
TORSDOF 3
