MODEL 3233
MODEL 1
REMARK VINA RESULT:    -6.540      0.000      0.000
REMARK INTER + INTRA:          -8.380
REMARK INTER:                  -7.688
REMARK INTRA:                  -0.692
REMARK UNBOUND:                -0.692
REMARK  Name = No_3233-gen_results/8p0m/2024-11-26-14-13-15/
REMARK  3 active torsions:
REMARK  status: ('A' for Active; 'I' for Inactive)
REMARK    1  A    between atoms: C_3  and  C_7
REMARK    2  A    between atoms: C_7  and  C_8
REMARK    3  A    between atoms: C_7  and  C_14
REMARK                            x       y       z     vdW  Elec       q    Type
REMARK                         _______ _______ _______ _____ _____    ______ ____
ROOT
ATOM      1  C   UNL A   1     -24.449  -1.206  29.391  0.00  0.00    +0.136 C 
ENDROOT
BRANCH   1   4
ATOM      2  C   UNL A   1     -25.237  -0.355  27.105  0.00  0.00    -0.003 A 
ATOM      3  C   UNL A   1     -25.071   0.309  26.304  0.00  0.00    -0.000 A 
ATOM      4  C   UNL A   1     -24.320  -0.333  28.179  0.00  0.00    -0.004 A 
ATOM      5  C   UNL A   1     -23.229   0.513  28.191  0.00  0.00    -0.003 A 
ATOM      6  C   UNL A   1     -23.090   1.357  27.101  0.00  0.00    -0.000 A 
ATOM      7  C   UNL A   1     -24.031   1.326  26.093  0.00  0.00    -0.000 A 
ENDBRANCH   1   4
BRANCH   1   8
ATOM      8  C   UNL A   1     -24.937  -2.499  29.147  0.00  0.00    -0.004 A 
ATOM      9  C   UNL A   1     -26.002  -3.004  29.852  0.00  0.00    -0.003 A 
ATOM     10  C   UNL A   1     -26.254  -4.465  29.641  0.00  0.00    -0.000 A 
ATOM     11  C   UNL A   1     -25.286  -5.286  29.117  0.00  0.00    -0.000 A 
ATOM     12  C   UNL A   1     -24.099  -4.763  28.636  0.00  0.00    -0.000 A 
ATOM     13  C   UNL A   1     -23.873  -3.372  28.660  0.00  0.00    -0.003 A 
ENDBRANCH   1   8
BRANCH   1  14
ATOM     14  C   UNL A   1     -23.975  -0.787  30.597  0.00  0.00    +0.081 C 
ATOM     15  N   UNL A   1     -23.409  -0.974  31.408  0.00  0.00    -0.195 NA
ENDBRANCH   1  14
TORSDOF 3
ENDMDL
ENDMDL
