REMARK  Name = No_3234-gen_results/8p0m/2024-11-26-14-13-15/
REMARK  4 active torsions:
REMARK  status: ('A' for Active; 'I' for Inactive)
REMARK    1  A    between atoms: C_2  and  O_7
REMARK    2  A    between atoms: O_7  and  C_8
REMARK    3  A    between atoms: C_9  and  C_10
REMARK    4  A    between atoms: C_10  and  C_11
REMARK                            x       y       z     vdW  Elec       q    Type
REMARK                         _______ _______ _______ _____ _____    ______ ____
ROOT
ATOM      1  O   UNL A   1     -29.939  -0.819  29.836  0.00  0.00    -0.450 OA
ENDROOT
BRANCH   1   3
ATOM      2  C   UNL A   1     -28.016  -0.814  28.878  0.00  0.00    +0.037 A 
ATOM      3  C   UNL A   1     -28.469  -0.785  29.829  0.00  0.00    +0.145 A 
ATOM      4  C   UNL A   1     -26.504  -0.778  28.877  0.00  0.00    +0.003 A 
ATOM      5  C   UNL A   1     -25.810  -0.853  30.103  0.00  0.00    +0.000 A 
ATOM      6  C   UNL A   1     -27.991  -0.892  31.226  0.00  0.00    +0.037 A 
ATOM      7  C   UNL A   1     -26.604  -0.868  31.265  0.00  0.00    +0.003 A 
ENDBRANCH   1   3
BRANCH   1   8
ATOM      8  C   UNL A   1     -30.639   0.234  30.252  0.00  0.00    +0.182 C 
ATOM      9  C   UNL A   1     -31.590   0.594  29.543  0.00  0.00    +0.081 C 
BRANCH   9  10
ATOM     10  C   UNL A   1     -31.983  -0.104  28.346  0.00  0.00    +0.209 C 
ATOM     11  O   UNL A   1     -32.724   0.412  27.342  0.00  0.00    -0.288 OA
BRANCH  10  12
ATOM     12  C   UNL A   1     -31.610  -1.302  28.207  0.00  0.00    +0.251 C 
ATOM     13  O   UNL A   1     -31.949  -2.034  27.063  0.00  0.00    -0.211 OA
ENDBRANCH  10  12
ENDBRANCH   9  10
ENDBRANCH   1   8
TORSDOF 4
