MODEL 3234
MODEL 1
REMARK VINA RESULT:    -5.393      0.000      0.000
REMARK INTER + INTRA:          -6.999
REMARK INTER:                  -6.654
REMARK INTRA:                  -0.345
REMARK UNBOUND:                -0.345
REMARK  Name = No_3234-gen_results/8p0m/2024-11-26-14-13-15/
REMARK  4 active torsions:
REMARK  status: ('A' for Active; 'I' for Inactive)
REMARK    1  A    between atoms: C_2  and  O_7
REMARK    2  A    between atoms: O_7  and  C_8
REMARK    3  A    between atoms: C_9  and  C_10
REMARK    4  A    between atoms: C_10  and  C_11
REMARK                            x       y       z     vdW  Elec       q    Type
REMARK                         _______ _______ _______ _____ _____    ______ ____
ROOT
ATOM      1  O   UNL A   1     -24.639  -1.291  29.801  0.00  0.00    -0.450 OA
ENDROOT
BRANCH   1   3
ATOM      2  C   UNL A   1     -25.865  -3.046  29.978  0.00  0.00    +0.037 A 
ATOM      3  C   UNL A   1     -24.973  -2.698  29.537  0.00  0.00    +0.145 A 
ATOM      4  C   UNL A   1     -26.205  -4.494  29.702  0.00  0.00    +0.003 A 
ATOM      5  C   UNL A   1     -25.272  -5.304  29.021  0.00  0.00    +0.000 A 
ATOM      6  C   UNL A   1     -23.834  -3.326  28.830  0.00  0.00    +0.037 A 
ATOM      7  C   UNL A   1     -24.107  -4.660  28.564  0.00  0.00    +0.003 A 
ENDBRANCH   1   3
BRANCH   1   8
ATOM      8  C   UNL A   1     -23.895  -0.957  30.854  0.00  0.00    +0.182 C 
ATOM      9  C   UNL A   1     -22.979  -0.144  30.661  0.00  0.00    +0.081 C 
BRANCH   9  10
ATOM     10  C   UNL A   1     -22.736   0.473  29.383  0.00  0.00    +0.209 C 
ATOM     11  O   UNL A   1     -23.543   1.369  28.776  0.00  0.00    -0.288 OA
BRANCH  10  12
ATOM     12  C   UNL A   1     -21.680   0.163  28.764  0.00  0.00    +0.251 C 
ATOM     13  O   UNL A   1     -21.106  -1.105  28.911  0.00  0.00    -0.211 OA
ENDBRANCH  10  12
ENDBRANCH   9  10
ENDBRANCH   1   8
TORSDOF 4
ENDMDL
ENDMDL
