MODEL 3235
MODEL 1
REMARK VINA RESULT:    -5.639      0.000      0.000
REMARK INTER + INTRA:          -8.735
REMARK INTER:                  -7.617
REMARK INTRA:                  -1.118
REMARK UNBOUND:                -1.118
REMARK  Name = No_3235-gen_results/8p0m/2024-11-26-14-13-15/
REMARK  6 active torsions:
REMARK  status: ('A' for Active; 'I' for Inactive)
REMARK    1  A    between atoms: C_4  and  C_11
REMARK    2  A    between atoms: C_5  and  O_16
REMARK    3  A    between atoms: O_16  and  C_17
REMARK    4  A    between atoms: C_17  and  C_19
REMARK    5  A    between atoms: C_19  and  C_21
REMARK    6  A    between atoms: C_21  and  O_22
REMARK                            x       y       z     vdW  Elec       q    Type
REMARK                         _______ _______ _______ _____ _____    ______ ____
ROOT
ATOM      1  C   UNL A   1     -28.083  -2.947  30.958  0.00  0.00    +0.112 A 
ATOM      2  C   UNL A   1     -27.232  -2.090  31.003  0.00  0.00    +0.153 A 
ATOM      3  C   UNL A   1     -25.980  -2.214  30.401  0.00  0.00    +0.031 A 
ATOM      4  C   UNL A   1     -24.882  -1.228  30.415  0.00  0.00    +0.062 A 
ATOM      5  C   UNL A   1     -23.584  -1.406  29.817  0.00  0.00    +0.139 A 
ATOM      6  C   UNL A   1     -23.467  -2.536  28.999  0.00  0.00    +0.037 A 
ATOM      7  C   UNL A   1     -27.700  -4.270  30.358  0.00  0.00    +0.153 A 
ATOM      8  C   UNL A   1     -26.524  -4.452  29.666  0.00  0.00    +0.031 A 
ATOM      9  C   UNL A   1     -25.572  -3.449  29.683  0.00  0.00    +0.004 A 
ATOM     10  C   UNL A   1     -24.369  -3.579  28.991  0.00  0.00    +0.003 A 
ATOM     11  F   UNL A   1     -28.650  -5.235  30.369  0.00  0.00    -0.203 F 
ATOM     12 CL   UNL A   1     -29.581  -2.863  31.721  0.00  0.00    -0.077 Cl
ATOM     13  F   UNL A   1     -27.454  -0.905  31.614  0.00  0.00    -0.203 F 
ENDROOT
BRANCH   4  14
ATOM     14  C   UNL A   1     -25.055   0.076  31.134  0.00  0.00    +0.265 C 
ATOM     15 CL   UNL A   1     -24.631   0.218  32.460  0.00  0.00    -0.072 Cl
ATOM     16  F   UNL A   1     -25.525   0.989  30.382  0.00  0.00    -0.214 F 
ENDBRANCH   4  14
BRANCH   5  17
ATOM     17  O   UNL A   1     -22.685  -0.443  29.819  0.00  0.00    -0.473 OA
BRANCH  17  18
ATOM     18  C   UNL A   1     -22.151   0.074  28.632  0.00  0.00    +0.241 C 
BRANCH  18  19
ATOM     19  C   UNL A   1     -22.880   1.242  28.328  0.00  0.00    +0.225 C 
ATOM     20  O   UNL A   1     -22.034   2.199  27.884  0.00  0.00    -0.216 OA
BRANCH  19  21
ATOM     21  C   UNL A   1     -23.551   1.010  27.103  0.00  0.00    +0.179 C 
BRANCH  21  22
ATOM     22  O   UNL A   1     -24.903   0.787  27.253  0.00  0.00    -0.348 OA
ATOM     23  C   UNL A   1     -25.714   1.517  26.366  0.00  0.00    +0.174 C 
ENDBRANCH  21  22
ENDBRANCH  19  21
ENDBRANCH  18  19
ENDBRANCH  17  18
ENDBRANCH   5  17
TORSDOF 6
ENDMDL
ENDMDL
