REMARK  Name = No_3235-gen_results/8p0m/2024-11-26-14-13-15/
REMARK  6 active torsions:
REMARK  status: ('A' for Active; 'I' for Inactive)
REMARK    1  A    between atoms: C_4  and  C_11
REMARK    2  A    between atoms: C_5  and  O_16
REMARK    3  A    between atoms: O_16  and  C_17
REMARK    4  A    between atoms: C_17  and  C_19
REMARK    5  A    between atoms: C_19  and  C_21
REMARK    6  A    between atoms: C_21  and  O_22
REMARK                            x       y       z     vdW  Elec       q    Type
REMARK                         _______ _______ _______ _____ _____    ______ ____
ROOT
ATOM      1  C   UNL A   1     -28.016  -0.814  28.878  0.00  0.00    +0.112 A 
ATOM      2  C   UNL A   1     -27.064  -0.119  28.608  0.00  0.00    +0.153 A 
ATOM      3  C   UNL A   1     -25.765  -0.390  29.036  0.00  0.00    +0.031 A 
ATOM      4  C   UNL A   1     -24.552   0.406  28.765  0.00  0.00    +0.062 A 
ATOM      5  C   UNL A   1     -23.230   0.118  29.258  0.00  0.00    +0.139 A 
ATOM      6  C   UNL A   1     -23.094  -1.131  29.873  0.00  0.00    +0.037 A 
ATOM      7  C   UNL A   1     -27.798  -1.934  29.856  0.00  0.00    +0.153 A 
ATOM      8  C   UNL A   1     -26.542  -2.327  30.258  0.00  0.00    +0.031 A 
ATOM      9  C   UNL A   1     -25.451  -1.552  29.908  0.00  0.00    +0.004 A 
ATOM     10  C   UNL A   1     -24.156  -1.910  30.281  0.00  0.00    +0.003 A 
ATOM     11  F   UNL A   1     -28.888  -2.665  30.188  0.00  0.00    -0.203 F 
ATOM     12 CL   UNL A   1     -29.607  -0.490  28.435  0.00  0.00    -0.077 Cl
ATOM     13  F   UNL A   1     -27.187   0.970  27.817  0.00  0.00    -0.203 F 
ENDROOT
BRANCH   4  14
ATOM     14  C   UNL A   1     -24.645   1.658  27.946  0.00  0.00    +0.265 C 
ATOM     15 CL   UNL A   1     -24.827   1.588  26.560  0.00  0.00    -0.072 Cl
ATOM     16  F   UNL A   1     -24.626   2.711  28.660  0.00  0.00    -0.214 F 
ENDBRANCH   4  14
BRANCH   5  17
ATOM     17  O   UNL A   1     -22.190   0.848  28.909  0.00  0.00    -0.473 OA
BRANCH  17  18
ATOM     18  C   UNL A   1     -21.039   0.277  28.350  0.00  0.00    +0.241 C 
BRANCH  18  19
ATOM     19  C   UNL A   1     -20.215   1.341  27.930  0.00  0.00    +0.225 C 
ATOM     20  O   UNL A   1     -20.829   2.517  28.192  0.00  0.00    -0.216 OA
BRANCH  19  21
ATOM     21  C   UNL A   1     -19.173   1.464  28.880  0.00  0.00    +0.179 C 
BRANCH  21  22
ATOM     22  O   UNL A   1     -18.338   2.534  28.642  0.00  0.00    -0.348 OA
ATOM     23  C   UNL A   1     -19.003   3.729  28.315  0.00  0.00    +0.174 C 
ENDBRANCH  21  22
ENDBRANCH  19  21
ENDBRANCH  18  19
ENDBRANCH  17  18
ENDBRANCH   5  17
TORSDOF 6
