REMARK  Name = No_3236-gen_results/8p0m/2024-11-26-14-13-15/
REMARK  7 active torsions:
REMARK  status: ('A' for Active; 'I' for Inactive)
REMARK    1  A    between atoms: C_1  and  O_16
REMARK    2  A    between atoms: C_3  and  C_7
REMARK    3  A    between atoms: C_4  and  C_13
REMARK    4  A    between atoms: C_8  and  C_19
REMARK    5  A    between atoms: C_23  and  C_25
REMARK    6  A    between atoms: C_25  and  C_26
REMARK    7  A    between atoms: C_27  and  C_28
REMARK                            x       y       z     vdW  Elec       q    Type
REMARK                         _______ _______ _______ _____ _____    ______ ____
ROOT
ATOM      1  C   UNL A   1     -25.711   1.452  27.138  0.00  0.00    -0.000 A 
ATOM      2  C   UNL A   1     -25.207   2.413  27.932  0.00  0.00    -0.000 A 
ATOM      3  C   UNL A   1     -24.288   2.821  28.183  0.00  0.00    -0.000 A 
ATOM      4  C   UNL A   1     -23.080   2.245  27.369  0.00  0.00    -0.000 A 
ATOM      5  C   UNL A   1     -23.428   1.210  26.525  0.00  0.00    -0.000 A 
ATOM      6  C   UNL A   1     -24.682   0.724  26.456  0.00  0.00    -0.000 A 
ENDROOT
BRANCH   1   9
ATOM      7  C   UNL A   1     -28.016  -0.814  28.878  0.00  0.00    +0.141 A 
ATOM      8  C   UNL A   1     -27.064  -0.119  28.608  0.00  0.00    +0.037 A 
ATOM      9  C   UNL A   1     -26.972   0.714  27.506  0.00  0.00    +0.001 A 
ATOM     10  C   UNL A   1     -28.105   0.774  26.642  0.00  0.00    +0.005 A 
ATOM     11  C   UNL A   1     -29.204   0.118  27.048  0.00  0.00    +0.139 A 
ATOM     12  C   UNL A   1     -29.213  -0.609  28.128  0.00  0.00    +0.066 A 
ATOM     13  F   UNL A   1     -30.265   0.146  26.295  0.00  0.00    -0.204 F 
BRANCH  10  14
ATOM     14  C   UNL A   1     -27.991   1.610  25.442  0.00  0.00    +0.025 C 
ATOM     15  C   UNL A   1     -28.326   2.930  25.600  0.00  0.00    +0.005 C 
ATOM     16  C   UNL A   1     -27.687   0.977  24.222  0.00  0.00    +0.005 C 
ENDBRANCH  10  14
BRANCH   7  17
ATOM     17  O   UNL A   1     -27.861  -1.553  30.057  0.00  0.00    -0.471 OA
ATOM     18  C   UNL A   1     -28.599  -1.475  31.072  0.00  0.00    +0.253 C 
ENDBRANCH   7  17
ENDBRANCH   1   9
BRANCH   2  19
ATOM     19  C   UNL A   1     -26.426   3.179  28.847  0.00  0.00    -0.000 A 
ATOM     20  C   UNL A   1     -26.275   4.349  29.061  0.00  0.00    -0.000 A 
ATOM     21  C   UNL A   1     -26.710   4.790  30.359  0.00  0.00    -0.000 A 
ATOM     22  C   UNL A   1     -27.321   4.372  31.036  0.00  0.00    -0.004 A 
ATOM     23  C   UNL A   1     -27.700   2.922  30.787  0.00  0.00    -0.018 A 
ATOM     24  C   UNL A   1     -26.591   2.328  30.125  0.00  0.00    -0.004 A 
BRANCH  23  25
ATOM     25  C   UNL A   1     -28.124   2.130  32.073  0.00  0.00    +0.052 C 
BRANCH  25  26
ATOM     26  C   UNL A   1     -29.493   1.876  32.173  0.00  0.00    -0.021 C 
ATOM     27  C   UNL A   1     -30.178   2.546  32.923  0.00  0.00    -0.004 C 
BRANCH  27  28
ATOM     28  C   UNL A   1     -31.574   2.395  32.895  0.00  0.00    -0.000 C 
ATOM     29  C   UNL A   1     -32.497   3.130  33.663  0.00  0.00    -0.000 C 
ENDBRANCH  27  28
ENDBRANCH  25  26
ENDBRANCH  23  25
ENDBRANCH   2  19
TORSDOF 7
