MODEL 3236
MODEL 1
REMARK VINA RESULT:    -6.738      0.000      0.000
REMARK INTER + INTRA:         -10.927
REMARK INTER:                  -9.102
REMARK INTRA:                  -1.825
REMARK UNBOUND:                -1.825
REMARK  Name = No_3236-gen_results/8p0m/2024-11-26-14-13-15/
REMARK  7 active torsions:
REMARK  status: ('A' for Active; 'I' for Inactive)
REMARK    1  A    between atoms: C_1  and  O_16
REMARK    2  A    between atoms: C_3  and  C_7
REMARK    3  A    between atoms: C_4  and  C_13
REMARK    4  A    between atoms: C_8  and  C_19
REMARK    5  A    between atoms: C_23  and  C_25
REMARK    6  A    between atoms: C_25  and  C_26
REMARK    7  A    between atoms: C_27  and  C_28
REMARK                            x       y       z     vdW  Elec       q    Type
REMARK                         _______ _______ _______ _____ _____    ______ ____
ROOT
ATOM      1  C   UNL A   1     -24.790  -1.786  28.746  0.00  0.00    -0.000 A 
ATOM      2  C   UNL A   1     -25.904  -1.863  29.495  0.00  0.00    -0.000 A 
ATOM      3  C   UNL A   1     -26.518  -2.585  29.914  0.00  0.00    -0.000 A 
ATOM      4  C   UNL A   1     -26.013  -4.055  29.724  0.00  0.00    -0.000 A 
ATOM      5  C   UNL A   1     -24.885  -4.152  28.936  0.00  0.00    -0.000 A 
ATOM      6  C   UNL A   1     -24.314  -3.080  28.355  0.00  0.00    -0.000 A 
ENDROOT
BRANCH   1   9
ATOM      7  C   UNL A   1     -25.032   0.363  25.779  0.00  0.00    +0.141 A 
ATOM      8  C   UNL A   1     -25.259  -0.480  26.617  0.00  0.00    +0.037 A 
ATOM      9  C   UNL A   1     -24.560  -0.634  27.801  0.00  0.00    +0.001 A 
ATOM     10  C   UNL A   1     -23.510   0.295  28.061  0.00  0.00    +0.005 A 
ATOM     11  C   UNL A   1     -23.382   1.313  27.195  0.00  0.00    +0.139 A 
ATOM     12  C   UNL A   1     -24.118   1.403  26.124  0.00  0.00    +0.066 A 
ATOM     13  F   UNL A   1     -22.441   2.189  27.391  0.00  0.00    -0.204 F 
BRANCH  10  14
ATOM     14  C   UNL A   1     -22.728   0.100  29.287  0.00  0.00    +0.025 C 
ATOM     15  C   UNL A   1     -23.168   0.784  30.391  0.00  0.00    +0.005 C 
ATOM     16  C   UNL A   1     -21.537  -0.646  29.200  0.00  0.00    +0.005 C 
ENDBRANCH  10  14
BRANCH   7  17
ATOM     17  O   UNL A   1     -25.895   0.312  24.678  0.00  0.00    -0.471 OA
ATOM     18  C   UNL A   1     -27.042  -0.204  24.670  0.00  0.00    +0.253 C 
ENDBRANCH   7  17
ENDBRANCH   1   9
BRANCH   2  19
ATOM     19  C   UNL A   1     -26.543  -0.319  29.836  0.00  0.00    -0.000 A 
ATOM     20  C   UNL A   1     -26.740  -0.068  30.992  0.00  0.00    -0.000 A 
ATOM     21  C   UNL A   1     -27.916   0.720  31.250  0.00  0.00    -0.000 A 
ATOM     22  C   UNL A   1     -28.479   1.295  30.652  0.00  0.00    -0.004 A 
ATOM     23  C   UNL A   1     -28.214   1.166  29.161  0.00  0.00    -0.018 A 
ATOM     24  C   UNL A   1     -27.796  -0.175  28.945  0.00  0.00    -0.004 A 
BRANCH  23  25
ATOM     25  C   UNL A   1     -29.423   1.571  28.248  0.00  0.00    +0.052 C 
BRANCH  25  26
ATOM     26  C   UNL A   1     -29.070   2.278  27.097  0.00  0.00    -0.021 C 
ATOM     27  C   UNL A   1     -27.943   2.722  26.984  0.00  0.00    -0.004 C 
BRANCH  27  28
ATOM     28  C   UNL A   1     -27.548   3.286  25.759  0.00  0.00    -0.000 C 
ATOM     29  C   UNL A   1     -28.272   3.225  24.554  0.00  0.00    -0.000 C 
ENDBRANCH  27  28
ENDBRANCH  25  26
ENDBRANCH  23  25
ENDBRANCH   2  19
TORSDOF 7
ENDMDL
ENDMDL
