MODEL 3237
MODEL 1
REMARK VINA RESULT:    -7.533      0.000      0.000
REMARK INTER + INTRA:         -10.332
REMARK INTER:                  -9.295
REMARK INTRA:                  -1.037
REMARK UNBOUND:                -1.037
REMARK  Name = No_3237-gen_results/8p0m/2024-11-26-14-13-15/
REMARK  4 active torsions:
REMARK  status: ('A' for Active; 'I' for Inactive)
REMARK    1  A    between atoms: C_2  and  C_17
REMARK    2  A    between atoms: C_6  and  O_7
REMARK    3  A    between atoms: O_7  and  C_9
REMARK    4  A    between atoms: C_9  and  C_10
REMARK                            x       y       z     vdW  Elec       q    Type
REMARK                         _______ _______ _______ _____ _____    ______ ____
ROOT
ATOM      1  C   UNL A   1     -24.387  -0.253  27.600  0.00  0.00    +0.038 A 
ATOM      2  C   UNL A   1     -24.673   0.723  26.946  0.00  0.00    +0.009 A 
ATOM      3  C   UNL A   1     -23.810   1.811  26.864  0.00  0.00    +0.035 A 
ATOM      4  C   UNL A   1     -22.568   1.828  27.594  0.00  0.00    +0.010 A 
ATOM      5  C   UNL A   1     -22.328   0.669  28.344  0.00  0.00    +0.038 A 
ATOM      6  C   UNL A   1     -23.184  -0.325  28.400  0.00  0.00    +0.149 A 
ATOM      7 BR   UNL A   1     -24.142   3.395  25.859  0.00  0.00    -0.049 Br
ENDROOT
BRANCH   2   8
ATOM      8  C   UNL A   1     -25.959   0.828  26.137  0.00  0.00    +0.001 A 
ATOM      9  C   UNL A   1     -26.971   1.292  26.824  0.00  0.00    +0.000 A 
ATOM     10  C   UNL A   1     -25.983   0.262  24.895  0.00  0.00    +0.000 A 
ATOM     11  C   UNL A   1     -28.281   1.277  26.163  0.00  0.00    +0.000 A 
ATOM     12  C   UNL A   1     -27.182   0.221  24.174  0.00  0.00    +0.000 A 
ATOM     13  C   UNL A   1     -28.355   0.779  24.796  0.00  0.00    +0.000 A 
ENDBRANCH   2   8
BRANCH   6  14
ATOM     14  O   UNL A   1     -22.891  -1.399  29.183  0.00  0.00    -0.421 OA
BRANCH  14  15
ATOM     15  C   UNL A   1     -23.778  -1.820  30.168  0.00  0.00    +0.346 C 
ATOM     16  O   UNL A   1     -23.486  -1.414  31.378  0.00  0.00    -0.244 OA
BRANCH  15  17
ATOM     17  C   UNL A   1     -24.685  -2.662  29.803  0.00  0.00    +0.076 A 
ATOM     18  C   UNL A   1     -25.915  -2.545  30.148  0.00  0.00    +0.006 A 
ATOM     19  C   UNL A   1     -26.692  -3.698  30.129  0.00  0.00    +0.000 A 
ATOM     20  C   UNL A   1     -26.272  -4.817  29.374  0.00  0.00    +0.000 A 
ATOM     21  C   UNL A   1     -24.155  -3.949  29.223  0.00  0.00    +0.006 A 
ATOM     22  C   UNL A   1     -24.970  -5.032  29.086  0.00  0.00    +0.000 A 
ENDBRANCH  15  17
ENDBRANCH  14  15
ENDBRANCH   6  14
TORSDOF 4
ENDMDL
ENDMDL
