REMARK  Name = No_3237-gen_results/8p0m/2024-11-26-14-13-15/
REMARK  4 active torsions:
REMARK  status: ('A' for Active; 'I' for Inactive)
REMARK    1  A    between atoms: C_2  and  C_17
REMARK    2  A    between atoms: C_6  and  O_7
REMARK    3  A    between atoms: O_7  and  C_9
REMARK    4  A    between atoms: C_9  and  C_10
REMARK                            x       y       z     vdW  Elec       q    Type
REMARK                         _______ _______ _______ _____ _____    ______ ____
ROOT
ATOM      1  C   UNL A   1     -28.016  -0.814  28.878  0.00  0.00    +0.038 A 
ATOM      2  C   UNL A   1     -27.064  -0.119  28.608  0.00  0.00    +0.009 A 
ATOM      3  C   UNL A   1     -25.792  -0.430  29.076  0.00  0.00    +0.035 A 
ATOM      4  C   UNL A   1     -25.576  -1.565  29.936  0.00  0.00    +0.010 A 
ATOM      5  C   UNL A   1     -26.735  -2.300  30.217  0.00  0.00    +0.038 A 
ATOM      6  C   UNL A   1     -27.918  -1.954  29.763  0.00  0.00    +0.149 A 
ATOM      7 BR   UNL A   1     -24.217   0.577  28.708  0.00  0.00    -0.049 Br
ENDROOT
BRANCH   2   8
ATOM      8  C   UNL A   1     -27.166   1.111  27.715  0.00  0.00    +0.001 A 
ATOM      9  C   UNL A   1     -27.388   2.218  28.376  0.00  0.00    +0.000 A 
ATOM     10  C   UNL A   1     -27.220   0.920  26.365  0.00  0.00    +0.000 A 
ATOM     11  C   UNL A   1     -27.654   3.421  27.579  0.00  0.00    +0.000 A 
ATOM     12  C   UNL A   1     -27.445   2.011  25.518  0.00  0.00    +0.000 A 
ATOM     13  C   UNL A   1     -27.624   3.304  26.127  0.00  0.00    +0.000 A 
ENDBRANCH   2   8
BRANCH   6  14
ATOM     14  O   UNL A   1     -29.000  -2.701  30.115  0.00  0.00    -0.421 OA
BRANCH  14  15
ATOM     15  C   UNL A   1     -29.371  -2.825  31.449  0.00  0.00    +0.346 C 
ATOM     16  O   UNL A   1     -29.214  -4.024  31.952  0.00  0.00    -0.244 OA
BRANCH  15  17
ATOM     17  C   UNL A   1     -29.947  -1.802  31.983  0.00  0.00    +0.076 A 
ATOM     18  C   UNL A   1     -30.511  -0.884  31.285  0.00  0.00    +0.006 A 
ATOM     19  C   UNL A   1     -30.663   0.363  31.882  0.00  0.00    +0.000 A 
ATOM     20  C   UNL A   1     -30.598   0.483  33.289  0.00  0.00    +0.000 A 
ATOM     21  C   UNL A   1     -29.636  -1.593  33.444  0.00  0.00    +0.006 A 
ATOM     22  C   UNL A   1     -29.918  -0.405  34.047  0.00  0.00    +0.000 A 
ENDBRANCH  15  17
ENDBRANCH  14  15
ENDBRANCH   6  14
TORSDOF 4
