MODEL 3238
MODEL 1
REMARK VINA RESULT:    -8.481      0.000      0.000
REMARK INTER + INTRA:         -15.035
REMARK INTER:                 -12.447
REMARK INTRA:                  -2.588
REMARK UNBOUND:                -2.588
REMARK  Name = No_3238-gen_results/8p0m/2024-11-26-14-13-15/
REMARK  8 active torsions:
REMARK  status: ('A' for Active; 'I' for Inactive)
REMARK    1  A    between atoms: C_3  and  C_5
REMARK    2  A    between atoms: C_5  and  C_6
REMARK    3  A    between atoms: C_6  and  C_7
REMARK    4  A    between atoms: C_11  and  C_15
REMARK    5  A    between atoms: C_12  and  C_14
REMARK    6  A    between atoms: C_15  and  C_18
REMARK    7  A    between atoms: C_28  and  C_29
REMARK    8  A    between atoms: C_29  and  C_30
REMARK                            x       y       z     vdW  Elec       q    Type
REMARK                         _______ _______ _______ _____ _____    ______ ____
ROOT
ATOM      1  C   UNL A   1     -24.824   0.743  26.552  0.00  0.00    -0.023 A 
ATOM      2  C   UNL A   1     -23.766   1.391  25.765  0.00  0.00    -0.004 A 
ATOM      3  C   UNL A   1     -22.624   1.917  26.405  0.00  0.00    -0.001 A 
ATOM      4  C   UNL A   1     -22.491   1.704  27.787  0.00  0.00    -0.004 A 
ATOM      5  C   UNL A   1     -23.453   1.072  28.519  0.00  0.00    -0.018 A 
ATOM      6  C   UNL A   1     -24.576   0.616  27.931  0.00  0.00    -0.008 A 
ENDROOT
BRANCH   1   7
ATOM      7  C   UNL A   1     -25.900   0.422  25.922  0.00  0.00    +0.023 C 
ATOM      8  C   UNL A   1     -25.860  -0.432  24.708  0.00  0.00    +0.005 C 
BRANCH   7   9
ATOM      9  C   UNL A   1     -27.175   0.831  26.481  0.00  0.00    +0.013 C 
BRANCH   9  12
ATOM     10  O   UNL A   1     -29.859  -0.204  26.391  0.00  0.00    -0.275 OA
ATOM     11  C   UNL A   1     -29.137   0.192  25.585  0.00  0.00    +0.225 C 
ATOM     12  C   UNL A   1     -28.017   0.928  25.919  0.00  0.00    +0.079 C 
ATOM     13  N   UNL A   1     -29.589   0.432  24.211  0.00  0.00    -0.281 N 
ATOM     14  C   UNL A   1     -30.486   0.266  23.680  0.00  0.00    +0.093 C 
ATOM     15  C   UNL A   1     -31.207   0.856  23.220  0.00  0.00    +0.022 C 
ATOM     16  C   UNL A   1     -30.962   1.724  22.674  0.00  0.00    +0.004 C 
ATOM     17  C   UNL A   1     -29.199   2.022  23.819  0.00  0.00    +0.076 C 
ATOM     18  C   UNL A   1     -30.038   2.570  22.897  0.00  0.00    +0.020 C 
ATOM     19  C   UNL A   1     -28.027   2.367  25.066  0.00  0.00    +0.029 C 
ENDBRANCH   9  12
ENDBRANCH   7   9
ENDBRANCH   1   7
BRANCH   6  20
ATOM     20  C   UNL A   1     -24.065  -0.835  28.176  0.00  0.00    -0.005 C 
ATOM     21  C   UNL A   1     -24.729  -1.875  28.526  0.00  0.00    -0.014 C 
BRANCH  21  22
ATOM     22  C   UNL A   1     -24.234  -3.175  28.816  0.00  0.00    +0.140 C 
BRANCH  22  23
ATOM     23  C   UNL A   1     -25.095  -4.216  29.313  0.00  0.00    +0.369 C 
ATOM     24  O   UNL A   1     -24.887  -5.404  28.941  0.00  0.00    -0.245 OA
ATOM     25  O   UNL A   1     -26.321  -3.895  29.664  0.00  0.00    -0.245 OA
ENDBRANCH  22  23
ENDBRANCH  21  22
ENDBRANCH   6  20
BRANCH   5  26
ATOM     26  C   UNL A   1     -23.473   1.412  29.939  0.00  0.00    +0.053 C 
BRANCH  26  27
ATOM     27  C   UNL A   1     -23.727   0.620  30.947  0.00  0.00    -0.018 A 
ATOM     28  C   UNL A   1     -24.883   0.676  31.685  0.00  0.00    -0.004 A 
ATOM     29  C   UNL A   1     -25.098  -0.175  32.818  0.00  0.00    -0.000 A 
ATOM     30  C   UNL A   1     -24.091  -1.112  33.066  0.00  0.00    -0.000 A 
ATOM     31  C   UNL A   1     -22.932  -1.227  32.381  0.00  0.00    -0.000 A 
ATOM     32  C   UNL A   1     -22.757  -0.371  31.334  0.00  0.00    -0.004 A 
ENDBRANCH  26  27
ENDBRANCH   5  26
TORSDOF 8
ENDMDL
ENDMDL
