REMARK  Name = No_3238-gen_results/8p0m/2024-11-26-14-13-15/
REMARK  8 active torsions:
REMARK  status: ('A' for Active; 'I' for Inactive)
REMARK    1  A    between atoms: C_3  and  C_5
REMARK    2  A    between atoms: C_5  and  C_6
REMARK    3  A    between atoms: C_6  and  C_7
REMARK    4  A    between atoms: C_11  and  C_15
REMARK    5  A    between atoms: C_12  and  C_14
REMARK    6  A    between atoms: C_15  and  C_18
REMARK    7  A    between atoms: C_28  and  C_29
REMARK    8  A    between atoms: C_29  and  C_30
REMARK                            x       y       z     vdW  Elec       q    Type
REMARK                         _______ _______ _______ _____ _____    ______ ____
ROOT
ATOM      1  C   UNL A   1     -28.337   0.648  26.261  0.00  0.00    -0.023 A 
ATOM      2  C   UNL A   1     -29.347   0.690  25.195  0.00  0.00    -0.004 A 
ATOM      3  C   UNL A   1     -30.691   0.992  25.501  0.00  0.00    -0.001 A 
ATOM      4  C   UNL A   1     -30.998   1.350  26.824  0.00  0.00    -0.004 A 
ATOM      5  C   UNL A   1     -30.057   1.348  27.812  0.00  0.00    -0.018 A 
ATOM      6  C   UNL A   1     -28.782   1.005  27.547  0.00  0.00    -0.008 A 
ENDROOT
BRANCH   1   7
ATOM      7  C   UNL A   1     -27.167   0.222  25.933  0.00  0.00    +0.023 C 
ATOM      8  C   UNL A   1     -26.815  -0.062  24.518  0.00  0.00    +0.005 C 
BRANCH   7   9
ATOM      9  C   UNL A   1     -26.156   0.116  26.968  0.00  0.00    +0.013 C 
BRANCH   9  12
ATOM     10  O   UNL A   1     -28.123  -1.335  28.487  0.00  0.00    -0.275 OA
ATOM     11  C   UNL A   1     -27.481  -0.404  28.709  0.00  0.00    +0.225 C 
ATOM     12  C   UNL A   1     -26.380  -0.087  27.939  0.00  0.00    +0.079 C 
ATOM     13  N   UNL A   1     -27.423   0.175  30.055  0.00  0.00    -0.281 N 
ATOM     14  C   UNL A   1     -27.912  -0.013  30.971  0.00  0.00    +0.093 C 
ATOM     15  C   UNL A   1     -27.634  -0.341  31.917  0.00  0.00    +0.022 C 
ATOM     16  C   UNL A   1     -26.736  -0.038  32.378  0.00  0.00    +0.004 C 
ATOM     17  C   UNL A   1     -25.801   0.270  30.496  0.00  0.00    +0.076 C 
ATOM     18  C   UNL A   1     -25.605   0.194  31.842  0.00  0.00    +0.020 C 
ATOM     19  C   UNL A   1     -25.047   0.100  28.932  0.00  0.00    +0.029 C 
ENDBRANCH   9  12
ENDBRANCH   7   9
ENDBRANCH   1   7
BRANCH   6  20
ATOM     20  C   UNL A   1     -28.378   2.492  27.778  0.00  0.00    -0.005 C 
ATOM     21  C   UNL A   1     -27.230   2.978  28.078  0.00  0.00    -0.014 C 
BRANCH  21  22
ATOM     22  C   UNL A   1     -26.896   4.330  28.358  0.00  0.00    +0.140 C 
BRANCH  22  23
ATOM     23  C   UNL A   1     -25.566   4.712  28.754  0.00  0.00    +0.369 C 
ATOM     24  O   UNL A   1     -25.348   5.916  29.065  0.00  0.00    -0.245 OA
ATOM     25  O   UNL A   1     -24.554   4.011  28.292  0.00  0.00    -0.245 OA
ENDBRANCH  22  23
ENDBRANCH  21  22
ENDBRANCH   6  20
BRANCH   5  26
ATOM     26  C   UNL A   1     -30.581   1.175  29.164  0.00  0.00    +0.053 C 
BRANCH  26  27
ATOM     27  C   UNL A   1     -31.361   0.224  29.603  0.00  0.00    -0.018 A 
ATOM     28  C   UNL A   1     -31.821   0.153  30.894  0.00  0.00    -0.004 A 
ATOM     29  C   UNL A   1     -32.632  -0.938  31.349  0.00  0.00    -0.000 A 
ATOM     30  C   UNL A   1     -32.983  -1.875  30.372  0.00  0.00    -0.000 A 
ATOM     31  C   UNL A   1     -32.571  -1.866  29.085  0.00  0.00    -0.000 A 
ATOM     32  C   UNL A   1     -31.772  -0.827  28.709  0.00  0.00    -0.004 A 
ENDBRANCH  26  27
ENDBRANCH   5  26
TORSDOF 8
