MODEL 323
MODEL 1
REMARK VINA RESULT:    -4.294      0.000      0.000
REMARK INTER + INTRA:          -4.294
REMARK INTER:                  -4.294
REMARK INTRA:                   0.000
REMARK UNBOUND:                 0.000
REMARK  Name = No_323-gen_results/8p0m/2024-11-26-14-13-15/
REMARK  0 active torsions:
REMARK  status: ('A' for Active; 'I' for Inactive)
REMARK                            x       y       z     vdW  Elec       q    Type
REMARK                         _______ _______ _______ _____ _____    ______ ____
ROOT
ATOM      1  C   UNL A   1     -24.937  -5.373  28.973  0.00  0.00    +0.000 A 
ATOM      2  C   UNL A   1     -24.179  -4.678  28.741  0.00  0.00    +0.000 A 
ATOM      3  C   UNL A   1     -26.115  -4.769  29.596  0.00  0.00    +0.000 A 
ATOM      4  C   UNL A   1     -26.207  -3.419  29.827  0.00  0.00    +0.000 A 
ATOM      5  C   UNL A   1     -24.005  -3.231  28.864  0.00  0.00    +0.000 A 
ATOM      6  C   UNL A   1     -25.140  -2.637  29.465  0.00  0.00    +0.000 A 
ENDROOT
TORSDOF 0
ENDMDL
ENDMDL
