REMARK  Name = No_324-gen_results/8p0m/2024-11-26-14-13-15/
REMARK  3 active torsions:
REMARK  status: ('A' for Active; 'I' for Inactive)
REMARK    1  A    between atoms: C_4  and  C_7
REMARK    2  A    between atoms: C_6  and  C_19
REMARK    3  A    between atoms: C_7  and  C_8
REMARK                            x       y       z     vdW  Elec       q    Type
REMARK                         _______ _______ _______ _____ _____    ______ ____
ROOT
ATOM      1  C   UNL A   1     -23.661   0.103  29.845  0.00  0.00    -0.018 A 
ATOM      2  C   UNL A   1     -23.953   1.233  30.452  0.00  0.00    -0.004 A 
ATOM      3  C   UNL A   1     -22.507   0.105  28.932  0.00  0.00    -0.004 A 
ATOM      4  C   UNL A   1     -22.063   1.251  28.296  0.00  0.00    -0.000 A 
ATOM      5  C   UNL A   1     -25.090   1.330  31.403  0.00  0.00    +0.004 A 
ATOM      6  C   UNL A   1     -25.388   2.703  31.920  0.00  0.00    +0.049 A 
ATOM      7  C   UNL A   1     -22.850   2.461  28.443  0.00  0.00    +0.000 A 
ATOM      8  C   UNL A   1     -23.713   2.497  29.624  0.00  0.00    +0.001 A 
ATOM      9  C   UNL A   1     -25.157   3.674  31.309  0.00  0.00    +0.073 A 
ATOM     10  C   UNL A   1     -24.309   3.728  30.140  0.00  0.00    +0.017 A 
ATOM     11  C   UNL A   1     -26.355   2.625  33.135  0.00  0.00    +0.145 A 
ATOM     12  N   UNL A   1     -26.649   1.859  33.791  0.00  0.00    -0.225 NA
ATOM     13  C   UNL A   1     -27.029   1.899  35.040  0.00  0.00    +0.119 A 
ATOM     14  C   UNL A   1     -27.298   3.248  35.367  0.00  0.00    +0.098 A 
ATOM     15  N   UNL A   1     -26.508   3.913  33.828  0.00  0.00    -0.306 N 
ATOM     16  C   UNL A   1     -26.532   5.187  33.704  0.00  0.00    +0.136 C 
ATOM     17  C   UNL A   1     -27.067   5.686  32.869  0.00  0.00    +0.016 A 
ATOM     18  C   UNL A   1     -27.711   6.516  32.818  0.00  0.00    -0.001 A 
ATOM     19  C   UNL A   1     -28.441   7.004  31.643  0.00  0.00    -0.000 A 
ATOM     20  C   UNL A   1     -28.125   6.461  30.460  0.00  0.00    +0.001 A 
ATOM     21  C   UNL A   1     -27.206   5.498  30.383  0.00  0.00    +0.016 A 
ATOM     22  C   UNL A   1     -26.674   5.032  31.539  0.00  0.00    +0.068 A 
ATOM     23  N   UNL A   1     -25.927   4.251  31.557  0.00  0.00    -0.213 NA
ENDROOT
BRANCH   1  24
ATOM     24  C   UNL A   1     -24.355  -1.112  30.035  0.00  0.00    +0.052 C 
BRANCH  24  28
ATOM     25  C   UNL A   1     -28.016  -0.814  28.878  0.00  0.00    -0.004 A 
ATOM     26  C   UNL A   1     -28.469  -0.785  29.829  0.00  0.00    +0.006 A 
ATOM     27  C   UNL A   1     -26.546  -0.876  28.850  0.00  0.00    -0.025 A 
ATOM     28  C   UNL A   1     -25.804  -1.032  30.057  0.00  0.00    -0.021 A 
ATOM     29  C   UNL A   1     -26.537  -1.039  31.217  0.00  0.00    +0.002 A 
ATOM     30  C   UNL A   1     -27.884  -0.953  31.186  0.00  0.00    +0.080 A 
ATOM     31  C   UNL A   1     -25.755  -0.753  27.568  0.00  0.00    +0.031 C 
BRANCH  30  32
ATOM     32  C   UNL A   1     -28.744  -1.002  32.428  0.00  0.00    +0.388 C 
ATOM     33  O   UNL A   1     -29.239  -1.940  32.790  0.00  0.00    -0.241 OA
ATOM     34  O   UNL A   1     -29.048   0.246  32.911  0.00  0.00    -0.241 OA
ENDBRANCH  30  32
ENDBRANCH  24  28
ENDBRANCH   1  24
TORSDOF 3
