MODEL 3240
MODEL 1
REMARK VINA RESULT:    -4.300      0.000      0.000
REMARK INTER + INTRA:          -4.300
REMARK INTER:                  -4.300
REMARK INTRA:                   0.000
REMARK UNBOUND:                 0.000
REMARK  Name = No_3240-gen_results/8p0m/2024-11-26-14-13-15/
REMARK  0 active torsions:
REMARK  status: ('A' for Active; 'I' for Inactive)
REMARK                            x       y       z     vdW  Elec       q    Type
REMARK                         _______ _______ _______ _____ _____    ______ ____
ROOT
ATOM      1  C   UNL A   1     -24.963  -5.394  28.984  0.00  0.00    +0.000 A 
ATOM      2  C   UNL A   1     -24.197  -4.719  28.723  0.00  0.00    +0.000 A 
ATOM      3  C   UNL A   1     -26.118  -4.754  29.613  0.00  0.00    +0.000 A 
ATOM      4  C   UNL A   1     -26.182  -3.397  29.813  0.00  0.00    +0.000 A 
ATOM      5  C   UNL A   1     -23.995  -3.273  28.807  0.00  0.00    +0.000 A 
ATOM      6  C   UNL A   1     -25.108  -2.644  29.414  0.00  0.00    +0.000 A 
ENDROOT
TORSDOF 0
ENDMDL
ENDMDL
