MODEL 3241
MODEL 1
REMARK VINA RESULT:    -7.636      0.000      0.000
REMARK INTER + INTRA:          -9.694
REMARK INTER:                  -8.529
REMARK INTRA:                  -1.165
REMARK UNBOUND:                -1.165
REMARK  Name = No_3241-gen_results/8p0m/2024-11-26-14-13-15/
REMARK  2 active torsions:
REMARK  status: ('A' for Active; 'I' for Inactive)
REMARK    1  A    between atoms: C_2  and  C_22
REMARK    2  A    between atoms: C_22  and  N_23
REMARK                            x       y       z     vdW  Elec       q    Type
REMARK                         _______ _______ _______ _____ _____    ______ ____
ROOT
ATOM      1  C   UNL A   1     -13.078   3.809  37.650  0.00  0.00    +0.018 A 
ATOM      2  C   UNL A   1     -14.208   3.957  37.246  0.00  0.00    +0.027 A 
ATOM      3  C   UNL A   1     -14.715   3.410  36.080  0.00  0.00    -0.003 A 
ATOM      4  C   UNL A   1     -13.839   2.583  35.316  0.00  0.00    -0.007 A 
ATOM      5  C   UNL A   1     -12.639   2.318  35.871  0.00  0.00    +0.066 A 
ATOM      6  C   UNL A   1     -12.280   2.831  37.050  0.00  0.00    +0.077 A 
ATOM      7  N   UNL A   1     -11.825   1.468  35.134  0.00  0.00    -0.253 N 
ATOM      8  C   UNL A   1     -11.735   1.499  33.835  0.00  0.00    +0.230 C 
ATOM      9  C   UNL A   1     -12.981   1.678  33.171  0.00  0.00    +0.090 C 
ATOM     10  C   UNL A   1     -13.983   2.561  33.836  0.00  0.00    +0.037 C 
ATOM     11  C   UNL A   1     -10.571   0.966  35.785  0.00  0.00    +0.126 C 
ATOM     12  C   UNL A   1     -10.778   0.335  36.945  0.00  0.00    +0.014 A 
ATOM     13  C   UNL A   1     -10.367  -0.701  37.149  0.00  0.00    -0.001 A 
ATOM     14  C   UNL A   1     -10.757  -1.481  38.297  0.00  0.00    -0.000 A 
ATOM     15  C   UNL A   1     -11.527  -0.918  39.315  0.00  0.00    +0.002 A 
ATOM     16  C   UNL A   1     -11.974   0.348  39.136  0.00  0.00    +0.017 A 
ATOM     17  C   UNL A   1     -11.703   0.989  37.916  0.00  0.00    +0.062 A 
ATOM     18  N   UNL A   1     -12.285   2.174  37.744  0.00  0.00    -0.304 N 
ATOM     19  C   UNL A   1     -12.802   2.383  39.183  0.00  0.00    +0.080 A 
ATOM     20  C   UNL A   1     -12.525   1.585  39.911  0.00  0.00    +0.020 A 
ATOM     21  O   UNL A   1     -10.800   1.244  33.134  0.00  0.00    -0.275 OA
ENDROOT
BRANCH   2  22
ATOM     22  C   UNL A   1     -15.251   4.869  38.000  0.00  0.00    +0.245 C 
ATOM     23  F   UNL A   1     -15.233   6.097  37.540  0.00  0.00    -0.214 F 
BRANCH  22  24
ATOM     24  N   UNL A   1     -16.163   4.619  38.532  0.00  0.00    -0.243 NA
ATOM     25  C   UNL A   1     -17.066   4.074  38.527  0.00  0.00    +0.075 C 
ATOM     26  C   UNL A   1     -15.818   4.887  40.074  0.00  0.00    +0.075 C 
ATOM     27  C   UNL A   1     -15.523   4.053  40.970  0.00  0.00    +0.018 C 
ATOM     28  C   UNL A   1     -16.324   2.841  40.826  0.00  0.00    +0.003 C 
ATOM     29  C   UNL A   1     -16.931   2.645  39.440  0.00  0.00    +0.018 C 
ENDBRANCH  22  24
ENDBRANCH   2  22
TORSDOF 2
ENDMDL
ENDMDL
