REMARK  Name = No_3241-gen_results/8p0m/2024-11-26-14-13-15/
REMARK  2 active torsions:
REMARK  status: ('A' for Active; 'I' for Inactive)
REMARK    1  A    between atoms: C_2  and  C_22
REMARK    2  A    between atoms: C_22  and  N_23
REMARK                            x       y       z     vdW  Elec       q    Type
REMARK                         _______ _______ _______ _____ _____    ______ ____
ROOT
ATOM      1  C   UNL A   1     -28.016  -0.814  28.878  0.00  0.00    +0.018 A 
ATOM      2  C   UNL A   1     -27.064  -0.119  28.608  0.00  0.00    +0.027 A 
ATOM      3  C   UNL A   1     -26.972   0.714  27.506  0.00  0.00    -0.003 A 
ATOM      4  C   UNL A   1     -28.105   0.774  26.642  0.00  0.00    -0.007 A 
ATOM      5  C   UNL A   1     -29.201   0.104  27.053  0.00  0.00    +0.066 A 
ATOM      6  C   UNL A   1     -29.210  -0.603  28.185  0.00  0.00    +0.077 A 
ATOM      7  N   UNL A   1     -30.308   0.222  26.222  0.00  0.00    -0.253 N 
ATOM      8  C   UNL A   1     -30.238   0.236  24.922  0.00  0.00    +0.230 C 
ATOM      9  C   UNL A   1     -29.159   1.008  24.407  0.00  0.00    +0.090 C 
ATOM     10  C   UNL A   1     -27.887   1.000  25.188  0.00  0.00    +0.037 C 
ATOM     11  C   UNL A   1     -31.614  -0.320  26.721  0.00  0.00    +0.126 C 
ATOM     12  C   UNL A   1     -32.000   0.192  27.894  0.00  0.00    +0.014 A 
ATOM     13  C   UNL A   1     -33.026   0.648  28.044  0.00  0.00    -0.001 A 
ATOM     14  C   UNL A   1     -33.381   1.394  29.226  0.00  0.00    -0.000 A 
ATOM     15  C   UNL A   1     -32.528   1.434  30.329  0.00  0.00    +0.002 A 
ATOM     16  C   UNL A   1     -31.320   0.833  30.209  0.00  0.00    +0.017 A 
ATOM     17  C   UNL A   1     -30.968   0.275  28.969  0.00  0.00    +0.062 A 
ATOM     18  N   UNL A   1     -29.719  -0.175  28.872  0.00  0.00    -0.304 N 
ATOM     19  C   UNL A   1     -29.328  -0.083  30.362  0.00  0.00    +0.080 A 
ATOM     20  C   UNL A   1     -30.140   0.252  31.049  0.00  0.00    +0.020 A 
ATOM     21  O   UNL A   1     -31.026  -0.164  24.116  0.00  0.00    -0.275 OA
ENDROOT
BRANCH   2  22
ATOM     22  C   UNL A   1     -25.750  -0.126  29.482  0.00  0.00    +0.245 C 
ATOM     23  F   UNL A   1     -25.288   1.088  29.660  0.00  0.00    -0.214 F 
BRANCH  22  24
ATOM     24  N   UNL A   1     -25.382  -0.842  30.210  0.00  0.00    -0.243 NA
ATOM     25  C   UNL A   1     -25.627  -1.584  30.918  0.00  0.00    +0.075 C 
ATOM     26  C   UNL A   1     -23.876  -1.145  29.754  0.00  0.00    +0.075 C 
ATOM     27  C   UNL A   1     -23.431  -2.141  29.124  0.00  0.00    +0.018 C 
ATOM     28  C   UNL A   1     -24.090  -3.365  29.568  0.00  0.00    +0.003 C 
ATOM     29  C   UNL A   1     -25.426  -3.145  30.272  0.00  0.00    +0.018 C 
ENDBRANCH  22  24
ENDBRANCH   2  22
TORSDOF 2
