REMARK  Name = No_3242-gen_results/8p0m/2024-11-26-14-13-15/
REMARK  4 active torsions:
REMARK  status: ('A' for Active; 'I' for Inactive)
REMARK    1  A    between atoms: C_1  and  C_2
REMARK    2  A    between atoms: C_1  and  N_8
REMARK    3  A    between atoms: N_10  and  C_16
REMARK    4  A    between atoms: C_16  and  C_18
REMARK                            x       y       z     vdW  Elec       q    Type
REMARK                         _______ _______ _______ _____ _____    ______ ____
ROOT
ATOM      1  C   UNL A   1     -27.064  -0.119  28.608  0.00  0.00    +0.003 A 
ATOM      2  C   UNL A   1     -25.765  -0.390  29.036  0.00  0.00    -0.006 A 
ATOM      3  C   UNL A   1     -24.552   0.406  28.765  0.00  0.00    -0.016 A 
ATOM      4  C   UNL A   1     -24.696   1.448  27.799  0.00  0.00    +0.051 A 
ATOM      5  C   UNL A   1     -26.001   1.678  27.297  0.00  0.00    +0.004 A 
ATOM      6  C   UNL A   1     -27.074   0.968  27.650  0.00  0.00    -0.002 A 
ATOM      7  C   UNL A   1     -23.523   2.220  27.483  0.00  0.00    +0.265 C 
ATOM      8  N   UNL A   1     -22.337   1.716  27.745  0.00  0.00    -0.201 NA
ATOM      9  C   UNL A   1     -22.162   0.736  28.711  0.00  0.00    +0.120 C 
ATOM     10  C   UNL A   1     -23.232  -0.006  29.162  0.00  0.00    +0.050 C 
ATOM     11  O   UNL A   1     -23.598   3.199  26.678  0.00  0.00    -0.268 OA
ENDROOT
BRANCH   1  12
ATOM     12  C   UNL A   1     -28.016  -0.814  28.878  0.00  0.00    +0.163 C 
BRANCH  12  13
ATOM     13  N   UNL A   1     -28.656  -0.599  30.069  0.00  0.00    -0.207 NA
ATOM     14  C   UNL A   1     -28.457   0.366  30.739  0.00  0.00    +0.092 C 
ATOM     15  N   UNL A   1     -28.716   0.849  31.666  0.00  0.00    -0.214 NA
BRANCH  15  16
ATOM     16  C   UNL A   1     -28.228   2.132  32.129  0.00  0.00    +0.114 C 
ATOM     17  C   UNL A   1     -28.358   2.955  32.903  0.00  0.00    +0.027 C 
BRANCH  16  18
ATOM     18  C   UNL A   1     -26.968   2.280  31.257  0.00  0.00    +0.025 C 
ATOM     19  C   UNL A   1     -26.119   3.482  31.425  0.00  0.00    +0.002 C 
ENDBRANCH  16  18
ENDBRANCH  15  16
ENDBRANCH  12  13
ENDBRANCH   1  12
TORSDOF 4
