MODEL 3242
MODEL 1
REMARK VINA RESULT:    -6.427      0.000      0.000
REMARK INTER + INTRA:          -8.428
REMARK INTER:                  -7.930
REMARK INTRA:                  -0.498
REMARK UNBOUND:                -0.498
REMARK  Name = No_3242-gen_results/8p0m/2024-11-26-14-13-15/
REMARK  4 active torsions:
REMARK  status: ('A' for Active; 'I' for Inactive)
REMARK    1  A    between atoms: C_1  and  C_2
REMARK    2  A    between atoms: C_1  and  N_8
REMARK    3  A    between atoms: N_10  and  C_16
REMARK    4  A    between atoms: C_16  and  C_18
REMARK                            x       y       z     vdW  Elec       q    Type
REMARK                         _______ _______ _______ _____ _____    ______ ____
ROOT
ATOM      1  C   UNL A   1     -23.525  -0.576  30.119  0.00  0.00    +0.003 A 
ATOM      2  C   UNL A   1     -24.834  -0.740  30.572  0.00  0.00    -0.006 A 
ATOM      3  C   UNL A   1     -25.661  -1.960  30.488  0.00  0.00    -0.016 A 
ATOM      4  C   UNL A   1     -25.133  -3.014  29.681  0.00  0.00    +0.051 A 
ATOM      5  C   UNL A   1     -23.834  -2.822  29.149  0.00  0.00    +0.004 A 
ATOM      6  C   UNL A   1     -23.105  -1.720  29.334  0.00  0.00    -0.002 A 
ATOM      7  C   UNL A   1     -25.932  -4.204  29.548  0.00  0.00    +0.265 C 
ATOM      8  N   UNL A   1     -27.221  -4.139  29.796  0.00  0.00    -0.201 NA
ATOM      9  C   UNL A   1     -27.755  -3.153  30.613  0.00  0.00    +0.120 C 
ATOM     10  C   UNL A   1     -27.041  -2.007  30.891  0.00  0.00    +0.050 C 
ATOM     11  O   UNL A   1     -25.493  -5.200  28.894  0.00  0.00    -0.268 OA
ENDROOT
BRANCH   1  12
ATOM     12  C   UNL A   1     -22.903   0.454  30.231  0.00  0.00    +0.163 C 
BRANCH  12  13
ATOM     13  N   UNL A   1     -23.399   1.577  29.624  0.00  0.00    -0.207 NA
ATOM     14  C   UNL A   1     -23.385   1.727  28.442  0.00  0.00    +0.092 C 
ATOM     15  N   UNL A   1     -23.633   2.413  27.650  0.00  0.00    -0.214 NA
BRANCH  15  16
ATOM     16  C   UNL A   1     -23.465   2.179  26.231  0.00  0.00    +0.114 C 
ATOM     17  C   UNL A   1     -22.989   2.564  25.272  0.00  0.00    +0.027 C 
BRANCH  16  18
ATOM     18  C   UNL A   1     -24.098   0.782  26.103  0.00  0.00    +0.025 C 
ATOM     19  C   UNL A   1     -24.941   0.483  24.923  0.00  0.00    +0.002 C 
ENDBRANCH  16  18
ENDBRANCH  15  16
ENDBRANCH  12  13
ENDBRANCH   1  12
TORSDOF 4
ENDMDL
ENDMDL
