REMARK  Name = No_3243-gen_results/8p0m/2024-11-26-14-13-15/
REMARK  4 active torsions:
REMARK  status: ('A' for Active; 'I' for Inactive)
REMARK    1  A    between atoms: C_2  and  C_8
REMARK    2  A    between atoms: C_8  and  O_9
REMARK    3  A    between atoms: O_9  and  C_12
REMARK    4  A    between atoms: C_12  and  C_13
REMARK                            x       y       z     vdW  Elec       q    Type
REMARK                         _______ _______ _______ _____ _____    ______ ____
ROOT
ATOM      1  C   UNL A   1     -28.016  -0.814  28.878  0.00  0.00    +0.037 A 
ATOM      2  C   UNL A   1     -28.469  -0.785  29.829  0.00  0.00    +0.078 A 
ATOM      3  C   UNL A   1     -26.546  -0.876  28.850  0.00  0.00    +0.151 A 
ATOM      4  C   UNL A   1     -25.804  -1.032  30.057  0.00  0.00    +0.085 A 
ATOM      5  C   UNL A   1     -26.537  -1.039  31.217  0.00  0.00    +0.014 A 
ATOM      6  C   UNL A   1     -27.884  -0.953  31.186  0.00  0.00    +0.007 A 
ATOM      7 CL   UNL A   1     -24.139  -1.118  30.046  0.00  0.00    -0.080 Cl
ATOM      8  F   UNL A   1     -25.779  -0.830  27.713  0.00  0.00    -0.203 F 
ENDROOT
BRANCH   2   9
ATOM      9  C   UNL A   1     -30.064  -0.774  30.122  0.00  0.00    +0.344 C 
ATOM     10  O   UNL A   1     -30.625  -1.534  30.994  0.00  0.00    -0.245 OA
BRANCH   9  11
ATOM     11  O   UNL A   1     -30.686  -0.083  29.429  0.00  0.00    -0.411 OA
BRANCH  11  12
ATOM     12  C   UNL A   1     -31.797   0.235  29.293  0.00  0.00    +0.412 C 
ATOM     13  O   UNL A   1     -32.670  -0.746  29.591  0.00  0.00    -0.163 OA
BRANCH  12  14
ATOM     14  C   UNL A   1     -32.204   1.059  28.313  0.00  0.00    +0.383 C 
ATOM     15  O   UNL A   1     -31.532   1.925  27.874  0.00  0.00    -0.252 OA
ATOM     16  F   UNL A   1     -33.363   0.884  27.730  0.00  0.00    -0.157 F 
ENDBRANCH  12  14
ENDBRANCH  11  12
ENDBRANCH   9  11
ENDBRANCH   2   9
TORSDOF 4
