MODEL 3244
MODEL 1
REMARK VINA RESULT:    -7.454      0.000      0.000
REMARK INTER + INTRA:          -9.693
REMARK INTER:                  -9.198
REMARK INTRA:                  -0.495
REMARK UNBOUND:                -0.495
REMARK  Name = No_3244-gen_results/8p0m/2024-11-26-14-13-15/
REMARK  4 active torsions:
REMARK  status: ('A' for Active; 'I' for Inactive)
REMARK    1  A    between atoms: C_2  and  C_5
REMARK    2  A    between atoms: C_5  and  O_13
REMARK    3  A    between atoms: C_10  and  C_14
REMARK    4  A    between atoms: O_13  and  C_18
REMARK                            x       y       z     vdW  Elec       q    Type
REMARK                         _______ _______ _______ _____ _____    ______ ____
ROOT
ATOM      1  C   UNL A   1     -23.442  -2.184  29.083  0.00  0.00    +0.002 A 
ATOM      2  C   UNL A   1     -23.286  -1.171  29.327  0.00  0.00    +0.076 A 
ATOM      3  C   UNL A   1     -24.645  -2.787  29.513  0.00  0.00    -0.019 A 
ATOM      4  C   UNL A   1     -25.068  -4.168  29.161  0.00  0.00    +0.028 C 
ATOM      5  C   UNL A   1     -24.279  -0.270  30.097  0.00  0.00    +0.006 A 
ATOM      6  C   UNL A   1     -26.325  -4.656  29.493  0.00  0.00    +0.024 C 
ATOM      7  C   UNL A   1     -25.418  -0.805  30.527  0.00  0.00    +0.003 A 
ATOM      8  C   UNL A   1     -25.718  -2.116  30.204  0.00  0.00    +0.031 A 
ATOM      9  C   UNL A   1     -27.244  -3.903  30.245  0.00  0.00    +0.165 C 
ATOM     10  C   UNL A   1     -26.962  -2.686  30.584  0.00  0.00    +0.183 C 
ATOM     11  O   UNL A   1     -27.856  -1.883  31.253  0.00  0.00    -0.291 OA
ENDROOT
BRANCH   9  12
ATOM     12  C   UNL A   1     -28.534  -4.640  30.555  0.00  0.00    +0.372 C 
ATOM     13  O   UNL A   1     -28.915  -4.840  31.798  0.00  0.00    -0.245 OA
ATOM     14  O   UNL A   1     -29.467  -4.696  29.628  0.00  0.00    -0.245 OA
ENDBRANCH   9  12
BRANCH   2  15
ATOM     15  C   UNL A   1     -22.055  -0.375  28.843  0.00  0.00    +0.346 C 
ATOM     16  O   UNL A   1     -21.034  -0.828  28.913  0.00  0.00    -0.244 OA
BRANCH  15  17
ATOM     17  O   UNL A   1     -22.221   0.913  28.692  0.00  0.00    -0.421 OA
BRANCH  17  18
ATOM     18  C   UNL A   1     -22.591   1.530  27.776  0.00  0.00    +0.149 A 
ATOM     19  C   UNL A   1     -23.755   2.172  27.822  0.00  0.00    +0.038 A 
ATOM     20  C   UNL A   1     -24.255   2.935  26.694  0.00  0.00    +0.003 A 
ATOM     21  C   UNL A   1     -23.461   2.971  25.511  0.00  0.00    +0.000 A 
ATOM     22  C   UNL A   1     -22.281   2.272  25.445  0.00  0.00    +0.003 A 
ATOM     23  C   UNL A   1     -21.877   1.597  26.471  0.00  0.00    +0.038 A 
ENDBRANCH  17  18
ENDBRANCH  15  17
ENDBRANCH   2  15
TORSDOF 4
ENDMDL
ENDMDL
