REMARK  Name = No_3244-gen_results/8p0m/2024-11-26-14-13-15/
REMARK  4 active torsions:
REMARK  status: ('A' for Active; 'I' for Inactive)
REMARK    1  A    between atoms: C_2  and  C_5
REMARK    2  A    between atoms: C_5  and  O_13
REMARK    3  A    between atoms: C_10  and  C_14
REMARK    4  A    between atoms: O_13  and  C_18
REMARK                            x       y       z     vdW  Elec       q    Type
REMARK                         _______ _______ _______ _____ _____    ______ ____
ROOT
ATOM      1  C   UNL A   1     -28.016  -0.814  28.878  0.00  0.00    +0.002 A 
ATOM      2  C   UNL A   1     -28.469  -0.785  29.829  0.00  0.00    +0.076 A 
ATOM      3  C   UNL A   1     -27.136   0.236  28.535  0.00  0.00    -0.019 A 
ATOM      4  C   UNL A   1     -26.335   0.290  27.284  0.00  0.00    +0.028 C 
ATOM      5  C   UNL A   1     -28.230   0.301  30.904  0.00  0.00    +0.006 A 
ATOM      6  C   UNL A   1     -25.380   1.274  27.067  0.00  0.00    +0.024 C 
ATOM      7  C   UNL A   1     -27.415   1.311  30.614  0.00  0.00    +0.003 A 
ATOM      8  C   UNL A   1     -26.745   1.318  29.404  0.00  0.00    +0.031 A 
ATOM      9  C   UNL A   1     -25.164   2.320  27.982  0.00  0.00    +0.165 C 
ATOM     10  C   UNL A   1     -25.810   2.345  29.104  0.00  0.00    +0.183 C 
ATOM     11  O   UNL A   1     -25.581   3.302  30.064  0.00  0.00    -0.291 OA
ENDROOT
BRANCH   9  12
ATOM     12  C   UNL A   1     -24.122   3.327  27.530  0.00  0.00    +0.372 C 
ATOM     13  O   UNL A   1     -23.412   3.121  26.443  0.00  0.00    -0.245 OA
ATOM     14  O   UNL A   1     -24.221   4.570  27.953  0.00  0.00    -0.245 OA
ENDBRANCH   9  12
BRANCH   2  15
ATOM     15  C   UNL A   1     -29.381  -1.913  30.355  0.00  0.00    +0.346 C 
ATOM     16  O   UNL A   1     -28.965  -2.939  30.516  0.00  0.00    -0.244 OA
BRANCH  15  17
ATOM     17  O   UNL A   1     -30.669  -1.706  30.266  0.00  0.00    -0.421 OA
BRANCH  17  18
ATOM     18  C   UNL A   1     -31.274  -0.721  30.124  0.00  0.00    +0.149 A 
ATOM     19  C   UNL A   1     -32.590  -0.759  29.938  0.00  0.00    +0.038 A 
ATOM     20  C   UNL A   1     -33.372   0.447  29.739  0.00  0.00    +0.003 A 
ATOM     21  C   UNL A   1     -32.682   1.694  29.736  0.00  0.00    +0.000 A 
ATOM     22  C   UNL A   1     -31.317   1.733  29.881  0.00  0.00    +0.003 A 
ATOM     23  C   UNL A   1     -30.658   0.633  30.046  0.00  0.00    +0.038 A 
ENDBRANCH  17  18
ENDBRANCH  15  17
ENDBRANCH   2  15
TORSDOF 4
