REMARK  Name = No_3245-gen_results/8p0m/2024-11-26-14-13-15/
REMARK  1 active torsions:
REMARK  status: ('A' for Active; 'I' for Inactive)
REMARK    1  A    between atoms: C_16  and  C_21
REMARK                            x       y       z     vdW  Elec       q    Type
REMARK                         _______ _______ _______ _____ _____    ______ ____
ROOT
ATOM      1  C   UNL A   1     -28.016  -0.814  28.878  0.00  0.00    +0.011 A 
ATOM      2  C   UNL A   1     -27.064  -0.119  28.608  0.00  0.00    +0.001 A 
ATOM      3  C   UNL A   1     -25.792  -0.430  29.076  0.00  0.00    +0.004 A 
ATOM      4  C   UNL A   1     -24.546   0.349  28.823  0.00  0.00    +0.046 A 
ATOM      5  C   UNL A   1     -24.659   1.420  27.888  0.00  0.00    +0.085 A 
ATOM      6  C   UNL A   1     -25.947   1.681  27.379  0.00  0.00    +0.018 A 
ATOM      7  C   UNL A   1     -27.044   0.974  27.687  0.00  0.00    +0.002 A 
ATOM      8  C   UNL A   1     -28.024  -1.647  30.126  0.00  0.00    +0.058 A 
ATOM      9  C   UNL A   1     -26.728  -2.085  30.581  0.00  0.00    +0.011 A 
ATOM     10  C   UNL A   1     -25.591  -1.406  30.149  0.00  0.00    +0.001 A 
ATOM     11  N   UNL A   1     -23.524   2.126  27.543  0.00  0.00    -0.224 NA
ATOM     12  C   UNL A   1     -22.262   1.648  27.890  0.00  0.00    +0.200 A 
ATOM     13  N   UNL A   1     -22.107   0.698  28.772  0.00  0.00    -0.212 NA
ATOM     14  C   UNL A   1     -23.208  -0.053  29.209  0.00  0.00    +0.141 A 
ATOM     15  C   UNL A   1     -28.350   1.312  27.028  0.00  0.00    +0.000 A 
ATOM     16  C   UNL A   1     -28.309   1.876  25.834  0.00  0.00    +0.000 A 
ATOM     17  C   UNL A   1     -27.137   2.744  25.539  0.00  0.00    +0.000 A 
ATOM     18  C   UNL A   1     -25.964   2.619  26.250  0.00  0.00    +0.002 A 
ATOM     19 CL   UNL A   1     -29.354  -2.562  30.565  0.00  0.00    -0.082 Cl
ATOM     20 CL   UNL A   1     -22.914  -1.348  30.224  0.00  0.00    -0.061 Cl
ENDROOT
BRANCH  16  21
ATOM     21  C   UNL A   1     -29.477   2.230  25.096  0.00  0.00    +0.000 A 
ATOM     22  C   UNL A   1     -30.127   3.304  25.359  0.00  0.00    +0.000 A 
ATOM     23  C   UNL A   1     -31.339   3.715  24.646  0.00  0.00    +0.000 A 
ATOM     24  C   UNL A   1     -31.779   2.871  23.643  0.00  0.00    +0.000 A 
ATOM     25  C   UNL A   1     -29.866   1.382  24.073  0.00  0.00    +0.000 A 
ATOM     26  C   UNL A   1     -31.026   1.708  23.342  0.00  0.00    +0.000 A 
ENDBRANCH  16  21
TORSDOF 1
