MODEL 3245
MODEL 1
REMARK VINA RESULT:    -7.884      0.000      0.000
REMARK INTER + INTRA:          -8.849
REMARK INTER:                  -8.345
REMARK INTRA:                  -0.504
REMARK UNBOUND:                -0.504
REMARK  Name = No_3245-gen_results/8p0m/2024-11-26-14-13-15/
REMARK  1 active torsions:
REMARK  status: ('A' for Active; 'I' for Inactive)
REMARK    1  A    between atoms: C_16  and  C_21
REMARK                            x       y       z     vdW  Elec       q    Type
REMARK                         _______ _______ _______ _____ _____    ______ ____
ROOT
ATOM      1  C   UNL A   1      -9.577  -0.010  36.400  0.00  0.00    +0.011 A 
ATOM      2  C   UNL A   1     -10.490   0.601  36.905  0.00  0.00    +0.001 A 
ATOM      3  C   UNL A   1     -11.388   1.323  36.127  0.00  0.00    +0.004 A 
ATOM      4  C   UNL A   1     -12.543   2.122  36.628  0.00  0.00    +0.046 A 
ATOM      5  C   UNL A   1     -12.830   1.998  38.020  0.00  0.00    +0.085 A 
ATOM      6  C   UNL A   1     -11.941   1.213  38.781  0.00  0.00    +0.018 A 
ATOM      7  C   UNL A   1     -10.884   0.558  38.278  0.00  0.00    +0.002 A 
ATOM      8  C   UNL A   1      -9.016   0.413  35.074  0.00  0.00    +0.058 A 
ATOM      9  C   UNL A   1      -9.950   1.066  34.192  0.00  0.00    +0.011 A 
ATOM     10  C   UNL A   1     -11.104   1.635  34.725  0.00  0.00    +0.001 A 
ATOM     11  N   UNL A   1     -13.938   2.643  38.531  0.00  0.00    -0.224 NA
ATOM     12  C   UNL A   1     -14.898   3.183  37.678  0.00  0.00    +0.200 A 
ATOM     13  N   UNL A   1     -14.666   3.354  36.405  0.00  0.00    -0.212 NA
ATOM     14  C   UNL A   1     -13.545   2.765  35.801  0.00  0.00    +0.141 A 
ATOM     15  C   UNL A   1     -10.048  -0.300  39.184  0.00  0.00    +0.000 A 
ATOM     16  C   UNL A   1     -10.630  -0.818  40.251  0.00  0.00    +0.000 A 
ATOM     17  C   UNL A   1     -11.735  -0.032  40.864  0.00  0.00    +0.000 A 
ATOM     18  C   UNL A   1     -12.416   0.921  40.139  0.00  0.00    +0.002 A 
ATOM     19 CL   UNL A   1      -7.706  -0.367  34.384  0.00  0.00    -0.082 Cl
ATOM     20 CL   UNL A   1     -13.392   2.901  34.143  0.00  0.00    -0.061 Cl
ENDROOT
BRANCH  16  21
ATOM     21  C   UNL A   1      -9.951  -1.662  41.179  0.00  0.00    +0.000 A 
ATOM     22  C   UNL A   1     -10.578  -2.576  41.824  0.00  0.00    +0.000 A 
ATOM     23  C   UNL A   1      -9.940  -3.465  42.799  0.00  0.00    +0.000 A 
ATOM     24  C   UNL A   1      -8.587  -3.275  43.011  0.00  0.00    +0.000 A 
ATOM     25  C   UNL A   1      -8.589  -1.470  41.337  0.00  0.00    +0.000 A 
ATOM     26  C   UNL A   1      -7.904  -2.284  42.261  0.00  0.00    +0.000 A 
ENDBRANCH  16  21
TORSDOF 1
ENDMDL
ENDMDL
