MODEL 3246
MODEL 1
REMARK VINA RESULT:    -7.415      0.000      0.000
REMARK INTER + INTRA:          -8.842
REMARK INTER:                  -8.282
REMARK INTRA:                  -0.560
REMARK UNBOUND:                -0.560
REMARK  Name = No_3246-gen_results/8p0m/2024-11-26-14-13-15/
REMARK  2 active torsions:
REMARK  status: ('A' for Active; 'I' for Inactive)
REMARK    1  A    between atoms: C_3  and  C_4
REMARK    2  A    between atoms: C_6  and  C_13
REMARK                            x       y       z     vdW  Elec       q    Type
REMARK                         _______ _______ _______ _____ _____    ______ ____
ROOT
ATOM      1  C   UNL A   1     -24.112   0.578  27.360  0.00  0.00    +0.004 A 
ATOM      2  C   UNL A   1     -24.680  -0.444  27.668  0.00  0.00    -0.000 A 
ATOM      3  C   UNL A   1     -24.109  -1.340  28.566  0.00  0.00    -0.000 A 
ATOM      4  C   UNL A   1     -22.721   0.806  27.782  0.00  0.00    +0.071 A 
ATOM      5  C   UNL A   1     -22.115   0.009  28.722  0.00  0.00    +0.004 A 
ATOM      6  C   UNL A   1     -22.766  -1.162  29.145  0.00  0.00    -0.000 A 
ENDROOT
BRANCH   3   7
ATOM      7  C   UNL A   1     -24.701  -2.632  29.016  0.00  0.00    -0.000 A 
ATOM      8  C   UNL A   1     -26.025  -2.801  29.552  0.00  0.00    -0.000 A 
ATOM      9  C   UNL A   1     -26.464  -4.070  29.857  0.00  0.00    +0.000 A 
ATOM     10  C   UNL A   1     -25.874  -5.252  29.548  0.00  0.00    +0.000 A 
ATOM     11  C   UNL A   1     -24.048  -3.890  28.687  0.00  0.00    -0.000 A 
ATOM     12  C   UNL A   1     -24.637  -5.134  28.972  0.00  0.00    +0.000 A 
ENDBRANCH   3   7
BRANCH   4  13
ATOM     13  C   UNL A   1     -22.042   1.987  27.195  0.00  0.00    +0.419 C 
ATOM     14  F   UNL A   1     -20.943   2.248  27.666  0.00  0.00    -0.166 F 
ATOM     15  F   UNL A   1     -21.992   1.864  25.855  0.00  0.00    -0.166 F 
ATOM     16  F   UNL A   1     -22.964   3.025  27.380  0.00  0.00    -0.166 F 
ENDBRANCH   4  13
TORSDOF 2
ENDMDL
ENDMDL
