REMARK  Name = No_3247-gen_results/8p0m/2024-11-26-14-13-15/
REMARK  6 active torsions:
REMARK  status: ('A' for Active; 'I' for Inactive)
REMARK    1  A    between atoms: C_3  and  C_4
REMARK    2  A    between atoms: C_10  and  C_13
REMARK    3  A    between atoms: C_13  and  O_15
REMARK    4  A    between atoms: O_15  and  C_16
REMARK    5  A    between atoms: C_16  and  C_17
REMARK    6  A    between atoms: C_17  and  O_19
REMARK                            x       y       z     vdW  Elec       q    Type
REMARK                         _______ _______ _______ _____ _____    ______ ____
ROOT
ATOM      1  C   UNL A   1     -26.252   0.411  27.422  0.00  0.00    +0.006 A 
ATOM      2  C   UNL A   1     -24.930   0.352  27.613  0.00  0.00    +0.000 A 
ATOM      3  C   UNL A   1     -24.061   0.206  26.539  0.00  0.00    +0.000 A 
ATOM      4  C   UNL A   1     -26.830   0.525  26.198  0.00  0.00    +0.076 A 
ATOM      5  C   UNL A   1     -26.038   0.461  25.039  0.00  0.00    +0.006 A 
ATOM      6  C   UNL A   1     -24.647   0.364  25.219  0.00  0.00    +0.000 A 
ENDROOT
BRANCH   1   9
ATOM      7  C   UNL A   1     -28.016  -0.814  28.878  0.00  0.00    +0.000 A 
ATOM      8  C   UNL A   1     -28.469  -0.785  29.829  0.00  0.00    +0.000 A 
ATOM      9  C   UNL A   1     -27.087   0.290  28.638  0.00  0.00    +0.000 A 
ATOM     10  C   UNL A   1     -28.314  -0.127  30.710  0.00  0.00    +0.000 A 
ATOM     11  C   UNL A   1     -27.483   1.008  30.810  0.00  0.00    +0.000 A 
ATOM     12  C   UNL A   1     -26.777   1.172  29.687  0.00  0.00    +0.000 A 
ENDBRANCH   1   9
BRANCH   4  13
ATOM     13  C   UNL A   1     -28.272   0.533  26.022  0.00  0.00    +0.342 C 
ATOM     14  O   UNL A   1     -29.018   1.119  26.720  0.00  0.00    -0.245 OA
BRANCH  13  15
ATOM     15  O   UNL A   1     -28.743  -0.358  25.064  0.00  0.00    -0.433 OA
BRANCH  15  16
ATOM     16  C   UNL A   1     -29.894  -0.021  24.386  0.00  0.00    +0.317 C 
BRANCH  16  17
ATOM     17  C   UNL A   1     -30.999  -0.110  25.199  0.00  0.00    +0.362 C 
ATOM     18  O   UNL A   1     -31.361  -0.955  25.632  0.00  0.00    -0.246 OA
BRANCH  17  19
ATOM     19  O   UNL A   1     -31.844   0.974  25.029  0.00  0.00    -0.442 OA
ATOM     20  C   UNL A   1     -31.657   2.056  24.598  0.00  0.00    +0.256 C 
ENDBRANCH  17  19
ENDBRANCH  16  17
ENDBRANCH  15  16
ENDBRANCH  13  15
ENDBRANCH   4  13
TORSDOF 6
