MODEL 3247
MODEL 1
REMARK VINA RESULT:    -6.198      0.000      0.000
REMARK INTER + INTRA:          -9.381
REMARK INTER:                  -8.372
REMARK INTRA:                  -1.008
REMARK UNBOUND:                -1.008
REMARK  Name = No_3247-gen_results/8p0m/2024-11-26-14-13-15/
REMARK  6 active torsions:
REMARK  status: ('A' for Active; 'I' for Inactive)
REMARK    1  A    between atoms: C_3  and  C_4
REMARK    2  A    between atoms: C_10  and  C_13
REMARK    3  A    between atoms: C_13  and  O_15
REMARK    4  A    between atoms: O_15  and  C_16
REMARK    5  A    between atoms: C_16  and  C_17
REMARK    6  A    between atoms: C_17  and  O_19
REMARK                            x       y       z     vdW  Elec       q    Type
REMARK                         _______ _______ _______ _____ _____    ______ ____
ROOT
ATOM      1  C   UNL A   1     -24.222  -0.234  27.615  0.00  0.00    +0.006 A 
ATOM      2  C   UNL A   1     -24.929   0.253  26.590  0.00  0.00    +0.000 A 
ATOM      3  C   UNL A   1     -24.572   1.450  25.984  0.00  0.00    +0.000 A 
ATOM      4  C   UNL A   1     -23.027   0.275  28.013  0.00  0.00    +0.076 A 
ATOM      5  C   UNL A   1     -22.532   1.449  27.419  0.00  0.00    +0.006 A 
ATOM      6  C   UNL A   1     -23.280   1.996  26.362  0.00  0.00    +0.000 A 
ENDROOT
BRANCH   1   9
ATOM      7  C   UNL A   1     -24.249  -2.690  28.454  0.00  0.00    +0.000 A 
ATOM      8  C   UNL A   1     -24.783  -3.343  29.084  0.00  0.00    +0.000 A 
ATOM      9  C   UNL A   1     -24.843  -1.357  28.354  0.00  0.00    +0.000 A 
ATOM     10  C   UNL A   1     -25.659  -3.190  29.749  0.00  0.00    +0.000 A 
ATOM     11  C   UNL A   1     -26.444  -2.027  29.896  0.00  0.00    +0.000 A 
ATOM     12  C   UNL A   1     -25.935  -1.024  29.173  0.00  0.00    +0.000 A 
ENDBRANCH   1   9
BRANCH   4  13
ATOM     13  C   UNL A   1     -22.310  -0.245  29.165  0.00  0.00    +0.342 C 
ATOM     14  O   UNL A   1     -21.482  -1.080  29.103  0.00  0.00    -0.245 OA
BRANCH  13  15
ATOM     15  O   UNL A   1     -22.798   0.186  30.393  0.00  0.00    -0.433 OA
BRANCH  15  16
ATOM     16  C   UNL A   1     -22.825  -0.724  31.427  0.00  0.00    +0.317 C 
BRANCH  16  17
ATOM     17  C   UNL A   1     -23.915  -0.526  32.241  0.00  0.00    +0.362 C 
ATOM     18  O   UNL A   1     -24.430  -1.244  32.743  0.00  0.00    -0.246 OA
BRANCH  17  19
ATOM     19  O   UNL A   1     -24.534   0.684  31.976  0.00  0.00    -0.442 OA
ATOM     20  C   UNL A   1     -25.235   1.368  32.634  0.00  0.00    +0.256 C 
ENDBRANCH  17  19
ENDBRANCH  16  17
ENDBRANCH  15  16
ENDBRANCH  13  15
ENDBRANCH   4  13
TORSDOF 6
ENDMDL
ENDMDL
