MODEL 3248
MODEL 1
REMARK VINA RESULT:    -7.829      0.000      0.000
REMARK INTER + INTRA:          -7.829
REMARK INTER:                  -7.829
REMARK INTRA:                   0.000
REMARK UNBOUND:                 0.000
REMARK  Name = No_3248-gen_results/8p0m/2024-11-26-14-13-15/
REMARK  0 active torsions:
REMARK  status: ('A' for Active; 'I' for Inactive)
REMARK                            x       y       z     vdW  Elec       q    Type
REMARK                         _______ _______ _______ _____ _____    ______ ____
ROOT
ATOM      1  C   UNL A   1     -22.301  -0.716  28.803  0.00  0.00    +0.054 C 
ATOM      2  C   UNL A   1     -23.216  -0.931  29.564  0.00  0.00    -0.003 A 
ATOM      3  C   UNL A   1     -23.120  -0.787  30.935  0.00  0.00    -0.007 A 
ATOM      4  C   UNL A   1     -24.161  -1.105  31.894  0.00  0.00    -0.022 A 
ATOM      5  C   UNL A   1     -25.397  -1.595  31.418  0.00  0.00    -0.007 A 
ATOM      6  C   UNL A   1     -25.506  -1.763  29.991  0.00  0.00    -0.006 A 
ATOM      7  C   UNL A   1     -24.492  -1.490  29.103  0.00  0.00    +0.062 A 
ATOM      8  C   UNL A   1     -21.868   0.690  28.752  0.00  0.00    -0.021 C 
ATOM      9  C   UNL A   1     -22.263   1.457  27.790  0.00  0.00    -0.003 C 
ATOM     10  C   UNL A   1     -23.360   1.125  27.046  0.00  0.00    +0.015 A 
ATOM     11  C   UNL A   1     -23.703   1.671  25.946  0.00  0.00    +0.001 A 
ATOM     12  C   UNL A   1     -24.843   1.184  25.200  0.00  0.00    +0.000 A 
ATOM     13  C   UNL A   1     -25.622   0.114  25.682  0.00  0.00    +0.001 A 
ATOM     14  C   UNL A   1     -25.205  -0.469  26.822  0.00  0.00    +0.017 A 
ATOM     15  C   UNL A   1     -24.137  -0.004  27.518  0.00  0.00    +0.070 A 
ATOM     16  N   UNL A   1     -24.080  -0.691  28.583  0.00  0.00    -0.217 N 
ATOM     17  N   UNL A   1     -25.120   0.164  29.326  0.00  0.00    -0.234 N 
ATOM     18  C   UNL A   1     -26.253   0.415  29.751  0.00  0.00    +0.102 C 
ATOM     19  C   UNL A   1     -26.935  -0.899  29.649  0.00  0.00    +0.050 C 
ATOM     20  C   UNL A   1     -24.467   1.448  29.929  0.00  0.00    +0.076 C 
ATOM     21  C   UNL A   1     -25.417   2.451  30.098  0.00  0.00    -0.007 C 
ATOM     22  C   UNL A   1     -26.601   1.570  30.448  0.00  0.00    +0.049 C 
ATOM     23  C   UNL A   1     -23.904  -1.064  33.326  0.00  0.00    +0.031 C 
ENDROOT
TORSDOF 0
ENDMDL
ENDMDL
