MODEL 3249
MODEL 1
REMARK VINA RESULT:    -7.988      0.000      0.000
REMARK INTER + INTRA:          -9.181
REMARK INTER:                  -8.922
REMARK INTRA:                  -0.259
REMARK UNBOUND:                -0.259
REMARK  Name = No_3249-gen_results/8p0m/2024-11-26-14-13-15/
REMARK  2 active torsions:
REMARK  status: ('A' for Active; 'I' for Inactive)
REMARK    1  A    between atoms: C_5  and  C_17
REMARK    2  A    between atoms: N_19  and  C_20
REMARK                            x       y       z     vdW  Elec       q    Type
REMARK                         _______ _______ _______ _____ _____    ______ ____
ROOT
ATOM      1  C   UNL A   1     -28.453   3.298  25.110  0.00  0.00    +0.003 A 
ATOM      2  C   UNL A   1     -29.164   2.416  24.686  0.00  0.00    +0.035 A 
ATOM      3  C   UNL A   1     -28.747   1.129  24.391  0.00  0.00    -0.015 A 
ATOM      4  C   UNL A   1     -27.377   0.818  24.638  0.00  0.00    +0.001 A 
ATOM      5  C   UNL A   1     -26.650   1.763  25.256  0.00  0.00    +0.054 A 
ATOM      6  C   UNL A   1     -27.140   2.936  25.537  0.00  0.00    +0.005 A 
ATOM      7  C   UNL A   1     -29.638   0.108  23.733  0.00  0.00    +0.045 C 
ATOM      8  C   UNL A   1     -30.685   0.651  23.089  0.00  0.00    -0.015 A 
ATOM      9  C   UNL A   1     -31.718  -0.242  22.554  0.00  0.00    -0.004 A 
ATOM     10  C   UNL A   1     -32.947   0.302  22.035  0.00  0.00    -0.000 A 
ATOM     11  C   UNL A   1     -33.131   1.644  21.907  0.00  0.00    +0.000 A 
ATOM     12  C   UNL A   1     -32.110   2.533  22.321  0.00  0.00    +0.003 A 
ATOM     13  C   UNL A   1     -30.959   2.030  22.933  0.00  0.00    +0.035 A 
ATOM     14  C   UNL A   1     -30.385   2.876  23.889  0.00  0.00    +0.195 C 
ATOM     15  C   UNL A   1     -29.345  -1.278  23.849  0.00  0.00    +0.009 C 
ATOM     16  O   UNL A   1     -30.723   4.105  24.044  0.00  0.00    -0.287 OA
ENDROOT
BRANCH   5  17
ATOM     17  C   UNL A   1     -25.280   1.233  25.588  0.00  0.00    +0.253 C 
ATOM     18  O   UNL A   1     -24.789   0.426  25.017  0.00  0.00    -0.270 OA
ATOM     19  N   UNL A   1     -24.849   1.441  26.926  0.00  0.00    -0.253 N 
ATOM     20  C   UNL A   1     -25.816   1.285  28.033  0.00  0.00    +0.120 C 
BRANCH  19  21
ATOM     21  C   UNL A   1     -23.634   0.851  27.424  0.00  0.00    +0.054 A 
ATOM     22  C   UNL A   1     -22.476   1.391  27.521  0.00  0.00    +0.015 A 
ATOM     23  C   UNL A   1     -23.899  -0.310  28.312  0.00  0.00    +0.015 A 
ATOM     24  C   UNL A   1     -22.840  -0.943  28.942  0.00  0.00    +0.001 A 
ATOM     25  C   UNL A   1     -21.525  -0.415  28.848  0.00  0.00    +0.000 A 
ATOM     26  C   UNL A   1     -21.388   0.761  28.082  0.00  0.00    +0.001 A 
ENDBRANCH  19  21
ENDBRANCH   5  17
TORSDOF 2
ENDMDL
ENDMDL
