REMARK  Name = No_3249-gen_results/8p0m/2024-11-26-14-13-15/
REMARK  2 active torsions:
REMARK  status: ('A' for Active; 'I' for Inactive)
REMARK    1  A    between atoms: C_5  and  C_17
REMARK    2  A    between atoms: N_19  and  C_20
REMARK                            x       y       z     vdW  Elec       q    Type
REMARK                         _______ _______ _______ _____ _____    ______ ____
ROOT
ATOM      1  C   UNL A   1     -28.016  -0.814  28.878  0.00  0.00    +0.003 A 
ATOM      2  C   UNL A   1     -27.064  -0.119  28.608  0.00  0.00    +0.035 A 
ATOM      3  C   UNL A   1     -26.972   0.714  27.506  0.00  0.00    -0.015 A 
ATOM      4  C   UNL A   1     -28.105   0.774  26.642  0.00  0.00    +0.001 A 
ATOM      5  C   UNL A   1     -29.204   0.118  27.048  0.00  0.00    +0.054 A 
ATOM      6  C   UNL A   1     -29.213  -0.609  28.128  0.00  0.00    +0.005 A 
ATOM      7  C   UNL A   1     -25.711   1.452  27.138  0.00  0.00    +0.045 C 
ATOM      8  C   UNL A   1     -24.605   0.925  27.690  0.00  0.00    -0.015 A 
ATOM      9  C   UNL A   1     -23.338   1.651  27.549  0.00  0.00    -0.004 A 
ATOM     10  C   UNL A   1     -22.176   1.228  28.287  0.00  0.00    -0.000 A 
ATOM     11  C   UNL A   1     -22.181   0.085  29.026  0.00  0.00    +0.000 A 
ATOM     12  C   UNL A   1     -23.361  -0.694  29.101  0.00  0.00    +0.003 A 
ATOM     13  C   UNL A   1     -24.531  -0.241  28.487  0.00  0.00    +0.035 A 
ATOM     14  C   UNL A   1     -25.715  -0.611  29.135  0.00  0.00    +0.195 C 
ATOM     15  C   UNL A   1     -25.773   2.600  26.302  0.00  0.00    +0.009 C 
ATOM     16  O   UNL A   1     -25.768  -1.483  30.076  0.00  0.00    -0.287 OA
ENDROOT
BRANCH   5  17
ATOM     17  C   UNL A   1     -30.355   0.404  26.119  0.00  0.00    +0.253 C 
ATOM     18  O   UNL A   1     -31.385   0.056  26.308  0.00  0.00    -0.270 OA
ATOM     19  N   UNL A   1     -30.000   0.696  24.775  0.00  0.00    -0.253 N 
ATOM     20  C   UNL A   1     -28.909  -0.064  24.130  0.00  0.00    +0.120 C 
BRANCH  19  21
ATOM     21  C   UNL A   1     -30.999   0.833  23.747  0.00  0.00    +0.054 A 
ATOM     22  C   UNL A   1     -32.034   0.104  23.549  0.00  0.00    +0.015 A 
ATOM     23  C   UNL A   1     -31.043   2.209  23.190  0.00  0.00    +0.015 A 
ATOM     24  C   UNL A   1     -32.004   2.534  22.247  0.00  0.00    +0.001 A 
ATOM     25  C   UNL A   1     -33.022   1.604  21.906  0.00  0.00    +0.000 A 
ATOM     26  C   UNL A   1     -32.972   0.364  22.576  0.00  0.00    +0.001 A 
ENDBRANCH  19  21
ENDBRANCH   5  17
TORSDOF 2
