MODEL 324
MODEL 1
REMARK VINA RESULT:    -8.409      0.000      0.000
REMARK INTER + INTRA:         -11.113
REMARK INTER:                  -9.884
REMARK INTRA:                  -1.229
REMARK UNBOUND:                -1.229
REMARK  Name = No_324-gen_results/8p0m/2024-11-26-14-13-15/
REMARK  3 active torsions:
REMARK  status: ('A' for Active; 'I' for Inactive)
REMARK    1  A    between atoms: C_4  and  C_7
REMARK    2  A    between atoms: C_6  and  C_19
REMARK    3  A    between atoms: C_7  and  C_8
REMARK                            x       y       z     vdW  Elec       q    Type
REMARK                         _______ _______ _______ _____ _____    ______ ____
ROOT
ATOM      1  C   UNL A   1     -24.612  -2.444  29.299  0.00  0.00    -0.018 A 
ATOM      2  C   UNL A   1     -25.882  -2.726  29.497  0.00  0.00    -0.004 A 
ATOM      3  C   UNL A   1     -23.813  -3.423  28.544  0.00  0.00    -0.004 A 
ATOM      4  C   UNL A   1     -24.136  -4.767  28.493  0.00  0.00    -0.000 A 
ATOM      5  C   UNL A   1     -26.776  -1.797  30.235  0.00  0.00    +0.004 A 
ATOM      6  C   UNL A   1     -28.160  -2.302  30.500  0.00  0.00    +0.049 A 
ATOM      7  C   UNL A   1     -25.230  -5.237  29.322  0.00  0.00    +0.000 A 
ATOM      8  C   UNL A   1     -26.192  -4.208  29.717  0.00  0.00    +0.001 A 
ATOM      9  C   UNL A   1     -28.408  -3.439  30.617  0.00  0.00    +0.073 A 
ATOM     10  C   UNL A   1     -27.521  -4.517  30.242  0.00  0.00    +0.017 A 
ATOM     11  C   UNL A   1     -29.080  -1.138  30.966  0.00  0.00    +0.145 A 
ATOM     12  N   UNL A   1     -29.019  -0.090  30.917  0.00  0.00    -0.225 NA
ATOM     13  C   UNL A   1     -29.954   0.819  30.840  0.00  0.00    +0.119 A 
ATOM     14  C   UNL A   1     -31.188   0.198  31.141  0.00  0.00    +0.098 A 
ATOM     15  N   UNL A   1     -30.499  -1.519  31.025  0.00  0.00    -0.306 N 
ATOM     16  C   UNL A   1     -31.335  -2.463  31.246  0.00  0.00    +0.136 C 
ATOM     17  C   UNL A   1     -31.213  -3.167  32.095  0.00  0.00    +0.016 A 
ATOM     18  C   UNL A   1     -31.878  -3.554  32.813  0.00  0.00    -0.001 A 
ATOM     19  C   UNL A   1     -31.549  -4.407  33.961  0.00  0.00    -0.000 A 
ATOM     20  C   UNL A   1     -30.308  -4.908  34.012  0.00  0.00    +0.001 A 
ATOM     21  C   UNL A   1     -29.418  -4.605  33.067  0.00  0.00    +0.016 A 
ATOM     22  C   UNL A   1     -29.781  -3.714  32.113  0.00  0.00    +0.068 A 
ATOM     23  N   UNL A   1     -29.113  -3.417  31.317  0.00  0.00    -0.213 NA
ENDROOT
BRANCH   1  24
ATOM     24  C   UNL A   1     -23.978  -1.258  29.728  0.00  0.00    +0.052 C 
BRANCH  24  28
ATOM     25  C   UNL A   1     -22.171   1.248  27.429  0.00  0.00    -0.004 A 
ATOM     26  C   UNL A   1     -23.021   1.650  26.954  0.00  0.00    +0.006 A 
ATOM     27  C   UNL A   1     -22.416   0.240  28.474  0.00  0.00    -0.025 A 
ATOM     28  C   UNL A   1     -23.732  -0.252  28.712  0.00  0.00    -0.021 A 
ATOM     29  C   UNL A   1     -24.733   0.325  27.972  0.00  0.00    +0.002 A 
ATOM     30  C   UNL A   1     -24.455   1.265  27.043  0.00  0.00    +0.080 A 
ATOM     31  C   UNL A   1     -21.311  -0.298  29.354  0.00  0.00    +0.031 C 
BRANCH  30  32
ATOM     32  C   UNL A   1     -25.511   1.900  26.168  0.00  0.00    +0.388 C 
ATOM     33  O   UNL A   1     -26.293   1.306  25.629  0.00  0.00    -0.241 OA
ATOM     34  O   UNL A   1     -25.260   3.225  25.913  0.00  0.00    -0.241 OA
ENDBRANCH  30  32
ENDBRANCH  24  28
ENDBRANCH   1  24
TORSDOF 3
ENDMDL
ENDMDL
