REMARK  Name = No_325-gen_results/8p0m/2024-11-26-14-13-15/
REMARK  3 active torsions:
REMARK  status: ('A' for Active; 'I' for Inactive)
REMARK    1  A    between atoms: C_1  and  C_8
REMARK    2  A    between atoms: C_5  and  C_12
REMARK    3  A    between atoms: C_7  and  C_16
REMARK                            x       y       z     vdW  Elec       q    Type
REMARK                         _______ _______ _______ _____ _____    ______ ____
ROOT
ATOM      1  C   UNL A   1     -28.016  -0.814  28.878  0.00  0.00    +0.053 C 
ATOM      2  C   UNL A   1     -27.064  -0.119  28.608  0.00  0.00    +0.003 C 
ATOM      3  C   UNL A   1     -25.765  -0.390  29.036  0.00  0.00    +0.180 C 
ATOM      4  C   UNL A   1     -24.552   0.406  28.765  0.00  0.00    +0.048 C 
ATOM      5  C   UNL A   1     -24.696   1.448  27.799  0.00  0.00    +0.099 C 
ATOM      6  C   UNL A   1     -25.976   1.725  27.308  0.00  0.00    +0.024 C 
ATOM      7  C   UNL A   1     -27.072   1.013  27.654  0.00  0.00    +0.125 C 
ATOM      8  F   UNL A   1     -25.519  -1.378  29.894  0.00  0.00    -0.233 F 
ENDROOT
BRANCH   1   9
ATOM      9  C   UNL A   1     -28.604  -0.474  30.232  0.00  0.00    +0.249 C 
ATOM     10  N   UNL A   1     -28.247   0.291  30.900  0.00  0.00    -0.272 N 
ATOM     11  O   UNL A   1     -29.645  -1.379  30.549  0.00  0.00    -0.270 OA
ATOM     12  C   UNL A   1     -28.853   0.582  32.284  0.00  0.00    +0.099 C 
ATOM     13  C   UNL A   1     -28.718   1.562  32.736  0.00  0.00    +0.048 C 
ATOM     14  C   UNL A   1     -27.711   2.604  32.343  0.00  0.00    -0.023 A 
ATOM     15  C   UNL A   1     -27.127   2.346  31.053  0.00  0.00    -0.006 A 
ATOM     16  C   UNL A   1     -27.466   1.343  30.473  0.00  0.00    +0.120 C 
ATOM     17  C   UNL A   1     -26.239   3.491  30.644  0.00  0.00    -0.003 A 
ATOM     18  C   UNL A   1     -26.493   4.817  30.996  0.00  0.00    -0.000 A 
ATOM     19  C   UNL A   1     -26.740   5.029  32.294  0.00  0.00    -0.000 A 
ATOM     20  C   UNL A   1     -27.778   4.049  32.953  0.00  0.00    -0.004 A 
ENDBRANCH   1   9
BRANCH   5  21
ATOM     21  C   UNL A   1     -23.501   2.241  27.519  0.00  0.00    +0.398 C 
ATOM     22  F   UNL A   1     -23.742   3.262  26.881  0.00  0.00    -0.170 F 
ATOM     23  F   UNL A   1     -22.759   2.556  28.585  0.00  0.00    -0.170 F 
ATOM     24  F   UNL A   1     -22.599   1.469  26.702  0.00  0.00    -0.170 F 
ENDBRANCH   5  21
BRANCH   7  25
ATOM     25  C   UNL A   1     -28.373   1.355  27.067  0.00  0.00    +0.368 C 
ATOM     26  O   UNL A   1     -29.075   2.009  27.632  0.00  0.00    -0.245 OA
ATOM     27  O   UNL A   1     -28.698   0.557  25.987  0.00  0.00    -0.245 OA
ENDBRANCH   7  25
TORSDOF 3
