MODEL 3250
MODEL 1
REMARK VINA RESULT:    -8.188      0.000      0.000
REMARK INTER + INTRA:         -10.500
REMARK INTER:                  -9.624
REMARK INTRA:                  -0.876
REMARK UNBOUND:                -0.876
REMARK  Name = No_3250-gen_results/8p0m/2024-11-26-14-13-15/
REMARK  3 active torsions:
REMARK  status: ('A' for Active; 'I' for Inactive)
REMARK    1  A    between atoms: C_1  and  O_16
REMARK    2  A    between atoms: C_3  and  C_9
REMARK    3  A    between atoms: O_16  and  C_17
REMARK                            x       y       z     vdW  Elec       q    Type
REMARK                         _______ _______ _______ _____ _____    ______ ____
ROOT
ATOM      1  C   UNL A   1     -24.555  -0.453  28.348  0.00  0.00    +0.183 A 
ATOM      2  C   UNL A   1     -25.477  -0.123  27.640  0.00  0.00    +0.175 A 
ATOM      3  C   UNL A   1     -25.304   0.809  26.622  0.00  0.00    +0.031 A 
ATOM      4  C   UNL A   1     -24.030   1.446  26.410  0.00  0.00    +0.003 A 
ATOM      5  C   UNL A   1     -23.024   1.023  27.289  0.00  0.00    +0.015 A 
ATOM      6  C   UNL A   1     -23.244   0.150  28.246  0.00  0.00    +0.094 A 
ATOM      7  F   UNL A   1     -26.721  -0.586  27.769  0.00  0.00    -0.201 F 
ATOM      8 CL   UNL A   1     -21.941  -0.245  29.285  0.00  0.00    -0.079 Cl
ENDROOT
BRANCH   3   9
ATOM      9  C   UNL A   1     -26.398   1.259  25.645  0.00  0.00    +0.004 A 
ATOM     10  C   UNL A   1     -26.695   2.592  25.525  0.00  0.00    +0.000 A 
ATOM     11  C   UNL A   1     -27.746   2.946  24.660  0.00  0.00    +0.002 A 
ATOM     12  C   UNL A   1     -28.313   2.135  23.724  0.00  0.00    +0.030 A 
ATOM     13  C   UNL A   1     -27.970   0.800  23.766  0.00  0.00    +0.140 A 
ATOM     14  C   UNL A   1     -27.004   0.355  24.719  0.00  0.00    +0.030 A 
ATOM     15  F   UNL A   1     -28.492  -0.113  22.989  0.00  0.00    -0.204 F 
ENDBRANCH   3   9
BRANCH   1  16
ATOM     16  O   UNL A   1     -24.647  -1.331  29.399  0.00  0.00    -0.450 OA
BRANCH  16  17
ATOM     17  C   UNL A   1     -24.945  -2.606  29.310  0.00  0.00    +0.145 A 
ATOM     18  C   UNL A   1     -23.870  -3.346  28.810  0.00  0.00    +0.037 A 
ATOM     19  C   UNL A   1     -24.160  -4.629  28.613  0.00  0.00    +0.003 A 
ATOM     20  C   UNL A   1     -25.230  -5.126  29.221  0.00  0.00    +0.000 A 
ATOM     21  C   UNL A   1     -26.263  -4.426  29.739  0.00  0.00    +0.003 A 
ATOM     22  C   UNL A   1     -26.117  -3.108  29.768  0.00  0.00    +0.037 A 
ENDBRANCH  16  17
ENDBRANCH   1  16
TORSDOF 3
ENDMDL
ENDMDL
