REMARK  Name = No_3250-gen_results/8p0m/2024-11-26-14-13-15/
REMARK  3 active torsions:
REMARK  status: ('A' for Active; 'I' for Inactive)
REMARK    1  A    between atoms: C_1  and  O_16
REMARK    2  A    between atoms: C_3  and  C_9
REMARK    3  A    between atoms: O_16  and  C_17
REMARK                            x       y       z     vdW  Elec       q    Type
REMARK                         _______ _______ _______ _____ _____    ______ ____
ROOT
ATOM      1  C   UNL A   1     -28.016  -0.814  28.878  0.00  0.00    +0.183 A 
ATOM      2  C   UNL A   1     -27.064  -0.119  28.608  0.00  0.00    +0.175 A 
ATOM      3  C   UNL A   1     -25.792  -0.430  29.076  0.00  0.00    +0.031 A 
ATOM      4  C   UNL A   1     -25.576  -1.565  29.936  0.00  0.00    +0.003 A 
ATOM      5  C   UNL A   1     -26.735  -2.300  30.217  0.00  0.00    +0.015 A 
ATOM      6  C   UNL A   1     -27.918  -1.954  29.763  0.00  0.00    +0.094 A 
ATOM      7  F   UNL A   1     -27.135   0.993  27.875  0.00  0.00    -0.201 F 
ATOM      8 CL   UNL A   1     -29.264  -2.909  30.221  0.00  0.00    -0.079 Cl
ENDROOT
BRANCH   3   9
ATOM      9  C   UNL A   1     -24.518   0.361  28.753  0.00  0.00    +0.004 A 
ATOM     10  C   UNL A   1     -23.331   0.005  29.340  0.00  0.00    +0.000 A 
ATOM     11  C   UNL A   1     -22.205   0.799  29.057  0.00  0.00    +0.002 A 
ATOM     12  C   UNL A   1     -22.108   1.711  28.050  0.00  0.00    +0.030 A 
ATOM     13  C   UNL A   1     -23.272   2.029  27.383  0.00  0.00    +0.140 A 
ATOM     14  C   UNL A   1     -24.482   1.351  27.723  0.00  0.00    +0.030 A 
ATOM     15  F   UNL A   1     -23.354   2.944  26.452  0.00  0.00    -0.204 F 
ENDBRANCH   3   9
BRANCH   1  16
ATOM     16  O   UNL A   1     -29.309  -0.558  28.494  0.00  0.00    -0.450 OA
BRANCH  16  17
ATOM     17  C   UNL A   1     -30.256  -0.072  29.261  0.00  0.00    +0.145 A 
ATOM     18  C   UNL A   1     -30.831   1.071  28.697  0.00  0.00    +0.037 A 
ATOM     19  C   UNL A   1     -31.730   1.652  29.486  0.00  0.00    +0.003 A 
ATOM     20  C   UNL A   1     -32.236   0.939  30.484  0.00  0.00    +0.000 A 
ATOM     21  C   UNL A   1     -31.713  -0.185  31.021  0.00  0.00    +0.003 A 
ATOM     22  C   UNL A   1     -30.667  -0.700  30.389  0.00  0.00    +0.037 A 
ENDBRANCH  16  17
ENDBRANCH   1  16
TORSDOF 3
