REMARK  Name = No_3251-gen_results/8p0m/2024-11-26-14-13-15/
REMARK  5 active torsions:
REMARK  status: ('A' for Active; 'I' for Inactive)
REMARK    1  A    between atoms: C_3  and  C_7
REMARK    2  A    between atoms: C_7  and  C_8
REMARK    3  A    between atoms: C_7  and  C_9
REMARK    4  A    between atoms: C_9  and  C_10
REMARK    5  A    between atoms: C_12  and  C_23
REMARK                            x       y       z     vdW  Elec       q    Type
REMARK                         _______ _______ _______ _____ _____    ______ ____
ROOT
ATOM      1  C   UNL A   1     -26.399   0.295  27.228  0.00  0.00    +0.063 C 
ENDROOT
BRANCH   1   4
ATOM      2  C   UNL A   1     -28.016  -0.814  28.878  0.00  0.00    +0.025 A 
ATOM      3  C   UNL A   1     -28.469  -0.785  29.829  0.00  0.00    +0.140 A 
ATOM      4  C   UNL A   1     -27.136   0.236  28.535  0.00  0.00    -0.017 A 
ATOM      5  C   UNL A   1     -26.875   1.282  29.398  0.00  0.00    -0.004 A 
ATOM      6  C   UNL A   1     -28.361   0.199  30.924  0.00  0.00    +0.030 A 
ATOM      7  C   UNL A   1     -27.528   1.223  30.636  0.00  0.00    +0.002 A 
ATOM      8  F   UNL A   1     -29.442  -1.764  30.239  0.00  0.00    -0.204 F 
ENDBRANCH   1   4
BRANCH   1   9
ATOM      9  C   UNL A   1     -25.039   0.236  27.354  0.00  0.00    +0.029 C 
ATOM     10  C   UNL A   1     -24.115   1.149  27.959  0.00  0.00    -0.026 C 
ATOM     11  C   UNL A   1     -23.178   0.976  28.620  0.00  0.00    -0.005 C 
ATOM     12  C   UNL A   1     -22.312   0.347  28.651  0.00  0.00    -0.005 C 
ATOM     13  C   UNL A   1     -21.927  -0.504  27.791  0.00  0.00    -0.026 C 
ATOM     14  C   UNL A   1     -23.076  -1.188  27.316  0.00  0.00    +0.026 C 
ATOM     15  C   UNL A   1     -24.410  -1.044  27.117  0.00  0.00    +0.009 C 
ENDBRANCH   1   9
BRANCH   1  16
ATOM     16  C   UNL A   1     -27.029   0.396  26.009  0.00  0.00    +0.188 C 
ATOM     17  F   UNL A   1     -26.309   0.326  24.991  0.00  0.00    -0.232 F 
BRANCH  16  18
ATOM     18  C   UNL A   1     -28.371   0.536  25.878  0.00  0.00    +0.010 A 
ATOM     19  C   UNL A   1     -29.158   0.897  26.925  0.00  0.00    +0.005 A 
ATOM     20  C   UNL A   1     -30.598   1.128  26.568  0.00  0.00    +0.080 A 
ATOM     21  C   UNL A   1     -30.954   0.981  25.277  0.00  0.00    +0.007 A 
ATOM     22  C   UNL A   1     -28.877   0.655  24.618  0.00  0.00    -0.002 A 
ATOM     23  C   UNL A   1     -30.154   0.830  24.280  0.00  0.00    -0.000 A 
BRANCH  20  24
ATOM     24  C   UNL A   1     -31.590   1.403  27.682  0.00  0.00    +0.388 C 
ATOM     25  O   UNL A   1     -31.548   2.345  28.431  0.00  0.00    -0.241 OA
ATOM     26  O   UNL A   1     -32.457   0.444  27.849  0.00  0.00    -0.241 OA
ENDBRANCH  20  24
ENDBRANCH  16  18
ENDBRANCH   1  16
TORSDOF 5
