MODEL 3251
MODEL 1
REMARK VINA RESULT:    -8.635      0.000      0.000
REMARK INTER + INTRA:         -13.001
REMARK INTER:                 -11.159
REMARK INTRA:                  -1.842
REMARK UNBOUND:                -1.842
REMARK  Name = No_3251-gen_results/8p0m/2024-11-26-14-13-15/
REMARK  5 active torsions:
REMARK  status: ('A' for Active; 'I' for Inactive)
REMARK    1  A    between atoms: C_3  and  C_7
REMARK    2  A    between atoms: C_7  and  C_8
REMARK    3  A    between atoms: C_7  and  C_9
REMARK    4  A    between atoms: C_9  and  C_10
REMARK    5  A    between atoms: C_12  and  C_23
REMARK                            x       y       z     vdW  Elec       q    Type
REMARK                         _______ _______ _______ _____ _____    ______ ____
ROOT
ATOM      1  C   UNL A   1     -23.750  -1.042  29.329  0.00  0.00    +0.063 C 
ENDROOT
BRANCH   1   4
ATOM      2  C   UNL A   1     -24.720  -0.315  27.071  0.00  0.00    +0.025 A 
ATOM      3  C   UNL A   1     -24.713   0.393  26.291  0.00  0.00    +0.140 A 
ATOM      4  C   UNL A   1     -23.817  -0.127  28.140  0.00  0.00    -0.017 A 
ATOM      5  C   UNL A   1     -22.936   0.936  28.174  0.00  0.00    -0.004 A 
ATOM      6  C   UNL A   1     -23.891   1.602  26.087  0.00  0.00    +0.030 A 
ATOM      7  C   UNL A   1     -23.010   1.818  27.088  0.00  0.00    +0.002 A 
ATOM      8  F   UNL A   1     -25.538   0.245  25.120  0.00  0.00    -0.204 F 
ENDBRANCH   1   4
BRANCH   1   9
ATOM      9  C   UNL A   1     -24.423  -2.220  29.161  0.00  0.00    +0.029 C 
ATOM     10  C   UNL A   1     -23.998  -3.469  28.600  0.00  0.00    -0.026 C 
ATOM     11  C   UNL A   1     -24.190  -4.566  28.923  0.00  0.00    -0.005 C 
ATOM     12  C   UNL A   1     -24.999  -5.185  29.252  0.00  0.00    -0.005 C 
ATOM     13  C   UNL A   1     -26.231  -4.889  29.340  0.00  0.00    -0.026 C 
ATOM     14  C   UNL A   1     -26.322  -3.566  29.843  0.00  0.00    +0.026 C 
ATOM     15  C   UNL A   1     -25.657  -2.385  29.896  0.00  0.00    +0.009 C 
ENDBRANCH   1   9
BRANCH   1  16
ATOM     16  C   UNL A   1     -23.072  -0.731  30.485  0.00  0.00    +0.188 C 
ATOM     17  F   UNL A   1     -21.825  -0.744  30.431  0.00  0.00    -0.232 F 
BRANCH  16  18
ATOM     18  C   UNL A   1     -23.695  -0.392  31.640  0.00  0.00    +0.010 A 
ATOM     19  C   UNL A   1     -24.641   0.582  31.684  0.00  0.00    +0.005 A 
ATOM     20  C   UNL A   1     -25.313   0.734  33.018  0.00  0.00    +0.080 A 
ATOM     21  C   UNL A   1     -24.939  -0.101  34.006  0.00  0.00    +0.007 A 
ATOM     22  C   UNL A   1     -23.621  -1.268  32.682  0.00  0.00    -0.002 A 
ATOM     23  C   UNL A   1     -24.185  -1.137  33.882  0.00  0.00    -0.000 A 
BRANCH  20  24
ATOM     24  C   UNL A   1     -26.288   1.879  33.216  0.00  0.00    +0.388 C 
ATOM     25  O   UNL A   1     -27.477   1.817  33.036  0.00  0.00    -0.241 OA
ATOM     26  O   UNL A   1     -25.704   3.011  33.493  0.00  0.00    -0.241 OA
ENDBRANCH  20  24
ENDBRANCH  16  18
ENDBRANCH   1  16
TORSDOF 5
ENDMDL
ENDMDL
