REMARK  Name = No_3252-gen_results/8p0m/2024-11-26-14-13-15/
REMARK  2 active torsions:
REMARK  status: ('A' for Active; 'I' for Inactive)
REMARK    1  A    between atoms: C_1  and  C_2
REMARK    2  A    between atoms: C_1  and  C_8
REMARK                            x       y       z     vdW  Elec       q    Type
REMARK                         _______ _______ _______ _____ _____    ______ ____
ROOT
ATOM      1  C   UNL A   1     -27.064  -0.119  28.608  0.00  0.00    -0.018 A 
ATOM      2  C   UNL A   1     -25.792  -0.430  29.076  0.00  0.00    -0.004 A 
ATOM      3  C   UNL A   1     -24.546   0.349  28.823  0.00  0.00    +0.001 A 
ATOM      4  C   UNL A   1     -24.659   1.420  27.888  0.00  0.00    +0.011 A 
ATOM      5  C   UNL A   1     -25.947   1.681  27.379  0.00  0.00    +0.001 A 
ATOM      6  C   UNL A   1     -27.180   1.003  27.761  0.00  0.00    -0.004 A 
ATOM      7  C   UNL A   1     -23.490   2.157  27.567  0.00  0.00    +0.058 A 
ATOM      8 CL   UNL A   1     -23.584   3.416  26.626  0.00  0.00    -0.082 Cl
ATOM      9  C   UNL A   1     -22.165   1.671  27.912  0.00  0.00    +0.011 A 
ATOM     10  C   UNL A   1     -22.034   0.629  28.801  0.00  0.00    +0.001 A 
ATOM     11  C   UNL A   1     -23.225  -0.109  29.208  0.00  0.00    +0.000 A 
ENDROOT
BRANCH   1  12
ATOM     12  C   UNL A   1     -28.016  -0.814  28.878  0.00  0.00    +0.053 C 
BRANCH  12  13
ATOM     13  C   UNL A   1     -29.222  -0.061  29.336  0.00  0.00    -0.018 A 
ATOM     14  C   UNL A   1     -29.647  -0.263  30.446  0.00  0.00    -0.004 A 
ATOM     15  C   UNL A   1     -30.786   0.510  30.925  0.00  0.00    -0.000 A 
ATOM     16  C   UNL A   1     -31.433   1.312  30.017  0.00  0.00    -0.000 A 
ATOM     17  C   UNL A   1     -30.947   1.428  28.764  0.00  0.00    -0.000 A 
ATOM     18  C   UNL A   1     -29.823   0.752  28.370  0.00  0.00    -0.004 A 
ENDBRANCH  12  13
ENDBRANCH   1  12
TORSDOF 2
