MODEL 3252
MODEL 1
REMARK VINA RESULT:    -7.626      0.000      0.000
REMARK INTER + INTRA:          -8.979
REMARK INTER:                  -8.517
REMARK INTRA:                  -0.462
REMARK UNBOUND:                -0.462
REMARK  Name = No_3252-gen_results/8p0m/2024-11-26-14-13-15/
REMARK  2 active torsions:
REMARK  status: ('A' for Active; 'I' for Inactive)
REMARK    1  A    between atoms: C_1  and  C_2
REMARK    2  A    between atoms: C_1  and  C_8
REMARK                            x       y       z     vdW  Elec       q    Type
REMARK                         _______ _______ _______ _____ _____    ______ ____
ROOT
ATOM      1  C   UNL A   1     -23.739  -0.184  29.395  0.00  0.00    -0.018 A 
ATOM      2  C   UNL A   1     -23.455  -1.459  28.920  0.00  0.00    -0.004 A 
ATOM      3  C   UNL A   1     -24.352  -2.648  28.997  0.00  0.00    +0.001 A 
ATOM      4  C   UNL A   1     -25.541  -2.483  29.767  0.00  0.00    +0.011 A 
ATOM      5  C   UNL A   1     -25.782  -1.196  30.291  0.00  0.00    +0.001 A 
ATOM      6  C   UNL A   1     -24.965  -0.009  30.071  0.00  0.00    -0.004 A 
ATOM      7  C   UNL A   1     -26.402  -3.600  29.921  0.00  0.00    +0.058 A 
ATOM      8 CL   UNL A   1     -27.779  -3.439  30.668  0.00  0.00    -0.082 Cl
ATOM      9  C   UNL A   1     -25.968  -4.947  29.592  0.00  0.00    +0.011 A 
ATOM     10  C   UNL A   1     -24.815  -5.129  28.862  0.00  0.00    +0.001 A 
ATOM     11  C   UNL A   1     -23.939  -3.987  28.624  0.00  0.00    +0.000 A 
ENDROOT
BRANCH   1  12
ATOM     12  C   UNL A   1     -22.944   0.719  29.275  0.00  0.00    +0.053 C 
BRANCH  12  13
ATOM     13  C   UNL A   1     -22.860   1.291  27.898  0.00  0.00    -0.018 A 
ATOM     14  C   UNL A   1     -21.775   1.559  27.445  0.00  0.00    -0.004 A 
ATOM     15  C   UNL A   1     -21.677   2.061  26.080  0.00  0.00    -0.000 A 
ATOM     16  C   UNL A   1     -22.848   2.371  25.434  0.00  0.00    -0.000 A 
ATOM     17  C   UNL A   1     -24.029   2.119  26.036  0.00  0.00    -0.000 A 
ATOM     18  C   UNL A   1     -24.087   1.567  27.288  0.00  0.00    -0.004 A 
ENDBRANCH  12  13
ENDBRANCH   1  12
TORSDOF 2
ENDMDL
ENDMDL
