REMARK  Name = No_3253-gen_results/8p0m/2024-11-26-14-13-15/
REMARK  3 active torsions:
REMARK  status: ('A' for Active; 'I' for Inactive)
REMARK    1  A    between atoms: C_3  and  C_11
REMARK    2  A    between atoms: C_5  and  C_6
REMARK    3  A    between atoms: C_12  and  C_13
REMARK                            x       y       z     vdW  Elec       q    Type
REMARK                         _______ _______ _______ _____ _____    ______ ____
ROOT
ATOM      1  C   UNL A   1     -28.016  -0.814  28.878  0.00  0.00    +0.000 A 
ATOM      2  C   UNL A   1     -27.064  -0.119  28.608  0.00  0.00    +0.000 A 
ATOM      3  C   UNL A   1     -26.972   0.714  27.506  0.00  0.00    +0.000 A 
ATOM      4  C   UNL A   1     -28.105   0.774  26.642  0.00  0.00    +0.005 A 
ATOM      5  C   UNL A   1     -29.204   0.118  27.048  0.00  0.00    +0.055 A 
ATOM      6  C   UNL A   1     -29.182  -0.676  28.117  0.00  0.00    +0.005 A 
ENDROOT
BRANCH   5   7
ATOM      7  C   UNL A   1     -30.349   0.257  26.220  0.00  0.00    +0.265 C 
ATOM      8  N   UNL A   1     -30.858   1.255  25.915  0.00  0.00    -0.200 NA
ATOM      9  O   UNL A   1     -30.958  -0.837  25.774  0.00  0.00    -0.268 OA
ATOM     10  C   UNL A   1     -32.064   1.524  25.031  0.00  0.00    +0.139 C 
ENDBRANCH   5   7
BRANCH   3  11
ATOM     11  C   UNL A   1     -25.687   1.442  27.138  0.00  0.00    +0.002 C 
ATOM     12  C   UNL A   1     -24.560   1.033  27.778  0.00  0.00    +0.022 C 
BRANCH  12  13
ATOM     13  C   UNL A   1     -23.397   1.887  27.583  0.00  0.00    +0.122 C 
ATOM     14  N   UNL A   1     -22.244   1.630  28.325  0.00  0.00    -0.146 NA
ENDBRANCH  12  13
ENDBRANCH   3  11
TORSDOF 3
