REMARK  Name = No_3254-gen_results/8p0m/2024-11-26-14-13-15/
REMARK  4 active torsions:
REMARK  status: ('A' for Active; 'I' for Inactive)
REMARK    1  A    between atoms: C_3  and  C_4
REMARK    2  A    between atoms: C_7  and  C_15
REMARK    3  A    between atoms: C_8  and  C_9
REMARK    4  A    between atoms: C_13  and  O_14
REMARK                            x       y       z     vdW  Elec       q    Type
REMARK                         _______ _______ _______ _____ _____    ______ ____
ROOT
ATOM      1  C   UNL A   1     -28.016  -0.814  28.878  0.00  0.00    -0.000 A 
ATOM      2  C   UNL A   1     -28.469  -0.785  29.829  0.00  0.00    -0.000 A 
ATOM      3  C   UNL A   1     -27.087   0.290  28.638  0.00  0.00    -0.004 A 
ATOM      4  C   UNL A   1     -28.391   0.104  30.980  0.00  0.00    -0.000 A 
ATOM      5  C   UNL A   1     -27.533   1.167  30.787  0.00  0.00    -0.004 A 
ATOM      6  C   UNL A   1     -26.828   1.256  29.645  0.00  0.00    -0.022 A 
ENDROOT
BRANCH   6   7
ATOM      7  C   UNL A   1     -26.489   2.476  29.335  0.00  0.00    +0.022 C 
ATOM      8  C   UNL A   1     -27.101   3.715  30.230  0.00  0.00    +0.005 C 
ATOM      9  C   UNL A   1     -26.703   2.981  27.890  0.00  0.00    +0.005 C 
ENDBRANCH   6   7
BRANCH   3  10
ATOM     10  C   UNL A   1     -26.252   0.411  27.422  0.00  0.00    -0.001 C 
ATOM     11  C   UNL A   1     -25.138   0.675  27.231  0.00  0.00    -0.002 C 
BRANCH  11  12
ATOM     12  C   UNL A   1     -24.316   0.867  28.442  0.00  0.00    +0.009 C 
ATOM     13  C   UNL A   1     -23.353   0.354  28.637  0.00  0.00    -0.002 C 
ATOM     14  C   UNL A   1     -22.333   0.686  29.721  0.00  0.00    -0.002 C 
ATOM     15  C   UNL A   1     -23.032   1.471  30.688  0.00  0.00    +0.007 C 
ATOM     16  C   UNL A   1     -24.596   1.769  29.640  0.00  0.00    +0.160 C 
BRANCH  16  17
ATOM     17  O   UNL A   1     -24.805   3.164  29.584  0.00  0.00    -0.345 OA
ATOM     18  C   UNL A   1     -24.892   3.805  30.785  0.00  0.00    +0.175 C 
ENDBRANCH  16  17
ENDBRANCH  11  12
ENDBRANCH   3  10
TORSDOF 4
