MODEL 3254
MODEL 1
REMARK VINA RESULT:    -6.248      0.000      0.000
REMARK INTER + INTRA:          -8.213
REMARK INTER:                  -7.709
REMARK INTRA:                  -0.505
REMARK UNBOUND:                -0.505
REMARK  Name = No_3254-gen_results/8p0m/2024-11-26-14-13-15/
REMARK  4 active torsions:
REMARK  status: ('A' for Active; 'I' for Inactive)
REMARK    1  A    between atoms: C_3  and  C_4
REMARK    2  A    between atoms: C_7  and  C_15
REMARK    3  A    between atoms: C_8  and  C_9
REMARK    4  A    between atoms: C_13  and  O_14
REMARK                            x       y       z     vdW  Elec       q    Type
REMARK                         _______ _______ _______ _____ _____    ______ ____
ROOT
ATOM      1  C   UNL A   1     -12.097   1.806  38.022  0.00  0.00    -0.000 A 
ATOM      2  C   UNL A   1     -13.003   2.338  37.944  0.00  0.00    -0.000 A 
ATOM      3  C   UNL A   1     -11.498   1.476  36.728  0.00  0.00    -0.004 A 
ATOM      4  C   UNL A   1     -13.815   2.832  36.840  0.00  0.00    -0.000 A 
ATOM      5  C   UNL A   1     -13.289   2.529  35.602  0.00  0.00    -0.004 A 
ATOM      6  C   UNL A   1     -12.105   1.898  35.516  0.00  0.00    -0.022 A 
ENDROOT
BRANCH   6   7
ATOM      7  C   UNL A   1     -11.956   1.213  34.417  0.00  0.00    +0.022 C 
ATOM      8  C   UNL A   1     -10.642   1.515  33.473  0.00  0.00    +0.005 C 
ATOM      9  C   UNL A   1     -13.102   1.182  33.380  0.00  0.00    +0.005 C 
ENDBRANCH   6   7
BRANCH   3  10
ATOM     10  C   UNL A   1     -10.177   0.827  36.576  0.00  0.00    -0.001 C 
ATOM     11  C   UNL A   1      -9.694  -0.133  37.015  0.00  0.00    -0.002 C 
BRANCH  11  12
ATOM     12  C   UNL A   1     -10.582  -0.960  37.856  0.00  0.00    +0.009 C 
ATOM     13  C   UNL A   1     -11.333  -1.676  37.465  0.00  0.00    -0.002 C 
ATOM     14  C   UNL A   1     -12.093  -2.739  38.252  0.00  0.00    -0.002 C 
ATOM     15  C   UNL A   1     -11.989  -2.358  39.625  0.00  0.00    +0.007 C 
ATOM     16  C   UNL A   1     -10.663  -1.011  39.379  0.00  0.00    +0.160 C 
BRANCH  16  17
ATOM     17  O   UNL A   1      -9.591  -1.313  40.247  0.00  0.00    -0.345 OA
ATOM     18  C   UNL A   1      -8.819  -0.257  40.635  0.00  0.00    +0.175 C 
ENDBRANCH  16  17
ENDBRANCH  11  12
ENDBRANCH   3  10
TORSDOF 4
ENDMDL
ENDMDL
