REMARK  Name = No_3255-gen_results/8p0m/2024-11-26-14-13-15/
REMARK  3 active torsions:
REMARK  status: ('A' for Active; 'I' for Inactive)
REMARK    1  A    between atoms: C_2  and  O_7
REMARK    2  A    between atoms: O_7  and  C_8
REMARK    3  A    between atoms: C_8  and  C_9
REMARK                            x       y       z     vdW  Elec       q    Type
REMARK                         _______ _______ _______ _____ _____    ______ ____
ROOT
ATOM      1  O   UNL A   1     -29.834  -1.043  30.055  0.00  0.00    -0.471 OA
ENDROOT
BRANCH   1   3
ATOM      2  C   UNL A   1     -28.016  -0.814  28.878  0.00  0.00    +0.037 A 
ATOM      3  C   UNL A   1     -28.469  -0.785  29.829  0.00  0.00    +0.139 A 
ATOM      4  C   UNL A   1     -26.504  -0.778  28.877  0.00  0.00    +0.003 A 
ATOM      5  C   UNL A   1     -25.950   0.116  29.405  0.00  0.00    +0.000 A 
ATOM      6  C   UNL A   1     -27.996   0.119  30.953  0.00  0.00    +0.037 A 
ATOM      7  C   UNL A   1     -26.604   0.465  30.803  0.00  0.00    +0.003 A 
ENDBRANCH   1   3
BRANCH   1   8
ATOM      8  C   UNL A   1     -30.118  -2.279  30.471  0.00  0.00    +0.232 C 
BRANCH   8   9
ATOM      9  C   UNL A   1     -31.066  -2.419  31.447  0.00  0.00    +0.021 A 
ATOM     10  C   UNL A   1     -31.813  -1.482  31.784  0.00  0.00    -0.001 A 
ATOM     11  C   UNL A   1     -32.765  -1.573  32.883  0.00  0.00    -0.000 A 
ATOM     12  C   UNL A   1     -32.949  -2.802  33.432  0.00  0.00    -0.000 A 
ATOM     13  C   UNL A   1     -31.181  -3.705  32.188  0.00  0.00    -0.001 A 
ATOM     14  C   UNL A   1     -32.125  -3.852  33.140  0.00  0.00    -0.000 A 
ENDBRANCH   8   9
ENDBRANCH   1   8
TORSDOF 3
