MODEL 3255
MODEL 1
REMARK VINA RESULT:    -6.772      0.000      0.000
REMARK INTER + INTRA:          -8.333
REMARK INTER:                  -7.960
REMARK INTRA:                  -0.373
REMARK UNBOUND:                -0.373
REMARK  Name = No_3255-gen_results/8p0m/2024-11-26-14-13-15/
REMARK  3 active torsions:
REMARK  status: ('A' for Active; 'I' for Inactive)
REMARK    1  A    between atoms: C_2  and  O_7
REMARK    2  A    between atoms: O_7  and  C_8
REMARK    3  A    between atoms: C_8  and  C_9
REMARK                            x       y       z     vdW  Elec       q    Type
REMARK                         _______ _______ _______ _____ _____    ______ ____
ROOT
ATOM      1  O   UNL A   1     -24.804  -1.286  29.076  0.00  0.00    -0.471 OA
ENDROOT
BRANCH   1   3
ATOM      2  C   UNL A   1     -23.922  -3.268  28.883  0.00  0.00    +0.037 A 
ATOM      3  C   UNL A   1     -24.799  -2.689  28.967  0.00  0.00    +0.139 A 
ATOM      4  C   UNL A   1     -24.134  -4.717  28.504  0.00  0.00    +0.003 A 
ATOM      5  C   UNL A   1     -24.831  -5.390  29.172  0.00  0.00    +0.000 A 
ATOM      6  C   UNL A   1     -26.072  -3.191  29.624  0.00  0.00    +0.037 A 
ATOM      7  C   UNL A   1     -26.155  -4.630  29.585  0.00  0.00    +0.003 A 
ENDBRANCH   1   3
BRANCH   1   8
ATOM      8  C   UNL A   1     -23.599  -0.718  29.159  0.00  0.00    +0.232 C 
BRANCH   8   9
ATOM      9  C   UNL A   1     -23.258   0.193  28.197  0.00  0.00    +0.021 A 
ATOM     10  C   UNL A   1     -22.166   0.789  28.207  0.00  0.00    -0.001 A 
ATOM     11  C   UNL A   1     -21.815   1.832  27.252  0.00  0.00    -0.000 A 
ATOM     12  C   UNL A   1     -22.666   2.018  26.209  0.00  0.00    -0.000 A 
ATOM     13  C   UNL A   1     -24.237   0.546  27.133  0.00  0.00    -0.001 A 
ATOM     14  C   UNL A   1     -23.900   1.432  26.174  0.00  0.00    -0.000 A 
ENDBRANCH   8   9
ENDBRANCH   1   8
TORSDOF 3
ENDMDL
ENDMDL
