MODEL 3256
MODEL 1
REMARK VINA RESULT:    -5.923      0.000      0.000
REMARK INTER + INTRA:          -6.385
REMARK INTER:                  -6.270
REMARK INTRA:                  -0.115
REMARK UNBOUND:                -0.115
REMARK  Name = No_3256-gen_results/8p0m/2024-11-26-14-13-15/
REMARK  1 active torsions:
REMARK  status: ('A' for Active; 'I' for Inactive)
REMARK    1  A    between atoms: C_11  and  C_12
REMARK                            x       y       z     vdW  Elec       q    Type
REMARK                         _______ _______ _______ _____ _____    ______ ____
ROOT
ATOM      1  O   UNL A   1     -23.032   2.605  25.307  0.00  0.00    -0.268 OA
ATOM      2  C   UNL A   1     -23.480   1.812  26.142  0.00  0.00    +0.265 C 
ATOM      3  C   UNL A   1     -23.176   1.240  26.954  0.00  0.00    +0.051 A 
ATOM      4  N   UNL A   1     -24.821   1.163  25.589  0.00  0.00    -0.201 NA
ATOM      5  C   UNL A   1     -23.772   0.175  27.825  0.00  0.00    -0.010 A 
ATOM      6  C   UNL A   1     -25.057  -0.226  27.357  0.00  0.00    +0.050 C 
ATOM      7  C   UNL A   1     -25.517   0.294  26.196  0.00  0.00    +0.120 C 
ATOM      8  C   UNL A   1     -21.805   1.610  27.683  0.00  0.00    +0.004 A 
ATOM      9  C   UNL A   1     -21.012   0.719  28.183  0.00  0.00    +0.000 A 
ATOM     10  C   UNL A   1     -21.664  -0.401  28.969  0.00  0.00    +0.006 A 
ATOM     11  C   UNL A   1     -22.981  -0.795  28.589  0.00  0.00    +0.076 A 
ENDROOT
BRANCH  11  12
ATOM     12  C   UNL A   1     -23.555  -1.961  29.237  0.00  0.00    +0.387 C 
ATOM     13  O   UNL A   1     -23.450  -3.067  28.846  0.00  0.00    -0.241 OA
ATOM     14  O   UNL A   1     -23.820  -1.829  30.574  0.00  0.00    -0.241 OA
ENDBRANCH  11  12
TORSDOF 1
ENDMDL
ENDMDL
