REMARK  Name = No_3256-gen_results/8p0m/2024-11-26-14-13-15/
REMARK  1 active torsions:
REMARK  status: ('A' for Active; 'I' for Inactive)
REMARK    1  A    between atoms: C_11  and  C_12
REMARK                            x       y       z     vdW  Elec       q    Type
REMARK                         _______ _______ _______ _____ _____    ______ ____
ROOT
ATOM      1  O   UNL A   1     -28.123  -1.335  28.487  0.00  0.00    -0.268 OA
ATOM      2  C   UNL A   1     -27.064  -0.824  28.869  0.00  0.00    +0.265 C 
ATOM      3  C   UNL A   1     -26.402  -0.062  28.622  0.00  0.00    +0.051 A 
ATOM      4  N   UNL A   1     -26.265  -1.867  29.761  0.00  0.00    -0.201 NA
ATOM      5  C   UNL A   1     -25.044   0.392  29.066  0.00  0.00    -0.010 A 
ATOM      6  C   UNL A   1     -24.470  -0.514  30.004  0.00  0.00    +0.050 C 
ATOM      7  C   UNL A   1     -25.131  -1.660  30.290  0.00  0.00    +0.120 C 
ATOM      8  C   UNL A   1     -26.904   1.110  27.662  0.00  0.00    +0.004 A 
ATOM      9  C   UNL A   1     -26.139   1.681  26.790  0.00  0.00    +0.000 A 
ATOM     10  C   UNL A   1     -24.736   2.028  27.247  0.00  0.00    +0.006 A 
ATOM     11  C   UNL A   1     -24.139   1.196  28.239  0.00  0.00    +0.076 A 
ENDROOT
BRANCH  11  12
ATOM     12  C   UNL A   1     -22.746   1.431  28.575  0.00  0.00    +0.387 C 
ATOM     13  O   UNL A   1     -22.258   1.200  29.622  0.00  0.00    -0.241 OA
ATOM     14  O   UNL A   1     -21.878   1.478  27.516  0.00  0.00    -0.241 OA
ENDBRANCH  11  12
TORSDOF 1
