REMARK  Name = No_3257-gen_results/8p0m/2024-11-26-14-13-15/
REMARK  0 active torsions:
REMARK  status: ('A' for Active; 'I' for Inactive)
REMARK                            x       y       z     vdW  Elec       q    Type
REMARK                         _______ _______ _______ _____ _____    ______ ____
ROOT
ATOM      1  F   UNL A   1     -28.073  -1.254  28.532  0.00  0.00    -0.140 F 
ATOM      2  C   UNL A   1     -27.061  -0.629  28.872  0.00  0.00    +0.561 C 
ATOM      3  F   UNL A   1     -26.472  -0.547  28.009  0.00  0.00    -0.140 F 
ATOM      4  F   UNL A   1     -27.368   0.594  29.429  0.00  0.00    -0.140 F 
ATOM      5  F   UNL A   1     -26.478  -1.339  29.900  0.00  0.00    -0.140 F 
ENDROOT
TORSDOF 0
