MODEL 3257
MODEL 1
REMARK VINA RESULT:    -3.486      0.000      0.000
REMARK INTER + INTRA:          -3.486
REMARK INTER:                  -3.486
REMARK INTRA:                   0.000
REMARK UNBOUND:                 0.000
REMARK  Name = No_3257-gen_results/8p0m/2024-11-26-14-13-15/
REMARK  0 active torsions:
REMARK  status: ('A' for Active; 'I' for Inactive)
REMARK                            x       y       z     vdW  Elec       q    Type
REMARK                         _______ _______ _______ _____ _____    ______ ____
ROOT
ATOM      1  F   UNL A   1      -7.336 -10.114  21.264  0.00  0.00    -0.140 F 
ATOM      2  C   UNL A   1      -8.008  -9.688  20.317  0.00  0.00    +0.561 C 
ATOM      3  F   UNL A   1      -7.972 -10.434  19.582  0.00  0.00    -0.140 F 
ATOM      4  F   UNL A   1      -9.295  -9.369  20.695  0.00  0.00    -0.140 F 
ATOM      5  F   UNL A   1      -7.452  -8.484  19.941  0.00  0.00    -0.140 F 
ENDROOT
TORSDOF 0
ENDMDL
ENDMDL
