MODEL 3258
MODEL 1
REMARK VINA RESULT:    -7.729      0.000      0.000
REMARK INTER + INTRA:          -9.301
REMARK INTER:                  -8.633
REMARK INTRA:                  -0.668
REMARK UNBOUND:                -0.668
REMARK  Name = No_3258-gen_results/8p0m/2024-11-26-14-13-15/
REMARK  2 active torsions:
REMARK  status: ('A' for Active; 'I' for Inactive)
REMARK    1  A    between atoms: C_4  and  O_11
REMARK    2  A    between atoms: O_11  and  C_12
REMARK                            x       y       z     vdW  Elec       q    Type
REMARK                         _______ _______ _______ _____ _____    ______ ____
ROOT
ATOM      1  C   UNL A   1      -8.852   0.507  11.756  0.00  0.00    +0.003 A 
ATOM      2  C   UNL A   1      -9.271   1.037  12.565  0.00  0.00    -0.000 A 
ATOM      3  C   UNL A   1      -8.646   1.334  10.560  0.00  0.00    +0.034 A 
ATOM      4  C   UNL A   1      -7.891   0.817   9.403  0.00  0.00    +0.145 A 
ATOM      5  C   UNL A   1      -8.046   1.265   8.181  0.00  0.00    +0.037 A 
ATOM      6  C   UNL A   1      -9.915   2.318  12.654  0.00  0.00    -0.004 A 
ATOM      7  C   UNL A   1      -9.777   3.070  11.581  0.00  0.00    -0.018 A 
ATOM      8  C   UNL A   1      -9.083   2.619  10.481  0.00  0.00    -0.001 A 
ATOM      9  C   UNL A   1      -8.616   2.590   7.999  0.00  0.00    +0.003 A 
ATOM     10  C   UNL A   1      -9.155   3.225   9.223  0.00  0.00    -0.000 A 
ATOM     11  C   UNL A   1      -9.755   4.600   9.086  0.00  0.00    -0.004 A 
ATOM     12  C   UNL A   1      -9.870   5.221   7.882  0.00  0.00    -0.000 A 
ATOM     13  C   UNL A   1     -10.410   6.462   7.795  0.00  0.00    -0.000 A 
ATOM     14  C   UNL A   1     -10.907   7.084   8.905  0.00  0.00    -0.000 A 
ATOM     15  C   UNL A   1     -10.786   6.445  10.121  0.00  0.00    -0.004 A 
ATOM     16  C   UNL A   1     -10.169   5.193  10.250  0.00  0.00    -0.018 A 
ATOM     17  C   UNL A   1     -10.334   4.424  11.543  0.00  0.00    +0.053 C 
ENDROOT
BRANCH   4  18
ATOM     18  O   UNL A   1      -7.329  -0.423   9.426  0.00  0.00    -0.454 OA
BRANCH  18  19
ATOM     19  C   UNL A   1      -5.868  -0.361   9.509  0.00  0.00    +0.146 A 
ATOM     20  C   UNL A   1      -5.110  -0.889   8.406  0.00  0.00    +0.049 A 
ATOM     21  C   UNL A   1      -3.832  -1.266   8.622  0.00  0.00    +0.061 A 
ATOM     22  C   UNL A   1      -3.167  -0.940   9.866  0.00  0.00    +0.012 A 
ATOM     23  C   UNL A   1      -3.938  -0.525  10.935  0.00  0.00    +0.004 A 
ATOM     24  C   UNL A   1      -5.312  -0.281  10.766  0.00  0.00    +0.037 A 
ATOM     25 CL   UNL A   1      -2.910  -1.866   7.305  0.00  0.00    -0.082 Cl
ENDBRANCH  18  19
ENDBRANCH   4  18
TORSDOF 2
ENDMDL
ENDMDL
