REMARK  Name = No_3258-gen_results/8p0m/2024-11-26-14-13-15/
REMARK  2 active torsions:
REMARK  status: ('A' for Active; 'I' for Inactive)
REMARK    1  A    between atoms: C_4  and  O_11
REMARK    2  A    between atoms: O_11  and  C_12
REMARK                            x       y       z     vdW  Elec       q    Type
REMARK                         _______ _______ _______ _____ _____    ______ ____
ROOT
ATOM      1  C   UNL A   1     -28.016  -0.814  28.878  0.00  0.00    +0.003 A 
ATOM      2  C   UNL A   1     -28.469  -0.785  29.829  0.00  0.00    -0.000 A 
ATOM      3  C   UNL A   1     -28.182   0.428  28.113  0.00  0.00    +0.034 A 
ATOM      4  C   UNL A   1     -27.450   0.643  26.850  0.00  0.00    +0.145 A 
ATOM      5  C   UNL A   1     -27.860   1.457  25.908  0.00  0.00    +0.037 A 
ATOM      6  C   UNL A   1     -29.426   0.110  30.418  0.00  0.00    -0.004 A 
ATOM      7  C   UNL A   1     -29.623   1.220  29.735  0.00  0.00    -0.018 A 
ATOM      8  C   UNL A   1     -28.961   1.453  28.551  0.00  0.00    -0.001 A 
ATOM      9  C   UNL A   1     -28.789   2.516  26.266  0.00  0.00    +0.003 A 
ATOM     10  C   UNL A   1     -29.339   2.443  27.639  0.00  0.00    -0.000 A 
ATOM     11  C   UNL A   1     -30.306   3.519  28.058  0.00  0.00    -0.004 A 
ATOM     12  C   UNL A   1     -30.723   4.489  27.202  0.00  0.00    -0.000 A 
ATOM     13  C   UNL A   1     -31.589   5.448  27.614  0.00  0.00    -0.000 A 
ATOM     14  C   UNL A   1     -32.109   5.419  28.877  0.00  0.00    -0.000 A 
ATOM     15  C   UNL A   1     -31.680   4.431  29.738  0.00  0.00    -0.004 A 
ATOM     16  C   UNL A   1     -30.732   3.470  29.360  0.00  0.00    -0.018 A 
ATOM     17  C   UNL A   1     -30.531   2.253  30.237  0.00  0.00    +0.053 C 
ENDROOT
BRANCH   4  18
ATOM     18  O   UNL A   1     -26.570  -0.283  26.380  0.00  0.00    -0.454 OA
BRANCH  18  19
ATOM     19  C   UNL A   1     -25.188   0.197  26.435  0.00  0.00    +0.146 A 
ATOM     20  C   UNL A   1     -24.473   0.045  27.674  0.00  0.00    +0.049 A 
ATOM     21  C   UNL A   1     -23.415   0.849  27.913  0.00  0.00    +0.061 A 
ATOM     22  C   UNL A   1     -22.872   1.685  26.863  0.00  0.00    +0.012 A 
ATOM     23  C   UNL A   1     -23.629   1.886  25.724  0.00  0.00    +0.004 A 
ATOM     24  C   UNL A   1     -24.824   1.171  25.532  0.00  0.00    +0.037 A 
ATOM     25 CL   UNL A   1     -22.536   0.653  29.373  0.00  0.00    -0.082 Cl
ENDBRANCH  18  19
ENDBRANCH   4  18
TORSDOF 2
