MODEL 3259
MODEL 1
REMARK VINA RESULT:    -7.613      0.000      0.000
REMARK INTER + INTRA:         -11.743
REMARK INTER:                  -9.838
REMARK INTRA:                  -1.905
REMARK UNBOUND:                -1.905
REMARK  Name = No_3259-gen_results/8p0m/2024-11-26-14-13-15/
REMARK  5 active torsions:
REMARK  status: ('A' for Active; 'I' for Inactive)
REMARK    1  A    between atoms: C_2  and  C_24
REMARK    2  A    between atoms: C_3  and  C_7
REMARK    3  A    between atoms: C_9  and  C_10
REMARK    4  A    between atoms: C_12  and  C_21
REMARK    5  A    between atoms: C_17  and  C_27
REMARK                            x       y       z     vdW  Elec       q    Type
REMARK                         _______ _______ _______ _____ _____    ______ ____
ROOT
ATOM      1  C   UNL A   1     -25.862   2.288  25.865  0.00  0.00    +0.048 C 
ATOM      2  C   UNL A   1     -26.887   2.392  24.966  0.00  0.00    -0.021 C 
ATOM      3  C   UNL A   1     -24.937   1.269  25.824  0.00  0.00    +0.030 C 
ATOM      4  C   UNL A   1     -25.067   0.380  24.708  0.00  0.00    +0.005 C 
ATOM      5  C   UNL A   1     -27.885   1.455  24.850  0.00  0.00    +0.030 C 
ATOM      6  C   UNL A   1     -27.481   0.104  24.306  0.00  0.00    +0.027 C 
ATOM      7  C   UNL A   1     -26.266  -0.460  24.484  0.00  0.00    +0.005 C 
ATOM      8  C   UNL A   1     -28.682  -0.686  23.959  0.00  0.00    +0.005 C 
ENDROOT
BRANCH   1  11
ATOM      9  C   UNL A   1     -25.203   4.627  26.678  0.00  0.00    +0.003 A 
ATOM     10  C   UNL A   1     -25.260   5.346  27.446  0.00  0.00    +0.080 A 
ATOM     11  C   UNL A   1     -25.837   3.383  26.891  0.00  0.00    -0.018 A 
ATOM     12  C   UNL A   1     -26.502   3.094  28.067  0.00  0.00    -0.004 A 
ATOM     13  C   UNL A   1     -25.900   5.296  28.775  0.00  0.00    +0.007 A 
ATOM     14  C   UNL A   1     -26.518   4.120  29.021  0.00  0.00    -0.000 A 
BRANCH  10  15
ATOM     15  C   UNL A   1     -24.572   6.794  27.337  0.00  0.00    +0.388 C 
ATOM     16  O   UNL A   1     -24.582   7.543  28.282  0.00  0.00    -0.241 OA
ATOM     17  O   UNL A   1     -24.298   7.220  26.174  0.00  0.00    -0.241 OA
ENDBRANCH  10  15
ENDBRANCH   1  11
BRANCH   3  18
ATOM     18  C   UNL A   1     -23.966   1.112  26.756  0.00  0.00    -0.022 A 
ATOM     19  C   UNL A   1     -24.013   0.112  27.675  0.00  0.00    +0.002 A 
ATOM     20  C   UNL A   1     -22.793   0.012  28.545  0.00  0.00    +0.080 A 
ATOM     21  C   UNL A   1     -21.791   0.885  28.321  0.00  0.00    +0.007 A 
ATOM     22  C   UNL A   1     -22.762   1.846  26.644  0.00  0.00    -0.004 A 
ATOM     23  C   UNL A   1     -21.700   1.741  27.384  0.00  0.00    -0.000 A 
BRANCH  20  24
ATOM     24  C   UNL A   1     -22.771  -1.032  29.661  0.00  0.00    +0.388 C 
ATOM     25  O   UNL A   1     -22.592  -0.699  30.789  0.00  0.00    -0.241 OA
ATOM     26  O   UNL A   1     -23.449  -2.157  29.343  0.00  0.00    -0.241 OA
ENDBRANCH  20  24
ENDBRANCH   3  18
BRANCH   5  27
ATOM     27  C   UNL A   1     -29.277   1.835  24.670  0.00  0.00    +0.280 C 
ATOM     28  N   UNL A   1     -29.621   2.470  23.552  0.00  0.00    -0.084 NA
ATOM     29  O   UNL A   1     -30.134   1.784  25.594  0.00  0.00    -0.267 OA
ENDBRANCH   5  27
TORSDOF 5
ENDMDL
ENDMDL
