REMARK  Name = No_3259-gen_results/8p0m/2024-11-26-14-13-15/
REMARK  5 active torsions:
REMARK  status: ('A' for Active; 'I' for Inactive)
REMARK    1  A    between atoms: C_2  and  C_24
REMARK    2  A    between atoms: C_3  and  C_7
REMARK    3  A    between atoms: C_9  and  C_10
REMARK    4  A    between atoms: C_12  and  C_21
REMARK    5  A    between atoms: C_17  and  C_27
REMARK                            x       y       z     vdW  Elec       q    Type
REMARK                         _______ _______ _______ _____ _____    ______ ____
ROOT
ATOM      1  C   UNL A   1     -26.399   0.295  27.228  0.00  0.00    +0.048 C 
ATOM      2  C   UNL A   1     -25.039   0.236  27.354  0.00  0.00    -0.021 C 
ATOM      3  C   UNL A   1     -27.029   0.396  26.009  0.00  0.00    +0.030 C 
ATOM      4  C   UNL A   1     -26.160   0.333  24.872  0.00  0.00    +0.005 C 
ATOM      5  C   UNL A   1     -24.202   1.258  26.977  0.00  0.00    +0.030 C 
ATOM      6  C   UNL A   1     -24.101   1.534  25.494  0.00  0.00    +0.027 C 
ATOM      7  C   UNL A   1     -25.104   1.338  24.610  0.00  0.00    +0.005 C 
ATOM      8  C   UNL A   1     -22.963   2.437  25.219  0.00  0.00    +0.005 C 
ENDROOT
BRANCH   1  11
ATOM      9  C   UNL A   1     -28.016  -0.814  28.878  0.00  0.00    +0.003 A 
ATOM     10  C   UNL A   1     -28.469  -0.785  29.829  0.00  0.00    +0.080 A 
ATOM     11  C   UNL A   1     -27.136   0.236  28.535  0.00  0.00    -0.018 A 
ATOM     12  C   UNL A   1     -26.875   1.282  29.398  0.00  0.00    -0.004 A 
ATOM     13  C   UNL A   1     -28.361   0.199  30.924  0.00  0.00    +0.007 A 
ATOM     14  C   UNL A   1     -27.528   1.223  30.636  0.00  0.00    -0.000 A 
BRANCH  10  15
ATOM     15  C   UNL A   1     -29.500  -1.907  30.338  0.00  0.00    +0.388 C 
ATOM     16  O   UNL A   1     -30.686  -1.756  30.183  0.00  0.00    -0.241 OA
ATOM     17  O   UNL A   1     -29.057  -2.776  31.149  0.00  0.00    -0.241 OA
ENDBRANCH  10  15
ENDBRANCH   1  11
BRANCH   3  18
ATOM     18  C   UNL A   1     -28.371   0.536  25.878  0.00  0.00    -0.022 A 
ATOM     19  C   UNL A   1     -29.158   0.897  26.925  0.00  0.00    +0.002 A 
ATOM     20  C   UNL A   1     -30.598   1.128  26.568  0.00  0.00    +0.080 A 
ATOM     21  C   UNL A   1     -30.954   0.981  25.277  0.00  0.00    +0.007 A 
ATOM     22  C   UNL A   1     -28.952   0.537  24.588  0.00  0.00    -0.004 A 
ATOM     23  C   UNL A   1     -30.194   0.761  24.280  0.00  0.00    -0.000 A 
BRANCH  20  24
ATOM     24  C   UNL A   1     -31.585   1.468  27.684  0.00  0.00    +0.388 C 
ATOM     25  O   UNL A   1     -32.054   0.602  28.353  0.00  0.00    -0.241 OA
ATOM     26  O   UNL A   1     -31.452   2.733  28.138  0.00  0.00    -0.241 OA
ENDBRANCH  20  24
ENDBRANCH   3  18
BRANCH   5  27
ATOM     27  C   UNL A   1     -23.063   1.657  27.788  0.00  0.00    +0.280 C 
ATOM     28  N   UNL A   1     -23.191   1.638  29.113  0.00  0.00    -0.084 NA
ATOM     29  O   UNL A   1     -22.036   2.214  27.314  0.00  0.00    -0.267 OA
ENDBRANCH   5  27
TORSDOF 5
