MODEL 325
MODEL 1
REMARK VINA RESULT:    -7.496      0.000      0.000
REMARK INTER + INTRA:          -9.152
REMARK INTER:                  -8.810
REMARK INTRA:                  -0.341
REMARK UNBOUND:                -0.341
REMARK  Name = No_325-gen_results/8p0m/2024-11-26-14-13-15/
REMARK  3 active torsions:
REMARK  status: ('A' for Active; 'I' for Inactive)
REMARK    1  A    between atoms: C_1  and  C_8
REMARK    2  A    between atoms: C_5  and  C_12
REMARK    3  A    between atoms: C_7  and  C_16
REMARK                            x       y       z     vdW  Elec       q    Type
REMARK                         _______ _______ _______ _____ _____    ______ ____
ROOT
ATOM      1  C   UNL A   1     -24.392   0.357  26.562  0.00  0.00    +0.053 C 
ATOM      2  C   UNL A   1     -24.255   0.171  27.749  0.00  0.00    +0.003 C 
ATOM      3  C   UNL A   1     -25.142  -0.579  28.519  0.00  0.00    +0.180 C 
ATOM      4  C   UNL A   1     -25.060  -0.845  29.969  0.00  0.00    +0.048 C 
ATOM      5  C   UNL A   1     -23.839  -0.463  30.602  0.00  0.00    +0.099 C 
ATOM      6  C   UNL A   1     -22.899   0.253  29.853  0.00  0.00    +0.024 C 
ATOM      7  C   UNL A   1     -23.062   0.543  28.543  0.00  0.00    +0.125 C 
ATOM      8  F   UNL A   1     -26.284  -1.030  28.004  0.00  0.00    -0.233 F 
ENDROOT
BRANCH   1   9
ATOM      9  C   UNL A   1     -25.317   1.521  26.270  0.00  0.00    +0.249 C 
ATOM     10  N   UNL A   1     -26.114   1.526  25.547  0.00  0.00    -0.272 N 
ATOM     11  O   UNL A   1     -24.922   2.653  27.022  0.00  0.00    -0.270 OA
ATOM     12  C   UNL A   1     -27.010   2.743  25.257  0.00  0.00    +0.099 C 
ATOM     13  C   UNL A   1     -27.996   2.594  24.821  0.00  0.00    +0.048 C 
ATOM     14  C   UNL A   1     -28.498   1.360  24.130  0.00  0.00    -0.023 A 
ATOM     15  C   UNL A   1     -27.669   0.211  24.383  0.00  0.00    -0.006 A 
ATOM     16  C   UNL A   1     -26.682   0.368  25.060  0.00  0.00    +0.120 C 
ATOM     17  C   UNL A   1     -28.294  -1.024  23.791  0.00  0.00    -0.003 A 
ATOM     18  C   UNL A   1     -29.673  -1.217  23.708  0.00  0.00    -0.000 A 
ATOM     19  C   UNL A   1     -30.363  -0.201  23.175  0.00  0.00    -0.000 A 
ATOM     20  C   UNL A   1     -30.013   1.224  23.739  0.00  0.00    -0.004 A 
ENDBRANCH   1   9
BRANCH   5  21
ATOM     21  C   UNL A   1     -23.743  -0.725  32.036  0.00  0.00    +0.398 C 
ATOM     22  F   UNL A   1     -24.476  -1.638  32.406  0.00  0.00    -0.170 F 
ATOM     23  F   UNL A   1     -22.508  -0.940  32.499  0.00  0.00    -0.170 F 
ATOM     24  F   UNL A   1     -24.172   0.444  32.763  0.00  0.00    -0.170 F 
ENDBRANCH   5  21
BRANCH   7  25
ATOM     25  C   UNL A   1     -22.010   1.274  27.826  0.00  0.00    +0.368 C 
ATOM     26  O   UNL A   1     -21.040   0.771  27.613  0.00  0.00    -0.245 OA
ATOM     27  O   UNL A   1     -22.250   2.634  27.767  0.00  0.00    -0.245 OA
ENDBRANCH   7  25
TORSDOF 3
ENDMDL
ENDMDL
