REMARK  Name = No_326-gen_results/8p0m/2024-11-26-14-13-15/
REMARK  0 active torsions:
REMARK  status: ('A' for Active; 'I' for Inactive)
REMARK                            x       y       z     vdW  Elec       q    Type
REMARK                         _______ _______ _______ _____ _____    ______ ____
ROOT
ATOM      1  C   UNL A   1     -28.016  -0.814  28.878  0.00  0.00    +0.024 A 
ATOM      2  C   UNL A   1     -27.064  -0.119  28.608  0.00  0.00    +0.069 A 
ATOM      3  C   UNL A   1     -25.792  -0.430  29.076  0.00  0.00    +0.068 A 
ATOM      4  C   UNL A   1     -25.576  -1.565  29.936  0.00  0.00    +0.013 A 
ATOM      5  C   UNL A   1     -26.535  -2.226  30.144  0.00  0.00    +0.012 A 
ATOM      6  C   UNL A   1     -27.823  -1.982  29.741  0.00  0.00    +0.059 A 
ATOM      7 CL   UNL A   1     -27.188   1.310  27.663  0.00  0.00    -0.081 Cl
ATOM      8 CL   UNL A   1     -29.105  -2.998  30.236  0.00  0.00    -0.082 Cl
ATOM      9 CL   UNL A   1     -24.352   0.575  28.661  0.00  0.00    -0.081 Cl
ENDROOT
TORSDOF 0
