MODEL 3260
MODEL 1
REMARK VINA RESULT:    -4.280      0.000      0.000
REMARK INTER + INTRA:          -4.280
REMARK INTER:                  -4.280
REMARK INTRA:                   0.000
REMARK UNBOUND:                 0.000
REMARK  Name = No_3260-gen_results/8p0m/2024-11-26-14-13-15/
REMARK  0 active torsions:
REMARK  status: ('A' for Active; 'I' for Inactive)
REMARK                            x       y       z     vdW  Elec       q    Type
REMARK                         _______ _______ _______ _____ _____    ______ ____
ROOT
ATOM      1  C   UNL A   1     -23.979  -3.342  28.775  0.00  0.00    +0.000 A 
ATOM      2  C   UNL A   1     -23.995  -4.536  28.583  0.00  0.00    +0.000 A 
ATOM      3  C   UNL A   1     -25.018  -5.364  29.003  0.00  0.00    +0.000 A 
ATOM      4  C   UNL A   1     -26.130  -4.769  29.663  0.00  0.00    +0.000 A 
ATOM      5  C   UNL A   1     -26.144  -3.416  29.701  0.00  0.00    +0.000 A 
ATOM      6  C   UNL A   1     -25.138  -2.701  29.236  0.00  0.00    +0.000 A 
ENDROOT
TORSDOF 0
ENDMDL
ENDMDL
