MODEL 3261
MODEL 1
REMARK VINA RESULT:    -6.188      0.000      0.000
REMARK INTER + INTRA:          -9.491
REMARK INTER:                  -8.720
REMARK INTRA:                  -0.771
REMARK UNBOUND:                -0.771
REMARK  Name = No_3261-gen_results/8p0m/2024-11-26-14-13-15/
REMARK  7 active torsions:
REMARK  status: ('A' for Active; 'I' for Inactive)
REMARK    1  A    between atoms: C_2  and  C_16
REMARK    2  A    between atoms: C_3  and  C_7
REMARK    3  A    between atoms: C_6  and  P_11
REMARK    4  A    between atoms: P_11  and  O_14
REMARK    5  A    between atoms: C_16  and  O_18
REMARK    6  A    between atoms: O_18  and  C_19
REMARK    7  A    between atoms: C_19  and  C_20
REMARK                            x       y       z     vdW  Elec       q    Type
REMARK                         _______ _______ _______ _____ _____    ______ ____
ROOT
ATOM      1  C   UNL A   1     -23.940   0.311  27.078  0.00  0.00    +0.010 A 
ATOM      2  C   UNL A   1     -24.735  -0.265  27.461  0.00  0.00    +0.076 A 
ATOM      3  C   UNL A   1     -24.372   1.347  26.131  0.00  0.00    +0.072 A 
ATOM      4  C   UNL A   1     -25.621   1.419  25.669  0.00  0.00    +0.011 A 
ATOM      5  C   UNL A   1     -26.129  -0.383  27.108  0.00  0.00    +0.014 A 
ATOM      6  C   UNL A   1     -26.505   0.571  26.210  0.00  0.00    +0.084 A 
ENDROOT
BRANCH   3   7
ATOM      7  C   UNL A   1     -23.284   2.288  25.620  0.00  0.00    +0.419 C 
ATOM      8  F   UNL A   1     -22.783   1.915  24.455  0.00  0.00    -0.166 F 
ATOM      9  F   UNL A   1     -22.193   2.323  26.471  0.00  0.00    -0.166 F 
ATOM     10  F   UNL A   1     -23.708   3.577  25.542  0.00  0.00    -0.166 F 
ENDBRANCH   3   7
BRANCH   6  11
ATOM     11  P   UNL A   1     -28.213   0.578  25.658  0.00  0.00    +0.407 P 
ATOM     12  O   UNL A   1     -29.068   0.126  26.434  0.00  0.00    -0.249 OA
ATOM     13  O   UNL A   1     -28.463   2.090  25.295  0.00  0.00    -0.135 OA
BRANCH  11  14
ATOM     14  O   UNL A   1     -28.019  -0.169  24.290  0.00  0.00    -0.191 OA
ATOM     15 CL   UNL A   1     -28.607  -1.341  23.711  0.00  0.00    +0.070 Cl
ENDBRANCH  11  14
ENDBRANCH   6  11
BRANCH   2  16
ATOM     16  C   UNL A   1     -24.371  -1.395  28.566  0.00  0.00    +0.342 C 
ATOM     17  O   UNL A   1     -23.319  -1.374  29.117  0.00  0.00    -0.245 OA
BRANCH  16  18
ATOM     18  O   UNL A   1     -25.137  -2.482  28.582  0.00  0.00    -0.434 OA
BRANCH  18  19
ATOM     19  C   UNL A   1     -24.987  -3.462  29.557  0.00  0.00    +0.308 C 
BRANCH  19  20
ATOM     20  C   UNL A   1     -24.522  -4.673  29.090  0.00  0.00    +0.354 C 
ATOM     21  O   UNL A   1     -25.002  -5.662  29.548  0.00  0.00    -0.255 OA
ATOM     22  F   UNL A   1     -23.779  -4.792  28.105  0.00  0.00    -0.160 F 
ENDBRANCH  19  20
ENDBRANCH  18  19
ENDBRANCH  16  18
ENDBRANCH   2  16
TORSDOF 7
ENDMDL
ENDMDL
