MODEL 3262
MODEL 1
REMARK VINA RESULT:    -7.720      0.000      0.000
REMARK INTER + INTRA:         -13.975
REMARK INTER:                 -10.879
REMARK INTRA:                  -3.096
REMARK UNBOUND:                -3.096
REMARK  Name = No_3262-gen_results/8p0m/2024-11-26-14-13-15/
REMARK  7 active torsions:
REMARK  status: ('A' for Active; 'I' for Inactive)
REMARK    1  A    between atoms: C_2  and  C_3
REMARK    2  A    between atoms: N_4  and  C_11
REMARK    3  A    between atoms: C_5  and  C_34
REMARK    4  A    between atoms: C_10  and  C_18
REMARK    5  A    between atoms: C_11  and  C_12
REMARK    6  A    between atoms: C_17  and  C_25
REMARK    7  A    between atoms: C_29  and  C_31
REMARK                            x       y       z     vdW  Elec       q    Type
REMARK                         _______ _______ _______ _____ _____    ______ ____
ROOT
ATOM      1  O   UNL A   1     -32.348 -15.669  26.044  0.00  0.00    -0.270 OA
ATOM      2  C   UNL A   1     -31.493 -15.057  26.517  0.00  0.00    +0.255 C 
ATOM      3  N   UNL A   1     -30.308 -14.643  25.774  0.00  0.00    -0.218 N 
ATOM      4  C   UNL A   1     -30.317 -14.869  24.359  0.00  0.00    +0.255 C 
ATOM      5  O   UNL A   1     -29.665 -15.947  24.148  0.00  0.00    -0.270 OA
ENDROOT
BRANCH   2   6
ATOM      6  C   UNL A   1     -31.406 -14.876  27.883  0.00  0.00    +0.054 A 
ATOM      7  C   UNL A   1     -32.278 -14.219  28.606  0.00  0.00    +0.004 A 
ATOM      8  C   UNL A   1     -32.146 -13.993  29.996  0.00  0.00    +0.000 A 
ATOM      9  C   UNL A   1     -31.329 -14.901  30.722  0.00  0.00    +0.000 A 
ATOM     10  C   UNL A   1     -30.586 -15.818  29.990  0.00  0.00    +0.000 A 
ATOM     11  C   UNL A   1     -30.584 -15.872  28.624  0.00  0.00    +0.004 A 
BRANCH   7  12
ATOM     12  C   UNL A   1     -33.136 -13.130  27.994  0.00  0.00    +0.000 C 
ATOM     13  C   UNL A   1     -33.508 -12.142  28.385  0.00  0.00    +0.000 C 
ENDBRANCH   7  12
ENDBRANCH   2   6
BRANCH   4  14
ATOM     14  C   UNL A   1     -31.002 -14.049  23.556  0.00  0.00    +0.054 A 
ATOM     15  C   UNL A   1     -32.026 -13.826  23.347  0.00  0.00    +0.004 A 
ATOM     16  C   UNL A   1     -32.683 -12.903  22.350  0.00  0.00    +0.000 A 
ATOM     17  C   UNL A   1     -31.774 -12.251  21.495  0.00  0.00    +0.000 A 
ATOM     18  C   UNL A   1     -30.409 -12.476  21.675  0.00  0.00    +0.000 A 
ATOM     19  C   UNL A   1     -29.916 -13.303  22.645  0.00  0.00    +0.004 A 
ENDBRANCH   4  14
BRANCH   3  20
ATOM     20  C   UNL A   1     -29.288 -13.896  26.344  0.00  0.00    +0.128 C 
BRANCH  20  21
ATOM     21  C   UNL A   1     -29.729 -12.565  26.833  0.00  0.00    -0.002 A 
ATOM     22  C   UNL A   1     -30.244 -11.828  26.286  0.00  0.00    -0.003 A 
ATOM     23  C   UNL A   1     -30.653 -10.450  26.873  0.00  0.00    -0.000 A 
ATOM     24  C   UNL A   1     -30.326 -10.262  28.191  0.00  0.00    -0.000 A 
ATOM     25  C   UNL A   1     -29.406 -12.353  28.301  0.00  0.00    -0.003 A 
ATOM     26  C   UNL A   1     -29.733 -11.213  28.898  0.00  0.00    -0.000 A 
BRANCH  26  27
ATOM     27  C   UNL A   1     -29.357 -10.978  30.346  0.00  0.00    +0.000 A 
ATOM     28  C   UNL A   1     -29.819 -10.094  31.003  0.00  0.00    +0.000 A 
ATOM     29  C   UNL A   1     -29.827  -9.749  31.966  0.00  0.00    +0.000 A 
ATOM     30  C   UNL A   1     -28.849 -10.469  32.896  0.00  0.00    +0.007 A 
ATOM     31  C   UNL A   1     -28.167 -11.509  32.329  0.00  0.00    +0.080 A 
ATOM     32  C   UNL A   1     -28.392 -11.809  31.038  0.00  0.00    +0.007 A 
BRANCH  31  33
ATOM     33  C   UNL A   1     -27.158 -12.317  33.083  0.00  0.00    +0.388 C 
ATOM     34  O   UNL A   1     -26.370 -12.884  32.638  0.00  0.00    -0.241 OA
ATOM     35  O   UNL A   1     -27.449 -12.452  34.453  0.00  0.00    -0.241 OA
ENDBRANCH  31  33
ENDBRANCH  26  27
ENDBRANCH  20  21
ENDBRANCH   3  20
TORSDOF 7
ENDMDL
ENDMDL
