REMARK  Name = No_3263-gen_results/8p0m/2024-11-26-14-13-15/
REMARK  3 active torsions:
REMARK  status: ('A' for Active; 'I' for Inactive)
REMARK    1  A    between atoms: C_3  and  C_7
REMARK    2  A    between atoms: C_8  and  C_10
REMARK    3  A    between atoms: C_10  and  C_12
REMARK                            x       y       z     vdW  Elec       q    Type
REMARK                         _______ _______ _______ _____ _____    ______ ____
ROOT
ATOM      1  C   UNL A   1     -26.576  -0.006  27.138  0.00  0.00    -0.008 C 
ATOM      2  C   UNL A   1     -25.918   1.192  26.556  0.00  0.00    -0.039 C 
ATOM      3  C   UNL A   1     -25.254   1.107  25.389  0.00  0.00    +0.026 C 
ENDROOT
BRANCH   1   6
ATOM      4  C   UNL A   1     -28.016  -0.814  28.878  0.00  0.00    -0.000 A 
ATOM      5  C   UNL A   1     -28.469  -0.785  29.829  0.00  0.00    -0.000 A 
ATOM      6  C   UNL A   1     -27.136   0.236  28.535  0.00  0.00    -0.001 A 
ATOM      7  C   UNL A   1     -26.805   1.051  29.276  0.00  0.00    -0.000 A 
ATOM      8  C   UNL A   1     -28.237   0.150  30.930  0.00  0.00    -0.000 A 
ATOM      9  C   UNL A   1     -27.352   1.124  30.607  0.00  0.00    -0.000 A 
ENDBRANCH   1   6
BRANCH   2  10
ATOM     10  C   UNL A   1     -25.992   2.450  27.177  0.00  0.00    +0.085 C 
ATOM     11  C   UNL A   1     -26.794   3.204  26.912  0.00  0.00    +0.010 C 
BRANCH  10  12
ATOM     12  C   UNL A   1     -24.708   2.728  27.922  0.00  0.00    +0.322 C 
ATOM     13  F   UNL A   1     -23.705   2.048  27.893  0.00  0.00    -0.198 F 
ATOM     14  F   UNL A   1     -24.687   3.741  28.797  0.00  0.00    -0.198 F 
ENDBRANCH  10  12
ENDBRANCH   2  10
TORSDOF 3
