MODEL 3263
MODEL 1
REMARK VINA RESULT:    -5.624      0.000      0.000
REMARK INTER + INTRA:          -7.166
REMARK INTER:                  -6.610
REMARK INTRA:                  -0.556
REMARK UNBOUND:                -0.556
REMARK  Name = No_3263-gen_results/8p0m/2024-11-26-14-13-15/
REMARK  3 active torsions:
REMARK  status: ('A' for Active; 'I' for Inactive)
REMARK    1  A    between atoms: C_3  and  C_7
REMARK    2  A    between atoms: C_8  and  C_10
REMARK    3  A    between atoms: C_10  and  C_12
REMARK                            x       y       z     vdW  Elec       q    Type
REMARK                         _______ _______ _______ _____ _____    ______ ____
ROOT
ATOM      1  C   UNL A   1     -25.132  -0.828  28.955  0.00  0.00    -0.008 C 
ATOM      2  C   UNL A   1     -24.670  -0.091  30.159  0.00  0.00    -0.039 C 
ATOM      3  C   UNL A   1     -24.627   1.253  30.162  0.00  0.00    +0.026 C 
ENDROOT
BRANCH   1   6
ATOM      4  C   UNL A   1     -26.159  -2.914  29.545  0.00  0.00    -0.000 A 
ATOM      5  C   UNL A   1     -26.190  -3.961  29.661  0.00  0.00    -0.000 A 
ATOM      6  C   UNL A   1     -24.960  -2.338  29.072  0.00  0.00    -0.001 A 
ATOM      7  C   UNL A   1     -24.063  -2.958  28.704  0.00  0.00    -0.000 A 
ATOM      8  C   UNL A   1     -25.183  -4.957  29.294  0.00  0.00    -0.000 A 
ATOM      9  C   UNL A   1     -24.055  -4.396  28.794  0.00  0.00    -0.000 A 
ENDBRANCH   1   6
BRANCH   2  10
ATOM     10  C   UNL A   1     -24.298  -0.761  31.337  0.00  0.00    +0.085 C 
ATOM     11  C   UNL A   1     -25.029  -0.936  32.184  0.00  0.00    +0.010 C 
BRANCH  10  12
ATOM     12  C   UNL A   1     -22.793  -0.864  31.412  0.00  0.00    +0.322 C 
ATOM     13  F   UNL A   1     -22.020  -0.694  30.494  0.00  0.00    -0.198 F 
ATOM     14  F   UNL A   1     -22.242  -1.303  32.550  0.00  0.00    -0.198 F 
ENDBRANCH  10  12
ENDBRANCH   2  10
TORSDOF 3
ENDMDL
ENDMDL
