REMARK  Name = No_3264-gen_results/8p0m/2024-11-26-14-13-15/
REMARK  4 active torsions:
REMARK  status: ('A' for Active; 'I' for Inactive)
REMARK    1  A    between atoms: C_3  and  C_8
REMARK    2  A    between atoms: C_9  and  C_14
REMARK    3  A    between atoms: C_14  and  O_16
REMARK    4  A    between atoms: O_16  and  C_17
REMARK                            x       y       z     vdW  Elec       q    Type
REMARK                         _______ _______ _______ _____ _____    ______ ____
ROOT
ATOM      1  C   UNL A   1     -24.681   0.531  28.765  0.00  0.00    +0.006 A 
ATOM      2  C   UNL A   1     -24.669   1.800  29.318  0.00  0.00    +0.076 A 
ATOM      3  C   UNL A   1     -23.820   2.751  28.721  0.00  0.00    +0.006 A 
ATOM      4  C   UNL A   1     -22.850   2.365  27.745  0.00  0.00    +0.000 A 
ATOM      5  C   UNL A   1     -22.807   1.050  27.305  0.00  0.00    +0.000 A 
ATOM      6  C   UNL A   1     -23.737   0.167  27.736  0.00  0.00    +0.000 A 
ENDROOT
BRANCH   1   9
ATOM      7  C   UNL A   1     -28.016  -0.814  28.878  0.00  0.00    +0.030 A 
ATOM      8  C   UNL A   1     -27.064  -0.119  28.608  0.00  0.00    +0.002 A 
ATOM      9  C   UNL A   1     -25.792  -0.430  29.076  0.00  0.00    +0.000 A 
ATOM     10  C   UNL A   1     -25.576  -1.565  29.936  0.00  0.00    +0.002 A 
ATOM     11  C   UNL A   1     -26.735  -2.300  30.217  0.00  0.00    +0.030 A 
ATOM     12  C   UNL A   1     -27.918  -1.954  29.763  0.00  0.00    +0.140 A 
ATOM     13  F   UNL A   1     -28.965  -2.696  30.072  0.00  0.00    -0.204 F 
ENDBRANCH   1   9
BRANCH   2  14
ATOM     14  C   UNL A   1     -25.579   2.258  30.326  0.00  0.00    +0.346 C 
ATOM     15  O   UNL A   1     -25.223   2.171  31.428  0.00  0.00    -0.244 OA
BRANCH  14  16
ATOM     16  O   UNL A   1     -26.528   3.005  29.991  0.00  0.00    -0.418 OA
BRANCH  16  17
ATOM     17  C   UNL A   1     -27.233   3.761  30.804  0.00  0.00    +0.183 C 
ATOM     18  C   UNL A   1     -27.597   3.335  31.819  0.00  0.00    +0.044 C 
ENDBRANCH  16  17
ENDBRANCH  14  16
ENDBRANCH   2  14
TORSDOF 4
