MODEL 3264
MODEL 1
REMARK VINA RESULT:    -6.807      0.000      0.000
REMARK INTER + INTRA:          -9.375
REMARK INTER:                  -8.399
REMARK INTRA:                  -0.976
REMARK UNBOUND:                -0.976
REMARK  Name = No_3264-gen_results/8p0m/2024-11-26-14-13-15/
REMARK  4 active torsions:
REMARK  status: ('A' for Active; 'I' for Inactive)
REMARK    1  A    between atoms: C_3  and  C_8
REMARK    2  A    between atoms: C_9  and  C_14
REMARK    3  A    between atoms: C_14  and  O_16
REMARK    4  A    between atoms: O_16  and  C_17
REMARK                            x       y       z     vdW  Elec       q    Type
REMARK                         _______ _______ _______ _____ _____    ______ ____
ROOT
ATOM      1  C   UNL A   1     -24.239  -0.610  27.880  0.00  0.00    +0.006 A 
ATOM      2  C   UNL A   1     -23.060  -0.037  28.326  0.00  0.00    +0.076 A 
ATOM      3  C   UNL A   1     -22.748   1.247  27.840  0.00  0.00    +0.006 A 
ATOM      4  C   UNL A   1     -23.488   1.829  26.765  0.00  0.00    +0.000 A 
ATOM      5  C   UNL A   1     -24.594   1.164  26.255  0.00  0.00    +0.000 A 
ATOM      6  C   UNL A   1     -25.013   0.016  26.836  0.00  0.00    +0.000 A 
ENDROOT
BRANCH   1   9
ATOM      7  C   UNL A   1     -24.699  -4.019  28.935  0.00  0.00    +0.030 A 
ATOM      8  C   UNL A   1     -24.229  -3.021  28.439  0.00  0.00    +0.002 A 
ATOM      9  C   UNL A   1     -24.841  -1.783  28.599  0.00  0.00    +0.000 A 
ATOM     10  C   UNL A   1     -26.080  -1.656  29.323  0.00  0.00    +0.002 A 
ATOM     11  C   UNL A   1     -26.565  -2.863  29.843  0.00  0.00    +0.030 A 
ATOM     12  C   UNL A   1     -25.957  -4.011  29.649  0.00  0.00    +0.140 A 
ATOM     13  F   UNL A   1     -26.476  -5.107  30.170  0.00  0.00    -0.204 F 
ENDBRANCH   1   9
BRANCH   2  14
ATOM     14  C   UNL A   1     -22.238  -0.573  29.371  0.00  0.00    +0.346 C 
ATOM     15  O   UNL A   1     -21.262  -1.110  29.042  0.00  0.00    -0.244 OA
BRANCH  14  16
ATOM     16  O   UNL A   1     -22.413  -0.172  30.545  0.00  0.00    -0.418 OA
BRANCH  16  17
ATOM     17  C   UNL A   1     -22.825  -0.909  31.554  0.00  0.00    +0.183 C 
ATOM     18  C   UNL A   1     -23.840  -0.675  32.063  0.00  0.00    +0.044 C 
ENDBRANCH  16  17
ENDBRANCH  14  16
ENDBRANCH   2  14
TORSDOF 4
ENDMDL
ENDMDL
