MODEL 3265
MODEL 1
REMARK VINA RESULT:    -6.684      0.000      0.000
REMARK INTER + INTRA:         -12.452
REMARK INTER:                 -10.982
REMARK INTRA:                  -1.470
REMARK UNBOUND:                -1.470
REMARK  Name = No_3265-gen_results/8p0m/2024-11-26-14-13-15/
REMARK  11 active torsions:
REMARK  status: ('A' for Active; 'I' for Inactive)
REMARK    1  A    between atoms: C_1  and  C_2
REMARK    2  A    between atoms: C_1  and  C_11
REMARK    3  A    between atoms: C_3  and  C_17
REMARK    4  A    between atoms: N_10  and  C_21
REMARK    5  A    between atoms: C_11  and  C_12
REMARK    6  A    between atoms: N_13  and  C_15
REMARK    7  A    between atoms: C_15  and  C_32
REMARK    8  A    between atoms: N_19  and  C_20
REMARK    9  A    between atoms: C_21  and  C_22
REMARK   10  A    between atoms: C_32  and  C_33
REMARK   11  A    between atoms: C_33  and  C_34
REMARK                            x       y       z     vdW  Elec       q    Type
REMARK                         _______ _______ _______ _____ _____    ______ ____
ROOT
ATOM      1  C   UNL A   1     -28.153 -16.235   7.889  0.00  0.00    -0.015 A 
ATOM      2  C   UNL A   1     -27.850 -14.908   7.640  0.00  0.00    +0.052 A 
ATOM      3  C   UNL A   1     -28.558 -13.759   8.152  0.00  0.00    +0.008 A 
ATOM      4  C   UNL A   1     -29.314 -13.871   8.927  0.00  0.00    +0.033 A 
ATOM      5  C   UNL A   1     -30.164 -12.759   9.535  0.00  0.00    +0.148 A 
ATOM      6  N   UNL A   1     -29.556 -11.598   9.169  0.00  0.00    -0.228 NA
ATOM      7  C   UNL A   1     -29.249 -16.291   8.967  0.00  0.00    -0.004 A 
ATOM      8  C   UNL A   1     -29.893 -15.184   9.460  0.00  0.00    +0.003 A 
ATOM      9  N   UNL A   1     -31.064 -12.808  10.492  0.00  0.00    -0.208 NA
ATOM     10  C   UNL A   1     -28.112 -12.463   7.734  0.00  0.00    +0.021 A 
ATOM     11  C   UNL A   1     -28.722 -11.372   8.223  0.00  0.00    +0.100 A 
ENDROOT
BRANCH   2  12
ATOM     12  C   UNL A   1     -26.734 -14.704   6.653  0.00  0.00    +0.269 C 
ATOM     13  O   UNL A   1     -26.832 -14.835   5.482  0.00  0.00    -0.268 OA
ATOM     14  N   UNL A   1     -25.459 -14.719   7.166  0.00  0.00    -0.175 NA
BRANCH  14  15
ATOM     15  C   UNL A   1     -24.311 -14.526   6.343  0.00  0.00    +0.074 A 
ATOM     16  C   UNL A   1     -23.578 -15.376   6.188  0.00  0.00    +0.017 A 
ATOM     17  C   UNL A   1     -22.418 -15.278   5.335  0.00  0.00    +0.001 A 
ATOM     18  C   UNL A   1     -22.234 -14.039   4.655  0.00  0.00    +0.000 A 
ATOM     19  C   UNL A   1     -23.155 -13.029   4.865  0.00  0.00    +0.001 A 
ATOM     20  C   UNL A   1     -24.199 -13.228   5.715  0.00  0.00    +0.017 A 
ENDBRANCH  14  15
ENDBRANCH   2  12
BRANCH   1  21
ATOM     21  C   UNL A   1     -27.505 -17.181   7.505  0.00  0.00    +0.069 C 
BRANCH  21  22
ATOM     22  C   UNL A   1     -26.980 -18.031   8.679  0.00  0.00    +0.233 C 
ATOM     23  O   UNL A   1     -26.096 -17.277   9.552  0.00  0.00    -0.213 OA
BRANCH  22  24
ATOM     24  C   UNL A   1     -26.341 -19.273   8.358  0.00  0.00    +0.272 C 
ATOM     25  N   UNL A   1     -25.126 -19.398   8.629  0.00  0.00    -0.203 NA
ATOM     26  O   UNL A   1     -26.940 -20.219   7.826  0.00  0.00    -0.271 OA
BRANCH  25  27
ATOM     27  C   UNL A   1     -24.288 -20.620   8.256  0.00  0.00    +0.116 C 
BRANCH  27  28
ATOM     28  C   UNL A   1     -23.143 -20.506   8.440  0.00  0.00    +0.028 C 
BRANCH  28  29
ATOM     29  C   UNL A   1     -22.344 -20.305   7.376  0.00  0.00    +0.028 C 
BRANCH  29  30
ATOM     30  C   UNL A   1     -21.804 -19.136   7.124  0.00  0.00    -0.026 C 
ATOM     31  C   UNL A   1     -20.859 -19.065   6.171  0.00  0.00    -0.005 C 
ENDBRANCH  29  30
ENDBRANCH  28  29
ENDBRANCH  27  28
ENDBRANCH  25  27
ENDBRANCH  22  24
ENDBRANCH  21  22
ENDBRANCH   1  21
BRANCH   9  32
ATOM     32  C   UNL A   1     -31.198 -13.140  11.728  0.00  0.00    +0.227 C 
BRANCH  32  33
ATOM     33  C   UNL A   1     -30.093 -13.261  12.600  0.00  0.00    +0.387 C 
ATOM     34  O   UNL A   1     -29.621 -14.288  12.991  0.00  0.00    -0.244 OA
ATOM     35  O   UNL A   1     -29.401 -12.113  12.859  0.00  0.00    -0.244 OA
ENDBRANCH  32  33
ENDBRANCH   9  32
TORSDOF 11
ENDMDL
ENDMDL
