REMARK  Name = No_3265-gen_results/8p0m/2024-11-26-14-13-15/
REMARK  11 active torsions:
REMARK  status: ('A' for Active; 'I' for Inactive)
REMARK    1  A    between atoms: C_1  and  C_2
REMARK    2  A    between atoms: C_1  and  C_11
REMARK    3  A    between atoms: C_3  and  C_17
REMARK    4  A    between atoms: N_10  and  C_21
REMARK    5  A    between atoms: C_11  and  C_12
REMARK    6  A    between atoms: N_13  and  C_15
REMARK    7  A    between atoms: C_15  and  C_32
REMARK    8  A    between atoms: N_19  and  C_20
REMARK    9  A    between atoms: C_21  and  C_22
REMARK   10  A    between atoms: C_32  and  C_33
REMARK   11  A    between atoms: C_33  and  C_34
REMARK                            x       y       z     vdW  Elec       q    Type
REMARK                         _______ _______ _______ _____ _____    ______ ____
ROOT
ATOM      1  C   UNL A   1     -27.064  -0.119  28.608  0.00  0.00    -0.015 A 
ATOM      2  C   UNL A   1     -26.972   0.714  27.506  0.00  0.00    +0.052 A 
ATOM      3  C   UNL A   1     -25.821   1.491  27.116  0.00  0.00    +0.008 A 
ATOM      4  C   UNL A   1     -24.858   1.342  27.601  0.00  0.00    +0.033 A 
ATOM      5  C   UNL A   1     -23.569   2.111  27.321  0.00  0.00    +0.148 A 
ATOM      6  N   UNL A   1     -23.782   2.754  26.141  0.00  0.00    -0.228 NA
ATOM      7  C   UNL A   1     -25.669  -0.241  29.244  0.00  0.00    -0.004 A 
ATOM      8  C   UNL A   1     -24.579   0.489  28.842  0.00  0.00    +0.003 A 
ATOM      9  N   UNL A   1     -22.368   1.966  27.835  0.00  0.00    -0.208 NA
ATOM     10  C   UNL A   1     -25.946   2.332  25.962  0.00  0.00    +0.021 A 
ATOM     11  C   UNL A   1     -24.882   3.038  25.548  0.00  0.00    +0.100 A 
ENDROOT
BRANCH   2  12
ATOM     12  C   UNL A   1     -28.256   0.865  26.738  0.00  0.00    +0.269 C 
ATOM     13  O   UNL A   1     -28.371   0.703  25.572  0.00  0.00    -0.268 OA
ATOM     14  N   UNL A   1     -29.257   1.572  27.360  0.00  0.00    -0.175 NA
BRANCH  14  15
ATOM     15  C   UNL A   1     -30.528   1.778  26.749  0.00  0.00    +0.074 A 
ATOM     16  C   UNL A   1     -31.190   2.629  27.097  0.00  0.00    +0.017 A 
ATOM     17  C   UNL A   1     -32.469   2.935  26.501  0.00  0.00    +0.001 A 
ATOM     18  C   UNL A   1     -32.872   2.113  25.409  0.00  0.00    +0.000 A 
ATOM     19  C   UNL A   1     -32.032   1.089  25.010  0.00  0.00    +0.001 A 
ATOM     20  C   UNL A   1     -30.859   0.879  25.666  0.00  0.00    +0.017 A 
ENDBRANCH  14  15
ENDBRANCH   2  12
BRANCH   1  21
ATOM     21  C   UNL A   1     -28.016  -0.814  28.878  0.00  0.00    +0.069 C 
BRANCH  21  22
ATOM     22  C   UNL A   1     -27.989  -1.277  30.348  0.00  0.00    +0.233 C 
ATOM     23  O   UNL A   1     -26.810  -2.070  30.654  0.00  0.00    -0.213 OA
BRANCH  22  24
ATOM     24  C   UNL A   1     -29.140  -1.976  30.839  0.00  0.00    +0.272 C 
ATOM     25  N   UNL A   1     -28.990  -2.745  31.814  0.00  0.00    -0.203 NA
ATOM     26  O   UNL A   1     -30.267  -1.849  30.339  0.00  0.00    -0.271 OA
BRANCH  25  27
ATOM     27  C   UNL A   1     -30.098  -3.631  32.382  0.00  0.00    +0.116 C 
BRANCH  27  28
ATOM     28  C   UNL A   1     -30.242  -3.559  33.536  0.00  0.00    +0.028 C 
BRANCH  28  29
ATOM     29  C   UNL A   1     -30.108  -2.355  34.122  0.00  0.00    +0.028 C 
BRANCH  29  30
ATOM     30  C   UNL A   1     -30.710  -1.286  33.657  0.00  0.00    -0.026 C 
ATOM     31  C   UNL A   1     -30.155  -0.087  33.904  0.00  0.00    -0.005 C 
ENDBRANCH  29  30
ENDBRANCH  28  29
ENDBRANCH  27  28
ENDBRANCH  25  27
ENDBRANCH  22  24
ENDBRANCH  21  22
ENDBRANCH   1  21
BRANCH   9  32
ATOM     32  C   UNL A   1     -21.432   1.093  27.969  0.00  0.00    +0.227 C 
BRANCH  32  33
ATOM     33  C   UNL A   1     -21.382   0.203  29.065  0.00  0.00    +0.387 C 
ATOM     34  O   UNL A   1     -21.955   0.342  30.105  0.00  0.00    -0.244 OA
ATOM     35  O   UNL A   1     -20.781  -1.001  28.836  0.00  0.00    -0.244 OA
ENDBRANCH  32  33
ENDBRANCH   9  32
TORSDOF 11
