REMARK  Name = No_3266-gen_results/8p0m/2024-11-26-14-13-15/
REMARK  2 active torsions:
REMARK  status: ('A' for Active; 'I' for Inactive)
REMARK    1  A    between atoms: C_2  and  C_5
REMARK    2  A    between atoms: C_3  and  C_11
REMARK                            x       y       z     vdW  Elec       q    Type
REMARK                         _______ _______ _______ _____ _____    ______ ____
ROOT
ATOM      1  C   UNL A   1     -28.016  -0.814  28.878  0.00  0.00    +0.005 A 
ATOM      2  C   UNL A   1     -28.469  -0.785  29.829  0.00  0.00    +0.071 A 
ATOM      3  C   UNL A   1     -28.182   0.428  28.113  0.00  0.00    +0.018 A 
ATOM      4  C   UNL A   1     -28.984   1.415  28.515  0.00  0.00    +0.002 A 
ATOM      5  C   UNL A   1     -29.561   1.293  29.742  0.00  0.00    -0.000 A 
ATOM      6  C   UNL A   1     -29.320   0.165  30.445  0.00  0.00    +0.004 A 
ENDROOT
BRANCH   3   7
ATOM      7  C   UNL A   1     -27.449   0.495  26.729  0.00  0.00    +0.081 A 
ATOM      8  N   UNL A   1     -28.102   0.447  25.619  0.00  0.00    -0.244 NA
ATOM      9  C   UNL A   1     -26.008   0.557  26.680  0.00  0.00    +0.019 A 
ATOM     10  C   UNL A   1     -25.546   0.762  25.364  0.00  0.00    +0.003 A 
ATOM     11  C   UNL A   1     -27.617   0.478  24.425  0.00  0.00    +0.099 A 
ATOM     12  C   UNL A   1     -26.229   0.600  24.244  0.00  0.00    +0.021 A 
ENDBRANCH   3   7
BRANCH   2  13
ATOM     13  C   UNL A   1     -28.337  -2.048  30.787  0.00  0.00    +0.419 C 
ATOM     14  F   UNL A   1     -29.134  -2.886  30.772  0.00  0.00    -0.166 F 
ATOM     15  F   UNL A   1     -28.136  -1.680  32.067  0.00  0.00    -0.166 F 
ATOM     16  F   UNL A   1     -27.107  -2.650  30.468  0.00  0.00    -0.166 F 
ENDBRANCH   2  13
TORSDOF 2
