MODEL 3266
MODEL 1
REMARK VINA RESULT:    -6.923      0.000      0.000
REMARK INTER + INTRA:          -8.226
REMARK INTER:                  -7.732
REMARK INTRA:                  -0.493
REMARK UNBOUND:                -0.493
REMARK  Name = No_3266-gen_results/8p0m/2024-11-26-14-13-15/
REMARK  2 active torsions:
REMARK  status: ('A' for Active; 'I' for Inactive)
REMARK    1  A    between atoms: C_2  and  C_5
REMARK    2  A    between atoms: C_3  and  C_11
REMARK                            x       y       z     vdW  Elec       q    Type
REMARK                         _______ _______ _______ _____ _____    ______ ____
ROOT
ATOM      1  C   UNL A   1     -24.086  -0.352  27.743  0.00  0.00    +0.005 A 
ATOM      2  C   UNL A   1     -23.483   0.502  27.618  0.00  0.00    +0.071 A 
ATOM      3  C   UNL A   1     -23.589  -1.274  28.772  0.00  0.00    +0.018 A 
ATOM      4  C   UNL A   1     -22.396  -1.127  29.350  0.00  0.00    +0.002 A 
ATOM      5  C   UNL A   1     -21.688  -0.004  29.047  0.00  0.00    -0.000 A 
ATOM      6  C   UNL A   1     -22.218   0.856  28.151  0.00  0.00    +0.004 A 
ENDROOT
BRANCH   3   7
ATOM      7  C   UNL A   1     -24.490  -2.519  29.083  0.00  0.00    +0.081 A 
ATOM      8  N   UNL A   1     -25.655  -2.389  29.620  0.00  0.00    -0.244 NA
ATOM      9  C   UNL A   1     -23.996  -3.849  28.819  0.00  0.00    +0.019 A 
ATOM     10  C   UNL A   1     -24.999  -4.819  29.022  0.00  0.00    +0.003 A 
ATOM     11  C   UNL A   1     -26.479  -3.328  29.937  0.00  0.00    +0.099 A 
ATOM     12  C   UNL A   1     -26.139  -4.666  29.672  0.00  0.00    +0.021 A 
ENDBRANCH   3   7
BRANCH   2  13
ATOM     13  C   UNL A   1     -23.920   1.611  26.564  0.00  0.00    +0.419 C 
ATOM     14  F   UNL A   1     -24.688   2.427  26.850  0.00  0.00    -0.166 F 
ATOM     15  F   UNL A   1     -24.304   1.060  25.397  0.00  0.00    -0.166 F 
ATOM     16  F   UNL A   1     -22.739   2.276  26.189  0.00  0.00    -0.166 F 
ENDBRANCH   2  13
TORSDOF 2
ENDMDL
ENDMDL
