MODEL 3267
MODEL 1
REMARK VINA RESULT:    -4.282      0.000      0.000
REMARK INTER + INTRA:          -4.282
REMARK INTER:                  -4.282
REMARK INTRA:                   0.000
REMARK UNBOUND:                 0.000
REMARK  Name = No_3267-gen_results/8p0m/2024-11-26-14-13-15/
REMARK  0 active torsions:
REMARK  status: ('A' for Active; 'I' for Inactive)
REMARK                            x       y       z     vdW  Elec       q    Type
REMARK                         _______ _______ _______ _____ _____    ______ ____
ROOT
ATOM      1  C   UNL A   1     -24.938  -5.455  28.931  0.00  0.00    +0.000 A 
ATOM      2  C   UNL A   1     -24.189  -4.791  28.602  0.00  0.00    +0.000 A 
ATOM      3  C   UNL A   1     -26.048  -4.793  29.615  0.00  0.00    +0.000 A 
ATOM      4  C   UNL A   1     -26.096  -3.431  29.780  0.00  0.00    +0.000 A 
ATOM      5  C   UNL A   1     -23.978  -3.344  28.631  0.00  0.00    +0.000 A 
ATOM      6  C   UNL A   1     -25.048  -2.693  29.291  0.00  0.00    +0.000 A 
ENDROOT
TORSDOF 0
ENDMDL
ENDMDL
