REMARK  Name = No_3268-gen_results/8p0m/2024-11-26-14-13-15/
REMARK  5 active torsions:
REMARK  status: ('A' for Active; 'I' for Inactive)
REMARK    1  A    between atoms: C_3  and  C_7
REMARK    2  A    between atoms: C_7  and  C_8
REMARK    3  A    between atoms: C_7  and  C_9
REMARK    4  A    between atoms: C_9  and  C_10
REMARK    5  A    between atoms: C_14  and  C_22
REMARK                            x       y       z     vdW  Elec       q    Type
REMARK                         _______ _______ _______ _____ _____    ______ ____
ROOT
ATOM      1  C   UNL A   1     -26.399   0.295  27.228  0.00  0.00    +0.049 C 
ENDROOT
BRANCH   1   4
ATOM      2  C   UNL A   1     -28.016  -0.814  28.878  0.00  0.00    -0.004 A 
ATOM      3  C   UNL A   1     -28.469  -0.785  29.829  0.00  0.00    -0.000 A 
ATOM      4  C   UNL A   1     -27.136   0.236  28.535  0.00  0.00    -0.018 A 
ATOM      5  C   UNL A   1     -26.875   1.282  29.398  0.00  0.00    -0.001 A 
ATOM      6  C   UNL A   1     -28.361   0.199  30.924  0.00  0.00    -0.000 A 
ATOM      7  C   UNL A   1     -27.528   1.223  30.636  0.00  0.00    -0.000 A 
ATOM      8  C   UNL A   1     -27.366   2.371  31.607  0.00  0.00    +0.003 A 
ATOM      9  C   UNL A   1     -26.669   3.167  31.478  0.00  0.00    +0.042 A 
ATOM     10  C   UNL A   1     -25.891   3.428  30.447  0.00  0.00    +0.196 A 
ATOM     11  C   UNL A   1     -25.956   2.408  29.252  0.00  0.00    +0.042 A 
ATOM     12  O   UNL A   1     -25.023   4.405  30.158  0.00  0.00    -0.287 OA
ENDBRANCH   1   4
BRANCH   1  13
ATOM     13  C   UNL A   1     -25.039   0.236  27.354  0.00  0.00    -0.018 A 
ATOM     14  C   UNL A   1     -24.395  -0.329  28.486  0.00  0.00    -0.001 A 
ATOM     15  C   UNL A   1     -23.121  -0.026  28.845  0.00  0.00    +0.042 A 
ATOM     16  C   UNL A   1     -22.350   0.850  28.020  0.00  0.00    +0.196 A 
ATOM     17  C   UNL A   1     -22.987   1.511  26.950  0.00  0.00    +0.042 A 
ATOM     18  C   UNL A   1     -24.312   1.329  26.718  0.00  0.00    -0.001 A 
ATOM     19  O   UNL A   1     -21.102   1.164  28.311  0.00  0.00    -0.287 OA
ENDBRANCH   1  13
BRANCH   1  20
ATOM     20  C   UNL A   1     -27.029   0.396  26.009  0.00  0.00    +0.030 C 
ATOM     21  C   UNL A   1     -26.167   0.459  24.876  0.00  0.00    +0.005 C 
BRANCH  20  22
ATOM     22  C   UNL A   1     -28.371   0.536  25.878  0.00  0.00    -0.022 A 
ATOM     23  C   UNL A   1     -28.886   0.507  24.569  0.00  0.00    -0.004 A 
ATOM     24  C   UNL A   1     -30.284   0.571  24.390  0.00  0.00    -0.000 A 
ATOM     25  C   UNL A   1     -31.111   0.602  25.491  0.00  0.00    -0.000 A 
ATOM     26  C   UNL A   1     -30.622   0.569  26.768  0.00  0.00    -0.000 A 
ATOM     27  C   UNL A   1     -29.292   0.555  26.989  0.00  0.00    -0.004 A 
BRANCH  26  28
ATOM     28  C   UNL A   1     -31.624   0.675  27.899  0.00  0.00    +0.002 A 
ATOM     29  C   UNL A   1     -32.764   1.297  27.890  0.00  0.00    +0.030 A 
ATOM     30  C   UNL A   1     -33.606   1.374  29.015  0.00  0.00    +0.140 A 
ATOM     31  C   UNL A   1     -33.197   0.751  30.211  0.00  0.00    +0.030 A 
ATOM     32  C   UNL A   1     -32.002   0.061  30.250  0.00  0.00    +0.002 A 
ATOM     33  C   UNL A   1     -31.204   0.030  29.197  0.00  0.00    +0.000 A 
ATOM     34  F   UNL A   1     -34.759   2.029  28.925  0.00  0.00    -0.204 F 
ENDBRANCH  26  28
ENDBRANCH  20  22
ENDBRANCH   1  20
TORSDOF 5
