MODEL 3268
MODEL 1
REMARK VINA RESULT:    -9.563      0.000      0.000
REMARK INTER + INTRA:         -14.971
REMARK INTER:                 -12.358
REMARK INTRA:                  -2.613
REMARK UNBOUND:                -2.613
REMARK  Name = No_3268-gen_results/8p0m/2024-11-26-14-13-15/
REMARK  5 active torsions:
REMARK  status: ('A' for Active; 'I' for Inactive)
REMARK    1  A    between atoms: C_3  and  C_7
REMARK    2  A    between atoms: C_7  and  C_8
REMARK    3  A    between atoms: C_7  and  C_9
REMARK    4  A    between atoms: C_9  and  C_10
REMARK    5  A    between atoms: C_14  and  C_22
REMARK                            x       y       z     vdW  Elec       q    Type
REMARK                         _______ _______ _______ _____ _____    ______ ____
ROOT
ATOM      1  C   UNL A   1     -25.047   2.479  26.687  0.00  0.00    +0.049 C 
ENDROOT
BRANCH   1   4
ATOM      2  C   UNL A   1     -25.007   5.014  27.065  0.00  0.00    -0.004 A 
ATOM      3  C   UNL A   1     -25.228   5.816  27.711  0.00  0.00    -0.000 A 
ATOM      4  C   UNL A   1     -25.281   3.706  27.522  0.00  0.00    -0.018 A 
ATOM      5  C   UNL A   1     -25.808   3.465  28.775  0.00  0.00    -0.001 A 
ATOM      6  C   UNL A   1     -25.789   5.835  29.076  0.00  0.00    -0.000 A 
ATOM      7  C   UNL A   1     -26.065   4.601  29.553  0.00  0.00    -0.000 A 
ATOM      8  C   UNL A   1     -26.561   4.424  30.970  0.00  0.00    +0.003 A 
ATOM      9  C   UNL A   1     -26.871   3.491  31.381  0.00  0.00    +0.042 A 
ATOM     10  C   UNL A   1     -26.798   2.287  30.850  0.00  0.00    +0.196 A 
ATOM     11  C   UNL A   1     -26.216   2.205  29.392  0.00  0.00    +0.042 A 
ATOM     12  O   UNL A   1     -27.109   1.058  31.280  0.00  0.00    -0.287 OA
ENDBRANCH   1   4
BRANCH   1  13
ATOM     13  C   UNL A   1     -26.167   2.017  26.053  0.00  0.00    -0.018 A 
ATOM     14  C   UNL A   1     -26.209   0.768  25.380  0.00  0.00    -0.001 A 
ATOM     15  C   UNL A   1     -27.110   0.478  24.407  0.00  0.00    +0.042 A 
ATOM     16  C   UNL A   1     -28.117   1.437  24.075  0.00  0.00    +0.196 A 
ATOM     17  C   UNL A   1     -28.042   2.724  24.645  0.00  0.00    +0.042 A 
ATOM     18  C   UNL A   1     -27.024   3.050  25.483  0.00  0.00    -0.001 A 
ATOM     19  O   UNL A   1     -29.028   1.201  23.151  0.00  0.00    -0.287 OA
ENDBRANCH   1  13
BRANCH   1  20
ATOM     20  C   UNL A   1     -23.819   1.872  26.564  0.00  0.00    +0.030 C 
ATOM     21  C   UNL A   1     -23.033   2.297  25.453  0.00  0.00    +0.005 C 
BRANCH  20  22
ATOM     22  C   UNL A   1     -23.408   0.861  27.368  0.00  0.00    -0.022 A 
ATOM     23  C   UNL A   1     -22.152   1.012  27.984  0.00  0.00    -0.004 A 
ATOM     24  C   UNL A   1     -21.719   0.021  28.890  0.00  0.00    -0.000 A 
ATOM     25  C   UNL A   1     -22.550  -1.035  29.193  0.00  0.00    -0.000 A 
ATOM     26  C   UNL A   1     -23.797  -1.158  28.645  0.00  0.00    -0.000 A 
ATOM     27  C   UNL A   1     -24.236  -0.261  27.739  0.00  0.00    -0.004 A 
BRANCH  26  28
ATOM     28  C   UNL A   1     -24.594  -2.395  29.003  0.00  0.00    +0.002 A 
ATOM     29  C   UNL A   1     -24.278  -3.634  28.773  0.00  0.00    +0.030 A 
ATOM     30  C   UNL A   1     -25.115  -4.715  29.107  0.00  0.00    +0.140 A 
ATOM     31  C   UNL A   1     -26.356  -4.447  29.718  0.00  0.00    +0.030 A 
ATOM     32  C   UNL A   1     -26.715  -3.144  29.998  0.00  0.00    +0.002 A 
ATOM     33  C   UNL A   1     -25.936  -2.137  29.644  0.00  0.00    +0.000 A 
ATOM     34  F   UNL A   1     -24.719  -5.955  28.840  0.00  0.00    -0.204 F 
ENDBRANCH  26  28
ENDBRANCH  20  22
ENDBRANCH   1  20
TORSDOF 5
ENDMDL
ENDMDL
