MODEL 3269
MODEL 1
REMARK VINA RESULT:    -5.966      0.000      0.000
REMARK INTER + INTRA:          -6.695
REMARK INTER:                  -6.664
REMARK INTRA:                  -0.031
REMARK UNBOUND:                -0.031
REMARK  Name = No_3269-gen_results/8p0m/2024-11-26-14-13-15/
REMARK  2 active torsions:
REMARK  status: ('A' for Active; 'I' for Inactive)
REMARK    1  A    between atoms: C_4  and  C_5
REMARK    2  A    between atoms: C_9  and  C_13
REMARK                            x       y       z     vdW  Elec       q    Type
REMARK                         _______ _______ _______ _____ _____    ______ ____
ROOT
ATOM      1  C   UNL A   1     -24.176  -0.299  27.854  0.00  0.00    +0.072 C 
ATOM      2  C   UNL A   1     -22.944   0.271  28.372  0.00  0.00    +0.082 C 
ATOM      3  C   UNL A   1     -22.455   1.448  27.707  0.00  0.00    +0.101 C 
ATOM      4  N   UNL A   1     -23.242   1.817  26.660  0.00  0.00    -0.247 NA
ATOM      5  C   UNL A   1     -24.598   0.464  26.748  0.00  0.00    +0.077 C 
ENDROOT
BRANCH   1   9
ATOM      6  O   UNL A   1     -24.099  -5.013  28.967  0.00  0.00    -0.273 OA
ATOM      7  C   UNL A   1     -24.409  -3.816  28.967  0.00  0.00    +0.241 C 
ATOM      8  C   UNL A   1     -24.019  -2.824  28.566  0.00  0.00    +0.088 C 
ATOM      9  C   UNL A   1     -24.680  -1.468  28.462  0.00  0.00    +0.021 C 
ATOM     10  N   UNL A   1     -25.586  -3.565  29.907  0.00  0.00    -0.205 NA
ATOM     11  C   UNL A   1     -26.293  -2.417  29.998  0.00  0.00    +0.115 C 
ATOM     12  C   UNL A   1     -25.874  -1.284  29.293  0.00  0.00    +0.025 C 
ENDBRANCH   1   9
BRANCH   2  13
ATOM     13  C   UNL A   1     -22.105  -0.300  29.458  0.00  0.00    +0.386 C 
ATOM     14  O   UNL A   1     -22.421  -0.379  30.568  0.00  0.00    -0.241 OA
ATOM     15  O   UNL A   1     -21.127  -1.054  28.991  0.00  0.00    -0.241 OA
ENDBRANCH   2  13
TORSDOF 2
ENDMDL
ENDMDL
