REMARK  Name = No_3269-gen_results/8p0m/2024-11-26-14-13-15/
REMARK  2 active torsions:
REMARK  status: ('A' for Active; 'I' for Inactive)
REMARK    1  A    between atoms: C_4  and  C_5
REMARK    2  A    between atoms: C_9  and  C_13
REMARK                            x       y       z     vdW  Elec       q    Type
REMARK                         _______ _______ _______ _____ _____    ______ ____
ROOT
ATOM      1  C   UNL A   1     -23.389  -0.455  29.016  0.00  0.00    +0.072 C 
ATOM      2  C   UNL A   1     -22.520   0.560  28.447  0.00  0.00    +0.082 C 
ATOM      3  C   UNL A   1     -21.127   0.221  28.337  0.00  0.00    +0.101 C 
ATOM      4  N   UNL A   1     -20.856  -1.020  28.825  0.00  0.00    -0.247 NA
ATOM      5  C   UNL A   1     -22.609  -1.574  29.368  0.00  0.00    +0.077 C 
ENDROOT
BRANCH   1   9
ATOM      6  O   UNL A   1     -28.123  -1.335  28.487  0.00  0.00    -0.273 OA
ATOM      7  C   UNL A   1     -27.064  -0.824  28.869  0.00  0.00    +0.241 C 
ATOM      8  C   UNL A   1     -25.946  -1.040  28.849  0.00  0.00    +0.088 C 
ATOM      9  C   UNL A   1     -24.760  -0.156  29.164  0.00  0.00    +0.021 C 
ATOM     10  N   UNL A   1     -27.340   0.383  29.763  0.00  0.00    -0.205 NA
ATOM     11  C   UNL A   1     -26.421   1.277  30.189  0.00  0.00    +0.115 C 
ATOM     12  C   UNL A   1     -25.064   1.055  29.932  0.00  0.00    +0.025 C 
ENDBRANCH   1   9
BRANCH   2  13
ATOM     13  C   UNL A   1     -22.921   1.937  28.056  0.00  0.00    +0.386 C 
ATOM     14  O   UNL A   1     -23.858   2.491  28.448  0.00  0.00    -0.241 OA
ATOM     15  O   UNL A   1     -21.922   2.617  27.524  0.00  0.00    -0.241 OA
ENDBRANCH   2  13
TORSDOF 2
