MODEL 326
MODEL 1
REMARK VINA RESULT:    -4.551      0.000      0.000
REMARK INTER + INTRA:          -4.551
REMARK INTER:                  -4.551
REMARK INTRA:                   0.000
REMARK UNBOUND:                 0.000
REMARK  Name = No_326-gen_results/8p0m/2024-11-26-14-13-15/
REMARK  0 active torsions:
REMARK  status: ('A' for Active; 'I' for Inactive)
REMARK                            x       y       z     vdW  Elec       q    Type
REMARK                         _______ _______ _______ _____ _____    ______ ____
ROOT
ATOM      1  C   UNL A   1     -23.882  -3.334  28.915  0.00  0.00    +0.024 A 
ATOM      2  C   UNL A   1     -24.854  -4.010  29.163  0.00  0.00    +0.069 A 
ATOM      3  C   UNL A   1     -25.980  -3.458  29.762  0.00  0.00    +0.068 A 
ATOM      4  C   UNL A   1     -26.008  -2.071  30.150  0.00  0.00    +0.013 A 
ATOM      5  C   UNL A   1     -25.045  -1.449  29.858  0.00  0.00    +0.012 A 
ATOM      6  C   UNL A   1     -23.888  -1.917  29.288  0.00  0.00    +0.059 A 
ATOM      7 CL   UNL A   1     -24.928  -5.694  28.832  0.00  0.00    -0.081 Cl
ATOM      8 CL   UNL A   1     -22.550  -0.882  29.042  0.00  0.00    -0.082 Cl
ATOM      9 CL   UNL A   1     -27.452  -4.441  30.112  0.00  0.00    -0.081 Cl
ENDROOT
TORSDOF 0
ENDMDL
ENDMDL
