REMARK  Name = No_3270-gen_results/8p0m/2024-11-26-14-13-15/
REMARK  5 active torsions:
REMARK  status: ('A' for Active; 'I' for Inactive)
REMARK    1  A    between atoms: C_3  and  C_7
REMARK    2  A    between atoms: C_16  and  C_18
REMARK    3  A    between atoms: C_18  and  O_20
REMARK    4  A    between atoms: O_20  and  C_23
REMARK    5  A    between atoms: C_23  and  C_24
REMARK                            x       y       z     vdW  Elec       q    Type
REMARK                         _______ _______ _______ _____ _____    ______ ____
ROOT
ATOM      1  C   UNL A   1     -27.460   0.380  26.709  0.00  0.00    +0.006 A 
ATOM      2  C   UNL A   1     -26.466   1.408  26.565  0.00  0.00    +0.001 A 
ATOM      3  C   UNL A   1     -26.133   2.274  27.548  0.00  0.00    +0.011 A 
ATOM      4  C   UNL A   1     -25.044   3.171  27.311  0.00  0.00    +0.058 A 
ATOM      5  C   UNL A   1     -24.253   2.999  26.170  0.00  0.00    +0.011 A 
ATOM      6  C   UNL A   1     -24.415   1.990  25.335  0.00  0.00    +0.001 A 
ATOM      7  C   UNL A   1     -25.498   1.115  25.511  0.00  0.00    +0.000 A 
ATOM      8  C   UNL A   1     -25.837  -0.022  24.788  0.00  0.00    +0.000 A 
ATOM      9  C   UNL A   1     -28.320   0.503  25.570  0.00  0.00    +0.076 A 
ATOM     10  C   UNL A   1     -27.505   0.165  24.402  0.00  0.00    +0.006 A 
ATOM     11 CL   UNL A   1     -24.795   4.540  28.350  0.00  0.00    -0.082 Cl
ENDROOT
BRANCH   1  14
ATOM     12  C   UNL A   1     -28.016  -0.814  28.878  0.00  0.00    +0.011 A 
ATOM     13  C   UNL A   1     -28.469  -0.785  29.829  0.00  0.00    +0.059 A 
ATOM     14  C   UNL A   1     -28.196   0.348  28.055  0.00  0.00    +0.002 A 
ATOM     15  C   UNL A   1     -29.019   1.350  28.378  0.00  0.00    +0.011 A 
ATOM     16  C   UNL A   1     -29.411   0.180  30.378  0.00  0.00    +0.023 A 
ATOM     17  C   UNL A   1     -29.606   1.250  29.619  0.00  0.00    +0.059 A 
ATOM     18 CL   UNL A   1     -30.564   2.638  29.978  0.00  0.00    -0.082 Cl
ATOM     19 CL   UNL A   1     -28.345  -2.179  30.993  0.00  0.00    -0.082 Cl
ENDBRANCH   1  14
BRANCH   9  20
ATOM     20  C   UNL A   1     -29.628   0.633  25.474  0.00  0.00    +0.348 C 
ATOM     21  O   UNL A   1     -30.187   1.761  25.512  0.00  0.00    -0.244 OA
BRANCH  20  22
ATOM     22  O   UNL A   1     -30.382  -0.465  25.438  0.00  0.00    -0.381 OA
BRANCH  22  23
ATOM     23  C   UNL A   1     -31.736  -0.438  25.711  0.00  0.00    +0.429 C 
ATOM     24  O   UNL A   1     -32.434   0.465  25.518  0.00  0.00    -0.237 OA
BRANCH  23  25
ATOM     25  C   UNL A   1     -32.130  -1.652  26.322  0.00  0.00    +0.463 C 
ATOM     26  O   UNL A   1     -33.067  -1.880  26.688  0.00  0.00    -0.233 OA
ATOM     27  O   UNL A   1     -31.238  -2.615  26.439  0.00  0.00    -0.233 OA
ENDBRANCH  23  25
ENDBRANCH  22  23
ENDBRANCH  20  22
ENDBRANCH   9  20
TORSDOF 5
