MODEL 3270
MODEL 1
REMARK VINA RESULT:    -6.854      0.000      0.000
REMARK INTER + INTRA:          -9.412
REMARK INTER:                  -8.858
REMARK INTRA:                  -0.554
REMARK UNBOUND:                -0.554
REMARK  Name = No_3270-gen_results/8p0m/2024-11-26-14-13-15/
REMARK  5 active torsions:
REMARK  status: ('A' for Active; 'I' for Inactive)
REMARK    1  A    between atoms: C_3  and  C_7
REMARK    2  A    between atoms: C_16  and  C_18
REMARK    3  A    between atoms: C_18  and  O_20
REMARK    4  A    between atoms: O_20  and  C_23
REMARK    5  A    between atoms: C_23  and  C_24
REMARK                            x       y       z     vdW  Elec       q    Type
REMARK                         _______ _______ _______ _____ _____    ______ ____
ROOT
ATOM      1  C   UNL A   1     -13.064 -21.853  17.815  0.00  0.00    +0.006 A 
ATOM      2  C   UNL A   1     -11.885 -21.406  17.124  0.00  0.00    +0.001 A 
ATOM      3  C   UNL A   1     -11.070 -22.225  16.422  0.00  0.00    +0.011 A 
ATOM      4  C   UNL A   1      -9.997 -21.631  15.685  0.00  0.00    +0.058 A 
ATOM      5  C   UNL A   1      -9.941 -20.239  15.562  0.00  0.00    +0.011 A 
ATOM      6  C   UNL A   1     -10.883 -19.442  16.031  0.00  0.00    +0.001 A 
ATOM      7  C   UNL A   1     -11.928 -19.984  16.795  0.00  0.00    +0.000 A 
ATOM      8  C   UNL A   1     -13.034 -19.350  17.348  0.00  0.00    +0.000 A 
ATOM      9  C   UNL A   1     -12.974 -21.311  19.137  0.00  0.00    +0.076 A 
ATOM     10  C   UNL A   1     -13.074 -19.858  18.993  0.00  0.00    +0.006 A 
ATOM     11 CL   UNL A   1      -8.706 -22.617  15.072  0.00  0.00    -0.082 Cl
ENDROOT
BRANCH   1  14
ATOM     12  C   UNL A   1     -12.326 -24.228  18.318  0.00  0.00    +0.011 A 
ATOM     13  C   UNL A   1     -12.561 -25.256  18.344  0.00  0.00    +0.059 A 
ATOM     14  C   UNL A   1     -13.331 -23.363  17.769  0.00  0.00    +0.002 A 
ATOM     15  C   UNL A   1     -14.435 -23.817  17.167  0.00  0.00    +0.011 A 
ATOM     16  C   UNL A   1     -13.678 -25.967  17.740  0.00  0.00    +0.023 A 
ATOM     17  C   UNL A   1     -14.605 -25.183  17.208  0.00  0.00    +0.059 A 
ATOM     18 CL   UNL A   1     -16.104 -25.653  16.497  0.00  0.00    -0.082 Cl
ATOM     19 CL   UNL A   1     -11.394 -26.489  19.001  0.00  0.00    -0.082 Cl
ENDBRANCH   1  14
BRANCH   9  20
ATOM     20  C   UNL A   1     -13.041 -21.884  20.322  0.00  0.00    +0.348 C 
ATOM     21  O   UNL A   1     -14.141 -22.216  20.838  0.00  0.00    -0.244 OA
BRANCH  20  22
ATOM     22  O   UNL A   1     -11.922 -22.023  21.033  0.00  0.00    -0.381 OA
BRANCH  22  23
ATOM     23  C   UNL A   1     -11.606 -21.179  22.080  0.00  0.00    +0.429 C 
ATOM     24  O   UNL A   1     -12.296 -20.346  22.493  0.00  0.00    -0.237 OA
BRANCH  23  25
ATOM     25  C   UNL A   1     -10.289 -21.438  22.528  0.00  0.00    +0.463 C 
ATOM     26  O   UNL A   1     -10.012 -21.761  23.468  0.00  0.00    -0.233 OA
ATOM     27  O   UNL A   1      -9.293 -21.272  21.682  0.00  0.00    -0.233 OA
ENDBRANCH  23  25
ENDBRANCH  22  23
ENDBRANCH  20  22
ENDBRANCH   9  20
TORSDOF 5
ENDMDL
ENDMDL
