MODEL 3273
MODEL 1
REMARK VINA RESULT:    -5.692      0.000      0.000
REMARK INTER + INTRA:          -6.052
REMARK INTER:                  -6.025
REMARK INTRA:                  -0.027
REMARK UNBOUND:                -0.027
REMARK  Name = No_3273-gen_results/8p0m/2024-11-26-14-13-15/
REMARK  1 active torsions:
REMARK  status: ('A' for Active; 'I' for Inactive)
REMARK    1  A    between atoms: C_5  and  C_11
REMARK                            x       y       z     vdW  Elec       q    Type
REMARK                         _______ _______ _______ _____ _____    ______ ____
ROOT
ATOM      1  C   UNL A   1     -22.506   1.827  27.717  0.00  0.00    +0.000 A 
ATOM      2  C   UNL A   1     -22.962   0.748  28.015  0.00  0.00    +0.000 A 
ATOM      3  C   UNL A   1     -24.057   0.195  27.578  0.00  0.00    +0.001 A 
ATOM      4  C   UNL A   1     -24.582  -1.138  27.965  0.00  0.00    +0.010 A 
ATOM      5  C   UNL A   1     -23.781  -1.896  28.866  0.00  0.00    +0.068 A 
ATOM      6  C   UNL A   1     -22.571  -1.324  29.272  0.00  0.00    +0.010 A 
ATOM      7  C   UNL A   1     -22.146  -0.099  28.872  0.00  0.00    +0.001 A 
ATOM      8  C   UNL A   1     -22.729   2.238  26.259  0.00  0.00    +0.000 A 
ATOM      9  C   UNL A   1     -24.022   2.025  25.791  0.00  0.00    +0.000 A 
ATOM     10  C   UNL A   1     -24.582   0.722  26.269  0.00  0.00    +0.000 A 
ENDROOT
BRANCH   5  11
ATOM     11  C   UNL A   1     -24.202  -3.154  29.436  0.00  0.00    +0.100 C 
ATOM     12  N   UNL A   1     -24.200  -4.406  29.266  0.00  0.00    -0.191 NA
ENDBRANCH   5  11
TORSDOF 1
ENDMDL
ENDMDL
