REMARK  Name = No_3273-gen_results/8p0m/2024-11-26-14-13-15/
REMARK  1 active torsions:
REMARK  status: ('A' for Active; 'I' for Inactive)
REMARK    1  A    between atoms: C_5  and  C_11
REMARK                            x       y       z     vdW  Elec       q    Type
REMARK                         _______ _______ _______ _____ _____    ______ ____
ROOT
ATOM      1  C   UNL A   1     -28.016  -0.814  28.878  0.00  0.00    +0.000 A 
ATOM      2  C   UNL A   1     -27.064  -0.119  28.608  0.00  0.00    +0.000 A 
ATOM      3  C   UNL A   1     -26.876   1.133  28.913  0.00  0.00    +0.001 A 
ATOM      4  C   UNL A   1     -25.688   1.952  28.567  0.00  0.00    +0.010 A 
ATOM      5  C   UNL A   1     -24.639   1.283  27.875  0.00  0.00    +0.068 A 
ATOM      6  C   UNL A   1     -24.818  -0.080  27.617  0.00  0.00    +0.010 A 
ATOM      7  C   UNL A   1     -25.931  -0.772  27.970  0.00  0.00    +0.001 A 
ATOM      8  C   UNL A   1     -28.654  -0.527  30.240  0.00  0.00    +0.000 A 
ATOM      9  C   UNL A   1     -28.847   0.824  30.514  0.00  0.00    +0.000 A 
ATOM     10  C   UNL A   1     -27.685   1.656  30.070  0.00  0.00    +0.000 A 
ENDROOT
BRANCH   5  11
ATOM     11  C   UNL A   1     -23.472   1.959  27.359  0.00  0.00    +0.100 C 
ATOM     12  N   UNL A   1     -22.329   2.403  27.662  0.00  0.00    -0.191 NA
ENDBRANCH   5  11
TORSDOF 1
