MODEL 3274
MODEL 1
REMARK VINA RESULT:    -5.709      0.000      0.000
REMARK INTER + INTRA:          -7.178
REMARK INTER:                  -6.710
REMARK INTRA:                  -0.468
REMARK UNBOUND:                -0.468
REMARK  Name = No_3274-gen_results/8p0m/2024-11-26-14-13-15/
REMARK  3 active torsions:
REMARK  status: ('A' for Active; 'I' for Inactive)
REMARK    1  A    between atoms: C_1  and  C_2
REMARK    2  A    between atoms: C_1  and  C_3
REMARK    3  A    between atoms: C_2  and  C_5
REMARK                            x       y       z     vdW  Elec       q    Type
REMARK                         _______ _______ _______ _____ _____    ______ ____
ROOT
ATOM      1  C   UNL A   1     -24.458  -1.436  29.831  0.00  0.00    +0.035 C 
ENDROOT
BRANCH   1   2
ATOM      2  C   UNL A   1     -24.917  -2.696  29.248  0.00  0.00    -0.022 A 
ATOM      3  C   UNL A   1     -25.987  -3.376  29.718  0.00  0.00    -0.004 A 
ATOM      4  C   UNL A   1     -26.028  -4.708  29.688  0.00  0.00    -0.000 A 
ATOM      5  C   UNL A   1     -25.113  -5.520  28.933  0.00  0.00    -0.000 A 
ATOM      6  C   UNL A   1     -23.985  -4.849  28.465  0.00  0.00    -0.000 A 
ATOM      7  C   UNL A   1     -23.878  -3.482  28.734  0.00  0.00    -0.004 A 
ENDBRANCH   1   2
BRANCH   1   8
ATOM      8  C   UNL A   1     -24.266  -1.495  30.865  0.00  0.00    +0.108 C 
BRANCH   8   9
ATOM      9  C   UNL A   1     -23.134  -0.806  31.449  0.00  0.00    +0.398 C 
ATOM     10  F   UNL A   1     -23.423   0.335  31.780  0.00  0.00    -0.170 F 
ATOM     11  F   UNL A   1     -22.149  -0.675  30.602  0.00  0.00    -0.170 F 
ATOM     12  F   UNL A   1     -22.558  -1.354  32.534  0.00  0.00    -0.170 F 
ENDBRANCH   8   9
ENDBRANCH   1   8
TORSDOF 3
ENDMDL
ENDMDL
