MODEL 3275
MODEL 1
REMARK VINA RESULT:    -7.011      0.000      0.000
REMARK INTER + INTRA:          -7.812
REMARK INTER:                  -7.831
REMARK INTRA:                   0.019
REMARK UNBOUND:                 0.019
REMARK  Name = No_3275-gen_results/8p0m/2024-11-26-14-13-15/
REMARK  2 active torsions:
REMARK  status: ('A' for Active; 'I' for Inactive)
REMARK    1  A    between atoms: C_2  and  C_7
REMARK    2  A    between atoms: CA_15  and  C_16
REMARK                            x       y       z     vdW  Elec       q    Type
REMARK                         _______ _______ _______ _____ _____    ______ ____
ROOT
ATOM      1  C   UNL A   1     -24.494  -1.221  28.952  0.00  0.00    +0.172 C 
ATOM      2  N   UNL A   1     -24.411  -0.448  29.807  0.00  0.00    -0.292 N 
ATOM      3  C   UNL A   1     -24.385  -0.850  31.070  0.00  0.00    +0.058 C 
ATOM      4  C   UNL A   1     -23.831  -0.256  31.808  0.00  0.00    -0.009 C 
ATOM      5  C   UNL A   1     -24.104   0.904  29.662  0.00  0.00    +0.081 C 
ATOM      6  C   UNL A   1     -24.052   1.428  28.282  0.00  0.00    +0.049 C 
ATOM      7  C   UNL A   1     -23.543   1.434  30.793  0.00  0.00    +0.047 C 
ATOM      8  N   UNL A   1     -24.648  -0.874  27.609  0.00  0.00    -0.186 NA
ATOM      9  CA  UNL A   1     -24.364   0.508  27.282  0.00  0.00    +0.179 C 
ENDROOT
BRANCH   1  11
ATOM     10  C   UNL A   1     -23.937  -3.423  28.730  0.00  0.00    -0.001 A 
ATOM     11  C   UNL A   1     -24.783  -2.646  29.109  0.00  0.00    +0.012 A 
ATOM     12  C   UNL A   1     -25.995  -3.098  29.621  0.00  0.00    -0.001 A 
ATOM     13  C   UNL A   1     -26.299  -4.505  29.672  0.00  0.00    -0.000 A 
ATOM     14  C   UNL A   1     -25.275  -5.331  29.192  0.00  0.00    -0.000 A 
ATOM     15  C   UNL A   1     -24.153  -4.853  28.703  0.00  0.00    -0.000 A 
ENDBRANCH   1  11
BRANCH   9  16
ATOM     16  C   UNL A   1     -24.501   0.895  25.879  0.00  0.00    +0.380 C 
ATOM     17  O   UNL A   1     -25.268   0.387  25.241  0.00  0.00    -0.244 OA
ATOM     18  OXT UNL A   1     -23.607   1.834  25.449  0.00  0.00    -0.244 OA
ENDBRANCH   9  16
TORSDOF 2
ENDMDL
ENDMDL
