REMARK  Name = No_3275-gen_results/8p0m/2024-11-26-14-13-15/
REMARK  2 active torsions:
REMARK  status: ('A' for Active; 'I' for Inactive)
REMARK    1  A    between atoms: C_2  and  C_7
REMARK    2  A    between atoms: CA_15  and  C_16
REMARK                            x       y       z     vdW  Elec       q    Type
REMARK                         _______ _______ _______ _____ _____    ______ ____
ROOT
ATOM      1  C   UNL A   1     -27.324   1.085  27.819  0.00  0.00    +0.172 C 
ATOM      2  N   UNL A   1     -27.641   1.112  26.708  0.00  0.00    -0.292 N 
ATOM      3  C   UNL A   1     -27.992  -0.006  26.087  0.00  0.00    +0.058 C 
ATOM      4  C   UNL A   1     -28.730   0.043  25.276  0.00  0.00    -0.009 C 
ATOM      5  C   UNL A   1     -27.920   2.257  25.963  0.00  0.00    +0.081 C 
ATOM      6  C   UNL A   1     -27.616   3.554  26.601  0.00  0.00    +0.049 C 
ATOM      7  C   UNL A   1     -28.767   2.003  24.917  0.00  0.00    +0.047 C 
ATOM      8  N   UNL A   1     -26.828   2.193  28.508  0.00  0.00    -0.186 NA
ATOM      9  CA  UNL A   1     -27.038   3.475  27.867  0.00  0.00    +0.179 C 
ENDROOT
BRANCH   1  11
ATOM     10  C   UNL A   1     -28.016  -0.814  28.878  0.00  0.00    -0.001 A 
ATOM     11  C   UNL A   1     -27.064  -0.119  28.608  0.00  0.00    +0.012 A 
ATOM     12  C   UNL A   1     -25.792  -0.430  29.076  0.00  0.00    -0.001 A 
ATOM     13  C   UNL A   1     -25.576  -1.565  29.936  0.00  0.00    -0.000 A 
ATOM     14  C   UNL A   1     -26.735  -2.300  30.217  0.00  0.00    -0.000 A 
ATOM     15  C   UNL A   1     -27.918  -1.954  29.763  0.00  0.00    -0.000 A 
ENDBRANCH   1  11
BRANCH   9  16
ATOM     16  C   UNL A   1     -26.543   4.654  28.575  0.00  0.00    +0.380 C 
ATOM     17  O   UNL A   1     -27.090   5.626  28.474  0.00  0.00    -0.244 OA
ATOM     18  OXT UNL A   1     -25.384   4.465  29.273  0.00  0.00    -0.244 OA
ENDBRANCH   9  16
TORSDOF 2
