MODEL 3276
MODEL 1
REMARK VINA RESULT:    -6.946      0.000      0.000
REMARK INTER + INTRA:          -8.404
REMARK INTER:                  -7.758
REMARK INTRA:                  -0.646
REMARK UNBOUND:                -0.646
REMARK  Name = No_3276-gen_results/8p0m/2024-11-26-14-13-15/
REMARK  2 active torsions:
REMARK  status: ('A' for Active; 'I' for Inactive)
REMARK    1  A    between atoms: C_2  and  C_7
REMARK    2  A    between atoms: N_12  and  C_16
REMARK                            x       y       z     vdW  Elec       q    Type
REMARK                         _______ _______ _______ _____ _____    ______ ____
ROOT
ATOM      1  C   UNL A   1      -7.951   0.236  35.094  0.00  0.00    +0.177 C 
ATOM      2  N   UNL A   1      -8.806  -0.145  35.890  0.00  0.00    -0.148 NA
ATOM      3  N   UNL A   1      -8.197   1.301  34.341  0.00  0.00    -0.148 NA
ATOM      4  C   UNL A   1      -9.394   1.893  34.454  0.00  0.00    +0.321 C 
ATOM      5  C   UNL A   1     -10.006   0.362  36.074  0.00  0.00    +0.321 C 
ATOM      6  N   UNL A   1     -10.297   1.466  35.273  0.00  0.00    -0.227 N 
ATOM      7  F   UNL A   1      -9.638   2.924  33.700  0.00  0.00    -0.194 F 
ATOM      8  F   UNL A   1     -10.886  -0.194  36.764  0.00  0.00    -0.194 F 
ENDROOT
BRANCH   1  10
ATOM      9  C   UNL A   1      -5.780   0.232  34.923  0.00  0.00    -0.001 A 
ATOM     10  C   UNL A   1      -6.567  -0.466  34.859  0.00  0.00    +0.010 A 
ATOM     11  C   UNL A   1      -4.415  -0.299  34.777  0.00  0.00    +0.011 A 
ATOM     12  C   UNL A   1      -4.202  -1.664  34.425  0.00  0.00    +0.058 A 
ATOM     13  C   UNL A   1      -6.621  -1.897  34.453  0.00  0.00    -0.001 A 
ATOM     14  C   UNL A   1      -5.373  -2.428  34.318  0.00  0.00    +0.011 A 
ATOM     15 CL   UNL A   1      -2.691  -2.307  34.203  0.00  0.00    -0.082 Cl
ENDBRANCH   1  10
BRANCH   6  16
ATOM     16  C   UNL A   1     -11.615   2.076  35.445  0.00  0.00    +0.054 A 
ATOM     17  C   UNL A   1     -11.903   2.743  36.221  0.00  0.00    +0.015 A 
ATOM     18  C   UNL A   1     -13.195   3.376  36.269  0.00  0.00    +0.001 A 
ATOM     19  C   UNL A   1     -14.041   3.050  35.218  0.00  0.00    +0.000 A 
ATOM     20  C   UNL A   1     -13.654   2.224  34.227  0.00  0.00    +0.001 A 
ATOM     21  C   UNL A   1     -12.447   1.677  34.289  0.00  0.00    +0.015 A 
ENDBRANCH   6  16
TORSDOF 2
ENDMDL
ENDMDL
