REMARK  Name = No_3276-gen_results/8p0m/2024-11-26-14-13-15/
REMARK  2 active torsions:
REMARK  status: ('A' for Active; 'I' for Inactive)
REMARK    1  A    between atoms: C_2  and  C_7
REMARK    2  A    between atoms: N_12  and  C_16
REMARK                            x       y       z     vdW  Elec       q    Type
REMARK                         _______ _______ _______ _____ _____    ______ ____
ROOT
ATOM      1  C   UNL A   1     -30.028  -0.659  29.697  0.00  0.00    +0.177 C 
ATOM      2  N   UNL A   1     -30.840  -1.437  30.192  0.00  0.00    -0.148 NA
ATOM      3  N   UNL A   1     -30.468   0.358  28.968  0.00  0.00    -0.148 NA
ATOM      4  C   UNL A   1     -31.789   0.468  28.766  0.00  0.00    +0.321 C 
ATOM      5  C   UNL A   1     -32.148  -1.419  30.052  0.00  0.00    +0.321 C 
ATOM      6  N   UNL A   1     -32.632  -0.374  29.266  0.00  0.00    -0.227 N 
ATOM      7  F   UNL A   1     -32.214   1.455  28.034  0.00  0.00    -0.194 F 
ATOM      8  F   UNL A   1     -32.890  -2.350  30.428  0.00  0.00    -0.194 F 
ENDROOT
BRANCH   1  10
ATOM      9  C   UNL A   1     -28.016  -0.814  28.878  0.00  0.00    -0.001 A 
ATOM     10  C   UNL A   1     -28.469  -0.785  29.829  0.00  0.00    +0.010 A 
ATOM     11  C   UNL A   1     -26.546  -0.876  28.850  0.00  0.00    +0.011 A 
ATOM     12  C   UNL A   1     -25.804  -1.032  30.057  0.00  0.00    +0.058 A 
ATOM     13  C   UNL A   1     -27.944  -0.987  31.207  0.00  0.00    -0.001 A 
ATOM     14  C   UNL A   1     -26.582  -1.039  31.223  0.00  0.00    +0.011 A 
ATOM     15 CL   UNL A   1     -24.151  -1.153  30.084  0.00  0.00    -0.082 Cl
ENDBRANCH   1  10
BRANCH   6  16
ATOM     16  C   UNL A   1     -34.082  -0.299  29.087  0.00  0.00    +0.054 A 
ATOM     17  C   UNL A   1     -34.593   0.202  28.301  0.00  0.00    +0.015 A 
ATOM     18  C   UNL A   1     -36.023   0.151  28.142  0.00  0.00    +0.001 A 
ATOM     19  C   UNL A   1     -36.688  -0.606  29.097  0.00  0.00    +0.000 A 
ATOM     20  C   UNL A   1     -36.024  -1.256  30.073  0.00  0.00    +0.001 A 
ATOM     21  C   UNL A   1     -34.706  -1.127  30.141  0.00  0.00    +0.015 A 
ENDBRANCH   6  16
TORSDOF 2
