MODEL 3277
MODEL 1
REMARK VINA RESULT:    -7.887      0.000      0.000
REMARK INTER + INTRA:         -11.361
REMARK INTER:                 -10.192
REMARK INTRA:                  -1.169
REMARK UNBOUND:                -1.169
REMARK  Name = No_3277-gen_results/8p0m/2024-11-26-14-13-15/
REMARK  5 active torsions:
REMARK  status: ('A' for Active; 'I' for Inactive)
REMARK    1  A    between atoms: C_2  and  C_11
REMARK    2  A    between atoms: C_3  and  C_4
REMARK    3  A    between atoms: C_6  and  C_14
REMARK    4  A    between atoms: C_15  and  C_16
REMARK    5  A    between atoms: C_15  and  C_22
REMARK                            x       y       z     vdW  Elec       q    Type
REMARK                         _______ _______ _______ _____ _____    ______ ____
ROOT
ATOM      1  C   UNL A   1     -23.550  -2.290  29.020  0.00  0.00    +0.010 A 
ATOM      2  C   UNL A   1     -24.524  -2.565  28.725  0.00  0.00    +0.080 A 
ATOM      3  C   UNL A   1     -23.106  -0.990  28.694  0.00  0.00    +0.072 A 
ATOM      4  C   UNL A   1     -25.336  -1.867  28.175  0.00  0.00    +0.007 A 
ATOM      5  C   UNL A   1     -25.201  -0.546  27.752  0.00  0.00    +0.000 A 
ATOM      6  C   UNL A   1     -23.995  -0.046  28.088  0.00  0.00    +0.004 A 
ENDROOT
BRANCH   3   7
ATOM      7  C   UNL A   1     -21.809  -0.409  29.129  0.00  0.00    +0.419 C 
ATOM      8  F   UNL A   1     -21.539   0.516  28.551  0.00  0.00    -0.166 F 
ATOM      9  F   UNL A   1     -21.914  -0.089  30.483  0.00  0.00    -0.166 F 
ATOM     10  F   UNL A   1     -20.640  -0.958  28.842  0.00  0.00    -0.166 F 
ENDBRANCH   3   7
BRANCH   2  11
ATOM     11  C   UNL A   1     -25.013  -4.044  29.173  0.00  0.00    +0.388 C 
ATOM     12  O   UNL A   1     -26.070  -4.123  29.664  0.00  0.00    -0.241 OA
ATOM     13  O   UNL A   1     -24.202  -4.994  29.243  0.00  0.00    -0.241 OA
ENDBRANCH   2  11
BRANCH   5  14
ATOM     14  C   UNL A   1     -26.138   0.299  27.086  0.00  0.00    +0.004 C 
ATOM     15  C   UNL A   1     -26.521   0.110  25.999  0.00  0.00    +0.071 C 
BRANCH  15  16
ATOM     16  C   UNL A   1     -27.518   0.928  25.189  0.00  0.00    +0.004 A 
ATOM     17  C   UNL A   1     -27.530   2.366  25.108  0.00  0.00    -0.000 A 
ATOM     18  C   UNL A   1     -28.426   3.087  24.337  0.00  0.00    -0.000 A 
ATOM     19  C   UNL A   1     -29.438   2.401  23.656  0.00  0.00    -0.000 A 
ATOM     20  C   UNL A   1     -29.464   1.040  23.730  0.00  0.00    -0.000 A 
ATOM     21  C   UNL A   1     -28.574   0.314  24.493  0.00  0.00    -0.000 A 
ENDBRANCH  15  16
BRANCH  15  22
ATOM     22  C   UNL A   1     -25.475  -0.154  24.919  0.00  0.00    +0.419 C 
ATOM     23  F   UNL A   1     -24.408   0.270  25.178  0.00  0.00    -0.166 F 
ATOM     24  F   UNL A   1     -25.449  -1.554  24.734  0.00  0.00    -0.166 F 
ATOM     25  F   UNL A   1     -25.658   0.286  23.678  0.00  0.00    -0.166 F 
ENDBRANCH  15  22
ENDBRANCH   5  14
TORSDOF 5
ENDMDL
ENDMDL
