REMARK  Name = No_3277-gen_results/8p0m/2024-11-26-14-13-15/
REMARK  5 active torsions:
REMARK  status: ('A' for Active; 'I' for Inactive)
REMARK    1  A    between atoms: C_2  and  C_11
REMARK    2  A    between atoms: C_3  and  C_4
REMARK    3  A    between atoms: C_6  and  C_14
REMARK    4  A    between atoms: C_15  and  C_16
REMARK    5  A    between atoms: C_15  and  C_22
REMARK                            x       y       z     vdW  Elec       q    Type
REMARK                         _______ _______ _______ _____ _____    ______ ____
ROOT
ATOM      1  C   UNL A   1     -28.016  -0.814  28.878  0.00  0.00    +0.010 A 
ATOM      2  C   UNL A   1     -28.469  -0.785  29.829  0.00  0.00    +0.080 A 
ATOM      3  C   UNL A   1     -27.136   0.236  28.535  0.00  0.00    +0.072 A 
ATOM      4  C   UNL A   1     -28.279   0.030  30.694  0.00  0.00    +0.007 A 
ATOM      5  C   UNL A   1     -27.458   1.155  30.662  0.00  0.00    +0.000 A 
ATOM      6  C   UNL A   1     -26.786   1.237  29.497  0.00  0.00    +0.004 A 
ENDROOT
BRANCH   3   7
ATOM      7  C   UNL A   1     -26.335   0.290  27.284  0.00  0.00    +0.419 C 
ATOM      8  F   UNL A   1     -25.329  -0.195  27.399  0.00  0.00    -0.166 F 
ATOM      9  F   UNL A   1     -27.052  -0.372  26.286  0.00  0.00    -0.166 F 
ATOM     10  F   UNL A   1     -25.775   1.401  26.834  0.00  0.00    -0.166 F 
ENDBRANCH   3   7
BRANCH   2  11
ATOM     11  C   UNL A   1     -29.424  -2.041  30.202  0.00  0.00    +0.388 C 
ATOM     12  O   UNL A   1     -30.022  -1.969  31.202  0.00  0.00    -0.241 OA
ATOM     13  O   UNL A   1     -29.314  -3.131  29.598  0.00  0.00    -0.241 OA
ENDBRANCH   2  11
BRANCH   5  14
ATOM     14  C   UNL A   1     -27.226   2.144  31.664  0.00  0.00    +0.004 C 
ATOM     15  C   UNL A   1     -26.371   2.937  31.605  0.00  0.00    +0.071 C 
BRANCH  15  16
ATOM     16  C   UNL A   1     -26.029   4.040  32.598  0.00  0.00    +0.004 A 
ATOM     17  C   UNL A   1     -24.960   4.991  32.435  0.00  0.00    -0.000 A 
ATOM     18  C   UNL A   1     -24.689   6.008  33.336  0.00  0.00    -0.000 A 
ATOM     19  C   UNL A   1     -25.432   6.080  34.519  0.00  0.00    -0.000 A 
ATOM     20  C   UNL A   1     -26.439   5.180  34.710  0.00  0.00    -0.000 A 
ATOM     21  C   UNL A   1     -26.718   4.167  33.817  0.00  0.00    -0.000 A 
ENDBRANCH  15  16
BRANCH  15  22
ATOM     22  C   UNL A   1     -24.964   2.435  31.292  0.00  0.00    +0.419 C 
ATOM     23  F   UNL A   1     -24.782   1.313  31.596  0.00  0.00    -0.166 F 
ATOM     24  F   UNL A   1     -24.776   2.636  29.906  0.00  0.00    -0.166 F 
ATOM     25  F   UNL A   1     -23.899   3.041  31.807  0.00  0.00    -0.166 F 
ENDBRANCH  15  22
ENDBRANCH   5  14
TORSDOF 5
