REMARK  Name = No_3278-gen_results/8p0m/2024-11-26-14-13-15/
REMARK  2 active torsions:
REMARK  status: ('A' for Active; 'I' for Inactive)
REMARK    1  A    between atoms: C_2  and  C_6
REMARK    2  A    between atoms: C_12  and  N_13
REMARK                            x       y       z     vdW  Elec       q    Type
REMARK                         _______ _______ _______ _____ _____    ______ ____
ROOT
ATOM      1  C   UNL A   1     -29.574  -1.627  30.332  0.00  0.00    -0.009 A 
ATOM      2  C   UNL A   1     -29.326  -2.908  30.454  0.00  0.00    -0.003 A 
ATOM      3  C   UNL A   1     -30.318  -3.927  30.298  0.00  0.00    -0.000 A 
ATOM      4  C   UNL A   1     -31.578  -3.534  30.044  0.00  0.00    +0.001 A 
ATOM      5  C   UNL A   1     -30.992  -1.516  30.141  0.00  0.00    +0.044 A 
ATOM      6  C   UNL A   1     -31.902  -2.300  30.073  0.00  0.00    +0.014 A 
ENDROOT
BRANCH   1   8
ATOM      7  C   UNL A   1     -28.016  -0.814  28.878  0.00  0.00    +0.005 C 
ATOM      8  C   UNL A   1     -28.469  -0.785  29.829  0.00  0.00    +0.028 C 
ATOM      9  C   UNL A   1     -27.087   0.290  28.638  0.00  0.00    +0.005 C 
ATOM     10  C   UNL A   1     -26.024   0.364  29.253  0.00  0.00    +0.026 C 
ATOM     11  C   UNL A   1     -26.246   0.433  30.799  0.00  0.00    -0.031 C 
ATOM     12  C   UNL A   1     -27.266   0.380  31.136  0.00  0.00    -0.030 C 
ATOM     13  C   UNL A   1     -28.347  -0.100  30.683  0.00  0.00    +0.030 C 
ENDBRANCH   1   8
BRANCH   5  14
ATOM     14  N   UNL A   1     -31.334  -0.054  30.071  0.00  0.00    -0.308 N 
ATOM     15  C   UNL A   1     -31.724   0.637  31.067  0.00  0.00    +0.091 C 
ATOM     16  C   UNL A   1     -32.074   1.984  30.846  0.00  0.00    +0.021 C 
ATOM     17  C   UNL A   1     -31.274   0.636  28.761  0.00  0.00    +0.091 C 
ATOM     18  C   UNL A   1     -31.541   1.617  28.634  0.00  0.00    +0.021 C 
ATOM     19  C   UNL A   1     -31.978   2.536  29.645  0.00  0.00    +0.004 C 
ENDBRANCH   5  14
TORSDOF 2
