MODEL 3278
MODEL 1
REMARK VINA RESULT:    -7.123      0.000      0.000
REMARK INTER + INTRA:          -9.200
REMARK INTER:                  -7.956
REMARK INTRA:                  -1.244
REMARK UNBOUND:                -1.244
REMARK  Name = No_3278-gen_results/8p0m/2024-11-26-14-13-15/
REMARK  2 active torsions:
REMARK  status: ('A' for Active; 'I' for Inactive)
REMARK    1  A    between atoms: C_2  and  C_6
REMARK    2  A    between atoms: C_12  and  N_13
REMARK                            x       y       z     vdW  Elec       q    Type
REMARK                         _______ _______ _______ _____ _____    ______ ____
ROOT
ATOM      1  C   UNL A   1     -23.319  -0.436  29.430  0.00  0.00    -0.009 A 
ATOM      2  C   UNL A   1     -22.722   0.644  28.987  0.00  0.00    -0.003 A 
ATOM      3  C   UNL A   1     -23.091   1.316  27.779  0.00  0.00    -0.000 A 
ATOM      4  C   UNL A   1     -24.085   0.781  27.049  0.00  0.00    +0.001 A 
ATOM      5  C   UNL A   1     -24.268  -0.805  28.419  0.00  0.00    +0.044 A 
ATOM      6  C   UNL A   1     -24.590  -0.351  27.352  0.00  0.00    +0.014 A 
ENDROOT
BRANCH   1   8
ATOM      7  C   UNL A   1     -22.936  -1.393  31.465  0.00  0.00    +0.005 C 
ATOM      8  C   UNL A   1     -23.360  -0.614  30.896  0.00  0.00    +0.028 C 
ATOM      9  C   UNL A   1     -22.989  -1.161  32.908  0.00  0.00    +0.005 C 
ATOM     10  C   UNL A   1     -24.062  -1.171  33.509  0.00  0.00    +0.026 C 
ATOM     11  C   UNL A   1     -25.055  -0.099  32.953  0.00  0.00    -0.031 C 
ATOM     12  C   UNL A   1     -24.707   0.484  32.119  0.00  0.00    -0.030 C 
ATOM     13  C   UNL A   1     -23.863   0.322  31.188  0.00  0.00    +0.030 C 
ENDBRANCH   1   8
BRANCH   5  14
ATOM     14  N   UNL A   1     -24.926  -2.085  28.851  0.00  0.00    -0.308 N 
ATOM     15  C   UNL A   1     -26.042  -2.145  29.462  0.00  0.00    +0.091 C 
ATOM     16  C   UNL A   1     -26.512  -3.410  29.866  0.00  0.00    +0.021 C 
ATOM     17  C   UNL A   1     -24.226  -3.369  28.611  0.00  0.00    +0.091 C 
ATOM     18  C   UNL A   1     -24.594  -4.273  28.924  0.00  0.00    +0.021 C 
ATOM     19  C   UNL A   1     -25.835  -4.518  29.600  0.00  0.00    +0.004 C 
ENDBRANCH   5  14
TORSDOF 2
ENDMDL
ENDMDL
