MODEL 3279
MODEL 1
REMARK VINA RESULT:    -7.065      0.000      0.000
REMARK INTER + INTRA:          -9.758
REMARK INTER:                  -8.718
REMARK INTRA:                  -1.040
REMARK UNBOUND:                -1.040
REMARK  Name = No_3279-gen_results/8p0m/2024-11-26-14-13-15/
REMARK  4 active torsions:
REMARK  status: ('A' for Active; 'I' for Inactive)
REMARK    1  A    between atoms: C_1  and  C_2
REMARK    2  A    between atoms: C_1  and  C_7
REMARK    3  A    between atoms: C_2  and  C_4
REMARK    4  A    between atoms: C_2  and  C_5
REMARK                            x       y       z     vdW  Elec       q    Type
REMARK                         _______ _______ _______ _____ _____    ______ ____
ROOT
ATOM      1  C   UNL A   1     -24.062  -1.056  29.278  0.00  0.00    +0.182 C 
ATOM      2  F   UNL A   1     -22.832  -1.150  29.415  0.00  0.00    -0.230 F 
ENDROOT
BRANCH   1   3
ATOM      3  C   UNL A   1     -24.347  -0.371  27.936  0.00  0.00    +0.011 A 
ATOM      4  C   UNL A   1     -23.498   0.670  27.593  0.00  0.00    -0.001 A 
ATOM      5  C   UNL A   1     -25.403  -0.675  27.057  0.00  0.00    -0.001 A 
ATOM      6  C   UNL A   1     -23.716   1.306  26.369  0.00  0.00    -0.000 A 
ATOM      7  C   UNL A   1     -25.446  -0.061  25.796  0.00  0.00    -0.000 A 
ATOM      8  C   UNL A   1     -24.652   0.941  25.493  0.00  0.00    -0.000 A 
ENDBRANCH   1   3
BRANCH   1   9
ATOM      9  C   UNL A   1     -24.542  -2.575  29.045  0.00  0.00    +0.011 A 
ATOM     10  C   UNL A   1     -23.762  -3.523  28.614  0.00  0.00    -0.001 A 
ATOM     11  C   UNL A   1     -24.182  -4.855  28.617  0.00  0.00    -0.000 A 
ATOM     12  C   UNL A   1     -25.402  -5.150  29.131  0.00  0.00    -0.000 A 
ATOM     13  C   UNL A   1     -25.765  -3.132  29.685  0.00  0.00    -0.001 A 
ATOM     14  C   UNL A   1     -26.221  -4.318  29.725  0.00  0.00    -0.000 A 
ENDBRANCH   1   9
BRANCH   1  15
ATOM     15  C   UNL A   1     -24.623  -0.601  30.248  0.00  0.00    +0.155 C 
BRANCH  15  16
ATOM     16  C   UNL A   1     -23.802   0.005  31.261  0.00  0.00    +0.368 C 
ATOM     17  O   UNL A   1     -23.351  -0.687  32.243  0.00  0.00    -0.245 OA
ATOM     18  O   UNL A   1     -23.536   1.249  31.121  0.00  0.00    -0.245 OA
ENDBRANCH  15  16
ENDBRANCH   1  15
TORSDOF 4
ENDMDL
ENDMDL
