REMARK  Name = No_3279-gen_results/8p0m/2024-11-26-14-13-15/
REMARK  4 active torsions:
REMARK  status: ('A' for Active; 'I' for Inactive)
REMARK    1  A    between atoms: C_1  and  C_2
REMARK    2  A    between atoms: C_1  and  C_7
REMARK    3  A    between atoms: C_2  and  C_4
REMARK    4  A    between atoms: C_2  and  C_5
REMARK                            x       y       z     vdW  Elec       q    Type
REMARK                         _______ _______ _______ _____ _____    ______ ____
ROOT
ATOM      1  C   UNL A   1     -27.064  -0.119  28.608  0.00  0.00    +0.182 C 
ATOM      2  F   UNL A   1     -27.079   0.985  29.174  0.00  0.00    -0.230 F 
ENDROOT
BRANCH   1   3
ATOM      3  C   UNL A   1     -26.780   0.106  27.118  0.00  0.00    +0.011 A 
ATOM      4  C   UNL A   1     -27.799   0.699  26.388  0.00  0.00    -0.001 A 
ATOM      5  C   UNL A   1     -25.611  -0.269  26.430  0.00  0.00    -0.001 A 
ATOM      6  C   UNL A   1     -27.569   0.937  25.031  0.00  0.00    -0.000 A 
ATOM      7  C   UNL A   1     -25.437   0.138  25.098  0.00  0.00    -0.000 A 
ATOM      8  C   UNL A   1     -26.419   0.677  24.411  0.00  0.00    -0.000 A 
ENDBRANCH   1   3
BRANCH   1   9
ATOM      9  C   UNL A   1     -25.719  -0.815  29.155  0.00  0.00    +0.011 A 
ATOM     10  C   UNL A   1     -25.590  -2.096  29.340  0.00  0.00    -0.001 A 
ATOM     11  C   UNL A   1     -24.344  -2.658  29.628  0.00  0.00    -0.000 A 
ATOM     12  C   UNL A   1     -23.257  -1.847  29.658  0.00  0.00    -0.000 A 
ATOM     13  C   UNL A   1     -24.392  -0.142  29.095  0.00  0.00    -0.001 A 
ATOM     14  C   UNL A   1     -23.224  -0.574  29.350  0.00  0.00    -0.000 A 
ENDBRANCH   1   9
BRANCH   1  15
ATOM     15  C   UNL A   1     -28.016  -0.814  28.878  0.00  0.00    +0.155 C 
BRANCH  15  16
ATOM     16  C   UNL A   1     -29.305  -0.178  28.924  0.00  0.00    +0.368 C 
ATOM     17  O   UNL A   1     -29.662   0.511  29.946  0.00  0.00    -0.245 OA
ATOM     18  O   UNL A   1     -30.056  -0.321  27.898  0.00  0.00    -0.245 OA
ENDBRANCH  15  16
ENDBRANCH   1  15
TORSDOF 4
