MODEL 327
MODEL 1
REMARK VINA RESULT:    -6.535      0.000      0.000
REMARK INTER + INTRA:          -7.244
REMARK INTER:                  -6.917
REMARK INTRA:                  -0.327
REMARK UNBOUND:                -0.327
REMARK  Name = No_327-gen_results/8p0m/2024-11-26-14-13-15/
REMARK  1 active torsions:
REMARK  status: ('A' for Active; 'I' for Inactive)
REMARK    1  A    between atoms: C_3  and  C_7
REMARK                            x       y       z     vdW  Elec       q    Type
REMARK                         _______ _______ _______ _____ _____    ______ ____
ROOT
ATOM      1  C   UNL A   1     -21.621  -0.020  28.915  0.00  0.00    +0.000 A 
ATOM      2  C   UNL A   1     -22.224  -1.017  29.240  0.00  0.00    +0.000 A 
ATOM      3  C   UNL A   1     -23.512  -1.317  28.799  0.00  0.00    +0.000 A 
ATOM      4  C   UNL A   1     -24.206  -0.369  27.950  0.00  0.00    +0.000 A 
ATOM      5  C   UNL A   1     -23.482   0.775  27.616  0.00  0.00    +0.000 A 
ATOM      6  C   UNL A   1     -22.269   0.985  28.088  0.00  0.00    +0.000 A 
ENDROOT
BRANCH   3   7
ATOM      7  C   UNL A   1     -24.313  -2.525  29.149  0.00  0.00    +0.000 A 
ATOM      8  C   UNL A   1     -25.558  -2.494  29.562  0.00  0.00    +0.000 A 
ATOM      9  C   UNL A   1     -26.276  -3.676  29.856  0.00  0.00    +0.000 A 
ATOM     10  C   UNL A   1     -25.775  -4.904  29.340  0.00  0.00    +0.000 A 
ATOM     11  C   UNL A   1     -23.859  -3.838  28.767  0.00  0.00    +0.000 A 
ATOM     12  C   UNL A   1     -24.561  -4.954  28.887  0.00  0.00    +0.000 A 
ENDBRANCH   3   7
TORSDOF 1
ENDMDL
ENDMDL
