REMARK  Name = No_328-gen_results/8p0m/2024-11-26-14-13-15/
REMARK  4 active torsions:
REMARK  status: ('A' for Active; 'I' for Inactive)
REMARK    1  A    between atoms: C_2  and  C_4
REMARK    2  A    between atoms: C_2  and  C_5
REMARK    3  A    between atoms: C_5  and  C_8
REMARK    4  A    between atoms: C_8  and  C_9
REMARK                            x       y       z     vdW  Elec       q    Type
REMARK                         _______ _______ _______ _____ _____    ______ ____
ROOT
ATOM      1  C   UNL A   1     -27.171   0.291  27.297  0.00  0.00    +0.067 C 
ATOM      2  C   UNL A   1     -28.167   0.612  26.488  0.00  0.00    +0.006 C 
ENDROOT
BRANCH   1   4
ATOM      3  F   UNL A   1     -28.073  -1.254  28.532  0.00  0.00    -0.203 F 
ATOM      4  C   UNL A   1     -27.359  -0.379  28.722  0.00  0.00    +0.281 C 
ATOM      5  F   UNL A   1     -26.318  -0.661  29.116  0.00  0.00    -0.203 F 
BRANCH   4   6
ATOM      6  C   UNL A   1     -27.930   0.689  29.602  0.00  0.00    +0.175 C 
ATOM      7  N   UNL A   1     -27.842   0.457  30.782  0.00  0.00    -0.125 NA
ENDBRANCH   4   6
ENDBRANCH   1   4
BRANCH   1   8
ATOM      8  C   UNL A   1     -25.787   0.507  26.820  0.00  0.00    +0.031 C 
BRANCH   8   9
ATOM      9  C   UNL A   1     -24.673   0.302  27.631  0.00  0.00    -0.030 C 
ATOM     10  C   UNL A   1     -24.495   0.203  28.701  0.00  0.00    -0.030 C 
ATOM     11  C   UNL A   1     -22.985   0.397  29.234  0.00  0.00    +0.030 C 
ENDBRANCH   8   9
ENDBRANCH   1   8
TORSDOF 4
