MODEL 3280
MODEL 1
REMARK VINA RESULT:    -5.208      0.000      0.000
REMARK INTER + INTRA:          -5.597
REMARK INTER:                  -5.513
REMARK INTRA:                  -0.085
REMARK UNBOUND:                -0.085
REMARK  Name = No_3280-gen_results/8p0m/2024-11-26-14-13-15/
REMARK  1 active torsions:
REMARK  status: ('A' for Active; 'I' for Inactive)
REMARK    1  A    between atoms: C_2  and  C_3
REMARK                            x       y       z     vdW  Elec       q    Type
REMARK                         _______ _______ _______ _____ _____    ______ ____
ROOT
ATOM      1  C   UNL A   1     -24.185  -2.641  29.179  0.00  0.00    +0.055 A 
ATOM      2  C   UNL A   1     -23.939  -4.034  28.870  0.00  0.00    +0.005 A 
ATOM      3  C   UNL A   1     -24.870  -5.065  28.906  0.00  0.00    +0.000 A 
ATOM      4  C   UNL A   1     -26.152  -4.832  29.567  0.00  0.00    +0.000 A 
ATOM      5  C   UNL A   1     -26.448  -3.536  29.954  0.00  0.00    +0.000 A 
ATOM      6  C   UNL A   1     -25.601  -2.520  29.774  0.00  0.00    +0.005 A 
ENDROOT
BRANCH   1   8
ATOM      7  O   UNL A   1     -22.340  -1.567  28.965  0.00  0.00    -0.268 OA
ATOM      8  C   UNL A   1     -23.537  -1.874  28.911  0.00  0.00    +0.265 C 
ATOM      9  N   UNL A   1     -24.305  -0.740  28.204  0.00  0.00    -0.200 NA
ATOM     10  C   UNL A   1     -23.523   0.472  27.697  0.00  0.00    +0.139 C 
ENDBRANCH   1   8
TORSDOF 1
ENDMDL
ENDMDL
