REMARK  Name = No_3280-gen_results/8p0m/2024-11-26-14-13-15/
REMARK  1 active torsions:
REMARK  status: ('A' for Active; 'I' for Inactive)
REMARK    1  A    between atoms: C_2  and  C_3
REMARK                            x       y       z     vdW  Elec       q    Type
REMARK                         _______ _______ _______ _____ _____    ______ ____
ROOT
ATOM      1  C   UNL A   1     -26.402  -0.062  28.622  0.00  0.00    +0.055 A 
ATOM      2  C   UNL A   1     -26.698   0.964  27.645  0.00  0.00    +0.005 A 
ATOM      3  C   UNL A   1     -25.783   1.813  27.035  0.00  0.00    +0.000 A 
ATOM      4  C   UNL A   1     -24.435   1.909  27.589  0.00  0.00    +0.000 A 
ATOM      5  C   UNL A   1     -24.081   1.004  28.575  0.00  0.00    +0.000 A 
ATOM      6  C   UNL A   1     -24.928   0.087  29.048  0.00  0.00    +0.005 A 
ENDROOT
BRANCH   1   8
ATOM      7  O   UNL A   1     -28.123  -1.335  28.487  0.00  0.00    -0.268 OA
ATOM      8  C   UNL A   1     -27.064  -0.824  28.869  0.00  0.00    +0.265 C 
ATOM      9  N   UNL A   1     -26.572  -1.584  30.117  0.00  0.00    -0.200 NA
ATOM     10  C   UNL A   1     -27.391  -2.771  30.624  0.00  0.00    +0.139 C 
ENDBRANCH   1   8
TORSDOF 1
