MODEL 3281
MODEL 1
REMARK VINA RESULT:    -7.256      0.000      0.000
REMARK INTER + INTRA:         -13.052
REMARK INTER:                 -11.073
REMARK INTRA:                  -1.978
REMARK UNBOUND:                -1.978
REMARK  Name = No_3281-gen_results/8p0m/2024-11-26-14-13-15/
REMARK  9 active torsions:
REMARK  status: ('A' for Active; 'I' for Inactive)
REMARK    1  A    between atoms: C_2  and  C_5
REMARK    2  A    between atoms: C_5  and  N_8
REMARK    3  A    between atoms: N_8  and  C_10
REMARK    4  A    between atoms: C_10  and  C_16
REMARK    5  A    between atoms: N_18  and  C_19
REMARK    6  A    between atoms: C_22  and  C_25
REMARK    7  A    between atoms: C_25  and  C_26
REMARK    8  A    between atoms: C_26  and  C_27
REMARK    9  A    between atoms: C_31  and  C_33
REMARK                            x       y       z     vdW  Elec       q    Type
REMARK                         _______ _______ _______ _____ _____    ______ ____
ROOT
ATOM      1  N   UNL A   1     -22.918 -20.716   7.537  0.00  0.00    -0.288 N 
ATOM      2  C   UNL A   1     -22.329 -19.908   6.670  0.00  0.00    +0.137 A 
ATOM      3  N   UNL A   1     -22.472 -18.587   6.770  0.00  0.00    -0.197 NA
ATOM      4  C   UNL A   1     -21.745 -17.750   5.925  0.00  0.00    +0.242 A 
ATOM      5  N   UNL A   1     -20.857 -18.321   5.172  0.00  0.00    -0.210 NA
ATOM      6  C   UNL A   1     -21.104 -20.252   6.056  0.00  0.00    +0.055 A 
ATOM      7  C   UNL A   1     -20.437 -19.452   5.233  0.00  0.00    +0.105 A 
ATOM      8  N   UNL A   1     -22.142 -16.425   5.821  0.00  0.00    -0.178 NA
ENDROOT
BRANCH   8   9
ATOM      9  C   UNL A   1     -23.332 -15.938   6.006  0.00  0.00    +0.074 A 
ATOM     10  C   UNL A   1     -24.482 -16.767   5.879  0.00  0.00    +0.016 A 
ATOM     11  C   UNL A   1     -25.768 -16.306   6.222  0.00  0.00    -0.003 A 
ATOM     12  C   UNL A   1     -25.960 -14.972   6.667  0.00  0.00    -0.022 A 
ATOM     13  C   UNL A   1     -24.810 -14.214   6.775  0.00  0.00    -0.003 A 
ATOM     14  C   UNL A   1     -23.556 -14.699   6.515  0.00  0.00    +0.016 A 
BRANCH  12  15
ATOM     15  C   UNL A   1     -27.284 -14.470   6.982  0.00  0.00    +0.031 C 
BRANCH  15  16
ATOM     16  C   UNL A   1     -28.166 -15.299   7.667  0.00  0.00    +0.031 C 
BRANCH  16  17
ATOM     17  C   UNL A   1     -28.787 -14.982   8.860  0.00  0.00    -0.022 A 
ATOM     18  C   UNL A   1     -29.247 -16.013   9.714  0.00  0.00    -0.004 A 
ATOM     19  C   UNL A   1     -29.898 -15.702  10.960  0.00  0.00    -0.001 A 
ATOM     20  C   UNL A   1     -30.018 -14.333  11.269  0.00  0.00    +0.001 A 
ATOM     21  C   UNL A   1     -29.613 -13.326  10.463  0.00  0.00    +0.043 A 
ATOM     22  C   UNL A   1     -28.992 -13.679   9.238  0.00  0.00    -0.003 A 
BRANCH  21  23
ATOM     23  C   UNL A   1     -29.825 -11.946  10.858  0.00  0.00    +0.341 C 
ATOM     24  F   UNL A   1     -30.270 -11.804  12.015  0.00  0.00    -0.193 F 
ATOM     25  F   UNL A   1     -28.602 -11.280  10.831  0.00  0.00    -0.193 F 
ENDBRANCH  21  23
ENDBRANCH  16  17
ENDBRANCH  15  16
ENDBRANCH  12  15
ENDBRANCH   8   9
BRANCH   1  26
ATOM     26  C   UNL A   1     -23.740 -20.328   8.394  0.00  0.00    +0.119 C 
BRANCH  26  28
ATOM     27  C   UNL A   1     -25.672 -20.855   7.231  0.00  0.00    -0.003 A 
ATOM     28  C   UNL A   1     -25.249 -20.192   7.933  0.00  0.00    -0.002 A 
ATOM     29  C   UNL A   1     -27.037 -20.602   6.866  0.00  0.00    -0.000 A 
ATOM     30  C   UNL A   1     -27.801 -19.696   7.482  0.00  0.00    -0.000 A 
ATOM     31  C   UNL A   1     -27.185 -18.913   8.404  0.00  0.00    -0.000 A 
ATOM     32  C   UNL A   1     -25.883 -19.139   8.669  0.00  0.00    -0.003 A 
ENDBRANCH  26  28
ENDBRANCH   1  26
BRANCH   1  33
ATOM     33  C   UNL A   1     -22.545 -22.121   7.315  0.00  0.00    +0.105 C 
BRANCH  33  34
ATOM     34  C   UNL A   1     -22.662 -22.861   8.557  0.00  0.00    +0.089 C 
ATOM     35 BR   UNL A   1     -22.402 -24.342   8.320  0.00  0.00    -0.079 Br
ENDBRANCH  33  34
ENDBRANCH   1  33
TORSDOF 9
ENDMDL
ENDMDL
