REMARK  Name = No_3281-gen_results/8p0m/2024-11-26-14-13-15/
REMARK  9 active torsions:
REMARK  status: ('A' for Active; 'I' for Inactive)
REMARK    1  A    between atoms: C_2  and  C_5
REMARK    2  A    between atoms: C_5  and  N_8
REMARK    3  A    between atoms: N_8  and  C_10
REMARK    4  A    between atoms: C_10  and  C_16
REMARK    5  A    between atoms: N_18  and  C_19
REMARK    6  A    between atoms: C_22  and  C_25
REMARK    7  A    between atoms: C_25  and  C_26
REMARK    8  A    between atoms: C_26  and  C_27
REMARK    9  A    between atoms: C_31  and  C_33
REMARK                            x       y       z     vdW  Elec       q    Type
REMARK                         _______ _______ _______ _____ _____    ______ ____
ROOT
ATOM      1  N   UNL A   1     -28.127  -3.119  30.376  0.00  0.00    -0.288 N 
ATOM      2  C   UNL A   1     -27.003  -3.483  29.781  0.00  0.00    +0.137 A 
ATOM      3  N   UNL A   1     -25.937  -2.684  29.799  0.00  0.00    -0.197 NA
ATOM      4  C   UNL A   1     -24.727  -3.138  29.275  0.00  0.00    +0.242 A 
ATOM      5  N   UNL A   1     -24.684  -4.384  28.920  0.00  0.00    -0.210 NA
ATOM      6  C   UNL A   1     -26.630  -4.842  29.677  0.00  0.00    +0.055 A 
ATOM      7  C   UNL A   1     -25.485  -5.259  29.152  0.00  0.00    +0.105 A 
ATOM      8  N   UNL A   1     -23.740  -2.201  29.009  0.00  0.00    -0.178 NA
ENDROOT
BRANCH   8   9
ATOM      9  C   UNL A   1     -23.898  -0.943  28.725  0.00  0.00    +0.074 A 
ATOM     10  C   UNL A   1     -22.836  -0.016  28.923  0.00  0.00    +0.016 A 
ATOM     11  C   UNL A   1     -22.927   1.318  28.482  0.00  0.00    -0.003 A 
ATOM     12  C   UNL A   1     -24.111   1.792  27.860  0.00  0.00    -0.022 A 
ATOM     13  C   UNL A   1     -25.107   0.850  27.690  0.00  0.00    -0.003 A 
ATOM     14  C   UNL A   1     -24.976  -0.464  28.051  0.00  0.00    +0.016 A 
BRANCH  12  15
ATOM     15  C   UNL A   1     -24.236   3.176  27.440  0.00  0.00    +0.031 C 
BRANCH  15  16
ATOM     16  C   UNL A   1     -25.049   4.026  28.182  0.00  0.00    +0.031 C 
BRANCH  16  17
ATOM     17  C   UNL A   1     -25.621   3.712  29.400  0.00  0.00    -0.022 A 
ATOM     18  C   UNL A   1     -26.430   4.662  30.068  0.00  0.00    -0.004 A 
ATOM     19  C   UNL A   1     -27.032   4.353  31.339  0.00  0.00    -0.001 A 
ATOM     20  C   UNL A   1     -26.783   3.062  31.843  0.00  0.00    +0.001 A 
ATOM     21  C   UNL A   1     -25.994   2.143  31.242  0.00  0.00    +0.043 A 
ATOM     22  C   UNL A   1     -25.408   2.496  30.000  0.00  0.00    -0.003 A 
BRANCH  21  23
ATOM     23  C   UNL A   1     -25.767   0.854  31.870  0.00  0.00    +0.341 C 
ATOM     24  F   UNL A   1     -25.253   0.000  31.120  0.00  0.00    -0.193 F 
ATOM     25  F   UNL A   1     -24.878   1.022  32.929  0.00  0.00    -0.193 F 
ENDBRANCH  21  23
ENDBRANCH  16  17
ENDBRANCH  15  16
ENDBRANCH  12  15
ENDBRANCH   8   9
BRANCH   1  26
ATOM     26  C   UNL A   1     -28.317  -1.981  30.856  0.00  0.00    +0.119 C 
BRANCH  26  28
ATOM     27  C   UNL A   1     -28.016  -0.814  28.878  0.00  0.00    -0.003 A 
ATOM     28  C   UNL A   1     -28.469  -0.785  29.829  0.00  0.00    -0.002 A 
ATOM     29  C   UNL A   1     -28.196   0.348  28.055  0.00  0.00    -0.000 A 
ATOM     30  C   UNL A   1     -29.019   1.350  28.378  0.00  0.00    -0.000 A 
ATOM     31  C   UNL A   1     -29.595   1.286  29.605  0.00  0.00    -0.000 A 
ATOM     32  C   UNL A   1     -29.346   0.209  30.375  0.00  0.00    -0.003 A 
ENDBRANCH  26  28
ENDBRANCH   1  26
BRANCH   1  33
ATOM     33  C   UNL A   1     -29.139  -4.185  30.333  0.00  0.00    +0.105 C 
BRANCH  33  34
ATOM     34  C   UNL A   1     -29.616  -4.462  31.674  0.00  0.00    +0.089 C 
ATOM     35 BR   UNL A   1     -31.024  -5.038  31.629  0.00  0.00    -0.079 Br
ENDBRANCH  33  34
ENDBRANCH   1  33
TORSDOF 9
