MODEL 3282
MODEL 1
REMARK VINA RESULT:    -5.220      0.000      0.000
REMARK INTER + INTRA:          -5.220
REMARK INTER:                  -5.220
REMARK INTRA:                   0.000
REMARK UNBOUND:                 0.000
REMARK  Name = No_3282-gen_results/8p0m/2024-11-26-14-13-15/
REMARK  0 active torsions:
REMARK  status: ('A' for Active; 'I' for Inactive)
REMARK                            x       y       z     vdW  Elec       q    Type
REMARK                         _______ _______ _______ _____ _____    ______ ____
ROOT
ATOM      1  C   UNL A   1      -9.509 -10.028  18.021  0.00  0.00    -0.026 C 
ATOM      2  C   UNL A   1      -9.958 -10.585  17.248  0.00  0.00    +0.097 C 
ATOM      3  C   UNL A   1     -10.379  -9.593  19.077  0.00  0.00    +0.023 C 
ATOM      4  C   UNL A   1      -9.833  -8.988  20.309  0.00  0.00    +0.004 C 
ATOM      5  C   UNL A   1      -8.551  -9.367  20.748  0.00  0.00    +0.001 C 
ATOM      6  C   UNL A   1      -7.749 -10.163  19.904  0.00  0.00    +0.004 C 
ATOM      7  C   UNL A   1      -8.206 -10.575  18.708  0.00  0.00    +0.023 C 
ATOM      8  N   UNL A   1     -11.056 -10.452  16.695  0.00  0.00    -0.127 NA
ENDROOT
TORSDOF 0
ENDMDL
ENDMDL
