MODEL 3283
MODEL 1
REMARK VINA RESULT:    -6.682      0.000      0.000
REMARK INTER + INTRA:          -8.246
REMARK INTER:                  -7.854
REMARK INTRA:                  -0.392
REMARK UNBOUND:                -0.392
REMARK  Name = No_3283-gen_results/8p0m/2024-11-26-14-13-15/
REMARK  3 active torsions:
REMARK  status: ('A' for Active; 'I' for Inactive)
REMARK    1  A    between atoms: C_4  and  O_7
REMARK    2  A    between atoms: O_7  and  C_8
REMARK    3  A    between atoms: C_8  and  C_9
REMARK                            x       y       z     vdW  Elec       q    Type
REMARK                         _______ _______ _______ _____ _____    ______ ____
ROOT
ATOM      1  O   UNL A   1     -24.104  -0.449  29.670  0.00  0.00    -0.471 OA
ENDROOT
BRANCH   1   5
ATOM      2  C   UNL A   1     -22.295   1.876  27.370  0.00  0.00    +0.003 A 
ATOM      3  C   UNL A   1     -21.356   1.409  27.468  0.00  0.00    +0.000 A 
ATOM      4  C   UNL A   1     -23.427   1.228  28.136  0.00  0.00    +0.037 A 
ATOM      5  C   UNL A   1     -23.144   0.166  29.020  0.00  0.00    +0.139 A 
ATOM      6  C   UNL A   1     -20.797   0.341  28.327  0.00  0.00    +0.003 A 
ATOM      7  C   UNL A   1     -21.807  -0.275  29.052  0.00  0.00    +0.037 A 
ENDBRANCH   1   5
BRANCH   1   8
ATOM      8  C   UNL A   1     -24.903  -1.359  29.031  0.00  0.00    +0.232 C 
BRANCH   8   9
ATOM      9  C   UNL A   1     -24.803  -2.631  29.271  0.00  0.00    +0.021 A 
ATOM     10  C   UNL A   1     -23.986  -3.268  28.575  0.00  0.00    -0.001 A 
ATOM     11  C   UNL A   1     -23.997  -4.670  28.560  0.00  0.00    -0.000 A 
ATOM     12  C   UNL A   1     -25.128  -5.334  29.106  0.00  0.00    -0.000 A 
ATOM     13  C   UNL A   1     -26.121  -4.600  29.642  0.00  0.00    -0.000 A 
ATOM     14  C   UNL A   1     -26.028  -3.237  29.684  0.00  0.00    -0.001 A 
ENDBRANCH   8   9
ENDBRANCH   1   8
TORSDOF 3
ENDMDL
ENDMDL
