REMARK  Name = No_3283-gen_results/8p0m/2024-11-26-14-13-15/
REMARK  3 active torsions:
REMARK  status: ('A' for Active; 'I' for Inactive)
REMARK    1  A    between atoms: C_4  and  O_7
REMARK    2  A    between atoms: O_7  and  C_8
REMARK    3  A    between atoms: C_8  and  C_9
REMARK                            x       y       z     vdW  Elec       q    Type
REMARK                         _______ _______ _______ _____ _____    ______ ____
ROOT
ATOM      1  O   UNL A   1     -24.500  -0.782  30.145  0.00  0.00    -0.471 OA
ENDROOT
BRANCH   1   5
ATOM      2  C   UNL A   1     -28.016  -0.814  28.878  0.00  0.00    +0.003 A 
ATOM      3  C   UNL A   1     -28.469  -0.785  29.829  0.00  0.00    +0.000 A 
ATOM      4  C   UNL A   1     -26.504  -0.778  28.877  0.00  0.00    +0.037 A 
ATOM      5  C   UNL A   1     -25.810  -0.853  30.103  0.00  0.00    +0.139 A 
ATOM      6  C   UNL A   1     -27.991  -0.892  31.226  0.00  0.00    +0.003 A 
ATOM      7  C   UNL A   1     -26.604  -0.868  31.265  0.00  0.00    +0.037 A 
ENDBRANCH   1   5
BRANCH   1   8
ATOM      8  C   UNL A   1     -23.846   0.295  29.610  0.00  0.00    +0.232 C 
BRANCH   8   9
ATOM      9  C   UNL A   1     -23.711   0.434  28.326  0.00  0.00    +0.021 A 
ATOM     10  C   UNL A   1     -23.218   1.510  27.930  0.00  0.00    -0.001 A 
ATOM     11  C   UNL A   1     -23.281   1.873  26.577  0.00  0.00    -0.000 A 
ATOM     12  C   UNL A   1     -24.165   1.149  25.733  0.00  0.00    -0.000 A 
ATOM     13  C   UNL A   1     -24.876   0.130  26.252  0.00  0.00    -0.000 A 
ATOM     14  C   UNL A   1     -24.728  -0.218  27.566  0.00  0.00    -0.001 A 
ENDBRANCH   8   9
ENDBRANCH   1   8
TORSDOF 3
