MODEL 3284
MODEL 1
REMARK VINA RESULT:    -7.399      0.000      0.000
REMARK INTER + INTRA:         -11.913
REMARK INTER:                  -9.995
REMARK INTRA:                  -1.918
REMARK UNBOUND:                -1.918
REMARK  Name = No_3284-gen_results/8p0m/2024-11-26-14-13-15/
REMARK  6 active torsions:
REMARK  status: ('A' for Active; 'I' for Inactive)
REMARK    1  A    between atoms: C_1  and  C_6
REMARK    2  A    between atoms: C_3  and  C_13
REMARK    3  A    between atoms: C_5  and  C_10
REMARK    4  A    between atoms: C_14  and  C_19
REMARK    5  A    between atoms: N_20  and  C_21
REMARK    6  A    between atoms: C_21  and  C_23
REMARK                            x       y       z     vdW  Elec       q    Type
REMARK                         _______ _______ _______ _____ _____    ______ ____
ROOT
ATOM      1  C   UNL A   1     -24.635  -0.178  32.409  0.00  0.00    +0.004 A 
ATOM      2  C   UNL A   1     -25.261   1.082  32.176  0.00  0.00    +0.055 A 
ATOM      3  C   UNL A   1     -25.960   1.637  33.298  0.00  0.00    +0.005 A 
ATOM      4  C   UNL A   1     -25.964   0.901  34.531  0.00  0.00    +0.000 A 
ATOM      5  C   UNL A   1     -25.355  -0.322  34.611  0.00  0.00    +0.000 A 
ATOM      6  C   UNL A   1     -24.683  -0.874  33.587  0.00  0.00    +0.000 A 
ENDROOT
BRANCH   1   9
ATOM      7  C   UNL A   1     -22.602  -0.739  29.400  0.00  0.00    +0.080 A 
ATOM      8  C   UNL A   1     -23.008  -0.310  30.455  0.00  0.00    +0.007 A 
ATOM      9  C   UNL A   1     -24.048  -0.853  31.189  0.00  0.00    +0.001 A 
ATOM     10  C   UNL A   1     -24.666  -2.028  30.668  0.00  0.00    +0.007 A 
ATOM     11  C   UNL A   1     -24.092  -2.563  29.571  0.00  0.00    +0.080 A 
ATOM     12  C   UNL A   1     -23.078  -1.954  28.977  0.00  0.00    +0.013 A 
BRANCH   7  13
ATOM     13  C   UNL A   1     -21.469  -0.127  28.761  0.00  0.00    +0.388 C 
ATOM     14  O   UNL A   1     -20.430  -0.753  28.560  0.00  0.00    -0.241 OA
ATOM     15  O   UNL A   1     -21.540   1.014  28.171  0.00  0.00    -0.241 OA
ENDBRANCH   7  13
BRANCH  11  16
ATOM     16  C   UNL A   1     -24.734  -3.793  29.066  0.00  0.00    +0.388 C 
ATOM     17  O   UNL A   1     -24.136  -4.584  28.569  0.00  0.00    -0.241 OA
ATOM     18  O   UNL A   1     -25.931  -4.151  29.456  0.00  0.00    -0.241 OA
ENDBRANCH  11  16
ENDBRANCH   1   9
BRANCH   2  19
ATOM     19  C   UNL A   1     -25.254   1.902  30.994  0.00  0.00    +0.265 C 
ATOM     20  N   UNL A   1     -25.885   1.591  30.033  0.00  0.00    -0.197 NA
ATOM     21  O   UNL A   1     -24.368   2.874  31.018  0.00  0.00    -0.268 OA
BRANCH  20  22
ATOM     22  C   UNL A   1     -25.946   2.430  28.882  0.00  0.00    +0.142 C 
BRANCH  22  23
ATOM     23  C   UNL A   1     -25.309   2.189  27.863  0.00  0.00    -0.001 A 
ATOM     24  C   UNL A   1     -24.545   3.166  27.178  0.00  0.00    -0.003 A 
ATOM     25  C   UNL A   1     -23.821   2.933  25.988  0.00  0.00    -0.000 A 
ATOM     26  C   UNL A   1     -23.816   1.682  25.503  0.00  0.00    -0.000 A 
ATOM     27  C   UNL A   1     -24.468   0.643  26.080  0.00  0.00    -0.000 A 
ATOM     28  C   UNL A   1     -25.207   0.841  27.243  0.00  0.00    -0.003 A 
ENDBRANCH  22  23
ENDBRANCH  20  22
ENDBRANCH   2  19
TORSDOF 6
ENDMDL
ENDMDL
