REMARK  Name = No_3284-gen_results/8p0m/2024-11-26-14-13-15/
REMARK  6 active torsions:
REMARK  status: ('A' for Active; 'I' for Inactive)
REMARK    1  A    between atoms: C_1  and  C_6
REMARK    2  A    between atoms: C_3  and  C_13
REMARK    3  A    between atoms: C_5  and  C_10
REMARK    4  A    between atoms: C_14  and  C_19
REMARK    5  A    between atoms: N_20  and  C_21
REMARK    6  A    between atoms: C_21  and  C_23
REMARK                            x       y       z     vdW  Elec       q    Type
REMARK                         _______ _______ _______ _____ _____    ______ ____
ROOT
ATOM      1  C   UNL A   1     -25.695   1.424  27.116  0.00  0.00    +0.004 A 
ATOM      2  C   UNL A   1     -25.268   2.458  28.000  0.00  0.00    +0.055 A 
ATOM      3  C   UNL A   1     -23.976   3.011  27.720  0.00  0.00    +0.005 A 
ATOM      4  C   UNL A   1     -23.243   2.498  26.597  0.00  0.00    +0.000 A 
ATOM      5  C   UNL A   1     -23.751   1.471  25.848  0.00  0.00    +0.000 A 
ATOM      6  C   UNL A   1     -24.960   0.929  26.072  0.00  0.00    +0.000 A 
ENDROOT
BRANCH   1   9
ATOM      7  C   UNL A   1     -28.016  -0.814  28.878  0.00  0.00    +0.080 A 
ATOM      8  C   UNL A   1     -27.064  -0.119  28.608  0.00  0.00    +0.007 A 
ATOM      9  C   UNL A   1     -26.972   0.714  27.506  0.00  0.00    +0.001 A 
ATOM     10  C   UNL A   1     -28.105   0.774  26.642  0.00  0.00    +0.007 A 
ATOM     11  C   UNL A   1     -29.201   0.104  27.053  0.00  0.00    +0.080 A 
ATOM     12  C   UNL A   1     -29.164  -0.639  28.148  0.00  0.00    +0.013 A 
BRANCH   7  13
ATOM     13  C   UNL A   1     -28.022  -1.590  30.088  0.00  0.00    +0.388 C 
ATOM     14  O   UNL A   1     -27.115  -2.378  30.350  0.00  0.00    -0.241 OA
ATOM     15  O   UNL A   1     -28.836  -1.356  31.056  0.00  0.00    -0.241 OA
ENDBRANCH   7  13
BRANCH  11  16
ATOM     16  C   UNL A   1     -30.368   0.202  26.154  0.00  0.00    +0.388 C 
ATOM     17  O   UNL A   1     -31.266  -0.428  26.317  0.00  0.00    -0.241 OA
ATOM     18  O   UNL A   1     -30.534   1.226  25.356  0.00  0.00    -0.241 OA
ENDBRANCH  11  16
ENDBRANCH   1   9
BRANCH   2  19
ATOM     19  C   UNL A   1     -25.965   3.061  29.105  0.00  0.00    +0.265 C 
ATOM     20  N   UNL A   1     -27.043   2.675  29.430  0.00  0.00    -0.197 NA
ATOM     21  O   UNL A   1     -25.398   4.155  29.566  0.00  0.00    -0.268 OA
BRANCH  20  22
ATOM     22  C   UNL A   1     -27.713   3.212  30.567  0.00  0.00    +0.142 C 
BRANCH  22  23
ATOM     23  C   UNL A   1     -28.658   3.986  30.464  0.00  0.00    -0.001 A 
ATOM     24  C   UNL A   1     -29.311   4.254  29.236  0.00  0.00    -0.003 A 
ATOM     25  C   UNL A   1     -30.383   5.159  29.074  0.00  0.00    -0.000 A 
ATOM     26  C   UNL A   1     -30.849   5.768  30.175  0.00  0.00    -0.000 A 
ATOM     27  C   UNL A   1     -30.346   5.572  31.419  0.00  0.00    -0.000 A 
ATOM     28  C   UNL A   1     -29.277   4.702  31.612  0.00  0.00    -0.003 A 
ENDBRANCH  22  23
ENDBRANCH  20  22
ENDBRANCH   2  19
TORSDOF 6
