MODEL 3285
MODEL 1
REMARK VINA RESULT:    -5.455      0.000      0.000
REMARK INTER + INTRA:          -5.785
REMARK INTER:                  -6.092
REMARK INTRA:                   0.308
REMARK UNBOUND:                 0.308
REMARK  Name = No_3285-gen_results/8p0m/2024-11-26-14-13-15/
REMARK  2 active torsions:
REMARK  status: ('A' for Active; 'I' for Inactive)
REMARK    1  A    between atoms: C_1  and  C_8
REMARK    2  A    between atoms: C_5  and  C_11
REMARK                            x       y       z     vdW  Elec       q    Type
REMARK                         _______ _______ _______ _____ _____    ______ ____
ROOT
ATOM      1  C   UNL A   1     -25.341  -3.558  29.157  0.00  0.00    +0.078 C 
ATOM      2  C   UNL A   1     -24.737  -2.559  28.841  0.00  0.00    -0.038 C 
ATOM      3  C   UNL A   1     -25.321  -1.485  28.170  0.00  0.00    +0.023 C 
ATOM      4  C   UNL A   1     -24.660  -0.238  27.737  0.00  0.00    +0.010 C 
ATOM      5  C   UNL A   1     -23.337  -0.032  28.234  0.00  0.00    +0.044 C 
ATOM      6  C   UNL A   1     -22.728  -1.067  28.951  0.00  0.00    +0.010 C 
ATOM      7  C   UNL A   1     -23.354  -2.227  29.252  0.00  0.00    +0.023 C 
ENDROOT
BRANCH   1   8
ATOM      8  C   UNL A   1     -24.629  -4.828  28.824  0.00  0.00    +0.387 C 
ATOM      9  O   UNL A   1     -23.839  -4.841  28.152  0.00  0.00    -0.241 OA
ATOM     10  O   UNL A   1     -24.984  -5.870  29.614  0.00  0.00    -0.241 OA
ENDBRANCH   1   8
BRANCH   5  11
ATOM     11  C   UNL A   1     -22.674   1.203  27.831  0.00  0.00    +0.095 C 
ATOM     12  N   UNL A   1     -22.722   2.146  28.211  0.00  0.00    -0.151 NA
ENDBRANCH   5  11
TORSDOF 2
ENDMDL
ENDMDL
