REMARK  Name = No_3285-gen_results/8p0m/2024-11-26-14-13-15/
REMARK  2 active torsions:
REMARK  status: ('A' for Active; 'I' for Inactive)
REMARK    1  A    between atoms: C_1  and  C_8
REMARK    2  A    between atoms: C_5  and  C_11
REMARK                            x       y       z     vdW  Elec       q    Type
REMARK                         _______ _______ _______ _____ _____    ______ ____
ROOT
ATOM      1  C   UNL A   1     -28.016  -0.814  28.878  0.00  0.00    +0.078 C 
ATOM      2  C   UNL A   1     -27.064  -0.119  28.608  0.00  0.00    -0.038 C 
ATOM      3  C   UNL A   1     -25.765  -0.390  29.036  0.00  0.00    +0.023 C 
ATOM      4  C   UNL A   1     -24.552   0.406  28.765  0.00  0.00    +0.010 C 
ATOM      5  C   UNL A   1     -24.696   1.448  27.799  0.00  0.00    +0.044 C 
ATOM      6  C   UNL A   1     -25.976   1.725  27.308  0.00  0.00    +0.010 C 
ATOM      7  C   UNL A   1     -27.072   1.013  27.654  0.00  0.00    +0.023 C 
ENDROOT
BRANCH   1   8
ATOM      8  C   UNL A   1     -29.210  -0.050  29.349  0.00  0.00    +0.387 C 
ATOM      9  O   UNL A   1     -29.636   0.695  28.766  0.00  0.00    -0.241 OA
ATOM     10  O   UNL A   1     -29.766  -0.557  30.476  0.00  0.00    -0.241 OA
ENDBRANCH   1   8
BRANCH   5  11
ATOM     11  C   UNL A   1     -23.504   2.234  27.504  0.00  0.00    +0.095 C 
ATOM     12  N   UNL A   1     -22.548   1.953  27.298  0.00  0.00    -0.151 NA
ENDBRANCH   5  11
TORSDOF 2
