MODEL 3286
MODEL 1
REMARK VINA RESULT:    -5.412      0.000      0.000
REMARK INTER + INTRA:          -6.164
REMARK INTER:                  -6.045
REMARK INTRA:                  -0.120
REMARK UNBOUND:                -0.120
REMARK  Name = No_3286-gen_results/8p0m/2024-11-26-14-13-15/
REMARK  2 active torsions:
REMARK  status: ('A' for Active; 'I' for Inactive)
REMARK    1  A    between atoms: C_3  and  C_11
REMARK    2  A    between atoms: C_7  and  C_8
REMARK                            x       y       z     vdW  Elec       q    Type
REMARK                         _______ _______ _______ _____ _____    ______ ____
ROOT
ATOM      1  O   UNL A   1     -30.567  -9.773  29.873  0.00  0.00    -0.273 OA
ATOM      2  C   UNL A   1     -29.821 -10.338  30.546  0.00  0.00    +0.245 C 
ATOM      3  C   UNL A   1     -29.099 -11.147  30.513  0.00  0.00    +0.101 C 
ATOM      4  N   UNL A   1     -29.747  -9.656  31.935  0.00  0.00    -0.205 NA
ATOM      5  C   UNL A   1     -28.165 -11.823  31.424  0.00  0.00    +0.027 C 
ATOM      6  C   UNL A   1     -28.959 -10.141  32.943  0.00  0.00    +0.126 C 
ATOM      7  C   UNL A   1     -28.130 -11.229  32.709  0.00  0.00    +0.126 C 
ENDROOT
BRANCH   7   8
ATOM      8  C   UNL A   1     -27.290 -11.726  33.762  0.00  0.00    +0.366 C 
ATOM      9  O   UNL A   1     -26.717 -12.806  33.711  0.00  0.00    -0.246 OA
ATOM     10  O   UNL A   1     -26.798 -10.856  34.655  0.00  0.00    -0.246 OA
ENDBRANCH   7   8
BRANCH   3  11
ATOM     11  C   UNL A   1     -29.013 -11.911  29.086  0.00  0.00    -0.017 C 
ATOM     12  C   UNL A   1     -29.668 -12.992  28.959  0.00  0.00    -0.004 C 
ENDBRANCH   3  11
TORSDOF 2
ENDMDL
ENDMDL
