REMARK  Name = No_3287-gen_results/8p0m/2024-11-26-14-13-15/
REMARK  6 active torsions:
REMARK  status: ('A' for Active; 'I' for Inactive)
REMARK    1  A    between atoms: C_2  and  C_3
REMARK    2  A    between atoms: C_3  and  C_5
REMARK    3  A    between atoms: C_5  and  C_6
REMARK    4  A    between atoms: C_14  and  C_16
REMARK    5  A    between atoms: C_16  and  N_17
REMARK    6  A    between atoms: N_17  and  C_18
REMARK                            x       y       z     vdW  Elec       q    Type
REMARK                         _______ _______ _______ _____ _____    ______ ____
ROOT
ATOM      1  O   UNL A   1     -28.123  -1.335  28.487  0.00  0.00    -0.275 OA
ATOM      2  C   UNL A   1     -28.521  -0.436  29.078  0.00  0.00    +0.232 C 
ATOM      3  N   UNL A   1     -28.787  -0.887  30.487  0.00  0.00    -0.227 N 
ATOM      4  C   UNL A   1     -28.748  -2.304  30.921  0.00  0.00    +0.123 C 
ATOM      5  C   UNL A   1     -29.325   0.004  31.519  0.00  0.00    +0.253 C 
ATOM      6  O   UNL A   1     -28.753   0.337  32.306  0.00  0.00    -0.273 OA
ENDROOT
BRANCH   2   7
ATOM      7  C   UNL A   1     -28.589   0.592  28.946  0.00  0.00    +0.090 C 
BRANCH   7   8
ATOM      8  C   UNL A   1     -27.784   1.282  27.987  0.00  0.00    +0.036 C 
BRANCH   8   9
ATOM      9  C   UNL A   1     -27.294   2.546  27.941  0.00  0.00    -0.022 A 
ATOM     10  C   UNL A   1     -27.340   3.283  29.134  0.00  0.00    -0.003 A 
ATOM     11  C   UNL A   1     -26.823   4.587  29.187  0.00  0.00    +0.011 A 
ATOM     12  C   UNL A   1     -26.190   5.121  28.023  0.00  0.00    +0.058 A 
ATOM     13  C   UNL A   1     -26.049   4.343  26.851  0.00  0.00    +0.011 A 
ATOM     14  C   UNL A   1     -26.584   3.071  26.849  0.00  0.00    -0.003 A 
ATOM     15 CL   UNL A   1     -25.438   6.695  28.053  0.00  0.00    -0.082 Cl
ENDBRANCH   8   9
ENDBRANCH   7   8
ENDBRANCH   2   7
BRANCH   5  16
ATOM     16  C   UNL A   1     -30.719   0.389  31.166  0.00  0.00    +0.197 C 
BRANCH  16  17
ATOM     17  N   UNL A   1     -30.939   1.623  31.474  0.00  0.00    -0.227 NA
BRANCH  17  18
ATOM     18  C   UNL A   1     -31.654   2.503  30.705  0.00  0.00    +0.081 C 
ATOM     19  C   UNL A   1     -31.689   3.921  31.103  0.00  0.00    +0.019 C 
ENDBRANCH  17  18
ENDBRANCH  16  17
ENDBRANCH   5  16
TORSDOF 6
