MODEL 3287
MODEL 1
REMARK VINA RESULT:    -5.486      0.000      0.000
REMARK INTER + INTRA:          -8.095
REMARK INTER:                  -7.410
REMARK INTRA:                  -0.685
REMARK UNBOUND:                -0.685
REMARK  Name = No_3287-gen_results/8p0m/2024-11-26-14-13-15/
REMARK  6 active torsions:
REMARK  status: ('A' for Active; 'I' for Inactive)
REMARK    1  A    between atoms: C_2  and  C_3
REMARK    2  A    between atoms: C_3  and  C_5
REMARK    3  A    between atoms: C_5  and  C_6
REMARK    4  A    between atoms: C_14  and  C_16
REMARK    5  A    between atoms: C_16  and  N_17
REMARK    6  A    between atoms: N_17  and  C_18
REMARK                            x       y       z     vdW  Elec       q    Type
REMARK                         _______ _______ _______ _____ _____    ______ ____
ROOT
ATOM      1  O   UNL A   1      -7.350   1.683  13.545  0.00  0.00    -0.275 OA
ATOM      2  C   UNL A   1      -7.858   1.134  12.674  0.00  0.00    +0.232 C 
ATOM      3  N   UNL A   1      -6.848   0.209  12.056  0.00  0.00    -0.227 N 
ATOM      4  C   UNL A   1      -5.405   0.215  12.397  0.00  0.00    +0.123 C 
ATOM      5  C   UNL A   1      -7.150  -0.638  10.898  0.00  0.00    +0.253 C 
ATOM      6  O   UNL A   1      -7.239  -1.660  10.977  0.00  0.00    -0.273 OA
ENDROOT
BRANCH   2   7
ATOM      7  C   UNL A   1      -8.825   0.997  12.322  0.00  0.00    +0.090 C 
BRANCH   7   8
ATOM      8  C   UNL A   1      -9.776   2.063  12.299  0.00  0.00    +0.036 C 
BRANCH   8   9
ATOM      9  C   UNL A   1     -10.041   3.037  11.393  0.00  0.00    -0.022 A 
ATOM     10  C   UNL A   1     -10.233   2.626  10.065  0.00  0.00    -0.003 A 
ATOM     11  C   UNL A   1     -10.545   3.562   9.067  0.00  0.00    +0.011 A 
ATOM     12  C   UNL A   1     -10.729   4.928   9.442  0.00  0.00    +0.058 A 
ATOM     13  C   UNL A   1     -10.639   5.329  10.794  0.00  0.00    +0.011 A 
ATOM     14  C   UNL A   1     -10.320   4.370  11.734  0.00  0.00    -0.003 A 
ATOM     15 CL   UNL A   1     -11.218   6.122   8.267  0.00  0.00    -0.082 Cl
ENDBRANCH   8   9
ENDBRANCH   7   8
ENDBRANCH   2   7
BRANCH   5  16
ATOM     16  C   UNL A   1      -7.393   0.218   9.705  0.00  0.00    +0.197 C 
BRANCH  16  17
ATOM     17  N   UNL A   1      -6.898  -0.330   8.647  0.00  0.00    -0.227 NA
BRANCH  17  18
ATOM     18  C   UNL A   1      -5.574  -0.295   8.297  0.00  0.00    +0.081 C 
ATOM     19  C   UNL A   1      -5.023  -1.410   7.507  0.00  0.00    +0.019 C 
ENDBRANCH  17  18
ENDBRANCH  16  17
ENDBRANCH   5  16
TORSDOF 6
ENDMDL
ENDMDL
