MODEL 3288
MODEL 1
REMARK VINA RESULT:    -6.294      0.000      0.000
REMARK INTER + INTRA:          -8.962
REMARK INTER:                  -8.501
REMARK INTRA:                  -0.460
REMARK UNBOUND:                -0.460
REMARK  Name = No_3288-gen_results/8p0m/2024-11-26-14-13-15/
REMARK  6 active torsions:
REMARK  status: ('A' for Active; 'I' for Inactive)
REMARK    1  A    between atoms: C_1  and  C_2
REMARK    2  A    between atoms: C_4  and  C_16
REMARK    3  A    between atoms: N_8  and  C_10
REMARK    4  A    between atoms: C_10  and  C_13
REMARK    5  A    between atoms: C_13  and  O_14
REMARK    6  A    between atoms: O_14  and  C_19
REMARK                            x       y       z     vdW  Elec       q    Type
REMARK                         _______ _______ _______ _____ _____    ______ ____
ROOT
ATOM      1  C   UNL A   1     -25.352   2.012  26.550  0.00  0.00    +0.249 C 
ATOM      2  N   UNL A   1     -26.060   1.210  25.567  0.00  0.00    -0.264 N 
ATOM      3  O   UNL A   1     -26.195   2.655  27.273  0.00  0.00    -0.270 OA
ATOM      4  C   UNL A   1     -25.292   0.216  24.747  0.00  0.00    +0.116 C 
ENDROOT
BRANCH   1   5
ATOM      5  C   UNL A   1     -24.312   1.603  27.012  0.00  0.00    +0.054 A 
ATOM      6  C   UNL A   1     -24.224   0.548  27.863  0.00  0.00    +0.012 A 
ATOM      7  C   UNL A   1     -22.960   0.034  28.436  0.00  0.00    +0.090 A 
ATOM      8  C   UNL A   1     -21.751   0.693  28.037  0.00  0.00    +0.064 A 
ATOM      9  C   UNL A   1     -21.878   1.739  27.095  0.00  0.00    +0.012 A 
ATOM     10  C   UNL A   1     -23.087   2.163  26.606  0.00  0.00    +0.005 A 
ATOM     11 CL   UNL A   1     -20.253   0.197  28.577  0.00  0.00    -0.082 Cl
BRANCH   7  12
ATOM     12  C   UNL A   1     -22.853  -1.092  29.393  0.00  0.00    +0.389 C 
ATOM     13  O   UNL A   1     -22.721  -0.805  30.606  0.00  0.00    -0.240 OA
ATOM     14  O   UNL A   1     -23.034  -2.287  28.919  0.00  0.00    -0.240 OA
ENDBRANCH   7  12
ENDBRANCH   1   5
BRANCH   2  15
ATOM     15  C   UNL A   1     -27.315   1.496  24.944  0.00  0.00    +0.205 C 
BRANCH  15  16
ATOM     16  C   UNL A   1     -28.294   0.538  25.037  0.00  0.00    +0.342 C 
ATOM     17  O   UNL A   1     -28.775   0.141  26.230  0.00  0.00    -0.248 OA
BRANCH  16  18
ATOM     18  O   UNL A   1     -28.691  -0.040  24.030  0.00  0.00    -0.423 OA
BRANCH  18  19
ATOM     19  C   UNL A   1     -29.938   0.152  23.614  0.00  0.00    +0.148 A 
ATOM     20  C   UNL A   1     -30.494   0.916  23.170  0.00  0.00    +0.038 A 
ATOM     21  C   UNL A   1     -30.613  -1.297  23.628  0.00  0.00    +0.038 A 
ATOM     22  C   UNL A   1     -31.845   0.961  22.703  0.00  0.00    +0.003 A 
ATOM     23  C   UNL A   1     -31.913  -1.408  23.186  0.00  0.00    +0.003 A 
ATOM     24  C   UNL A   1     -32.550  -0.268  22.737  0.00  0.00    +0.000 A 
ENDBRANCH  18  19
ENDBRANCH  16  18
ENDBRANCH  15  16
ENDBRANCH   2  15
TORSDOF 6
ENDMDL
ENDMDL
