REMARK  Name = No_3288-gen_results/8p0m/2024-11-26-14-13-15/
REMARK  6 active torsions:
REMARK  status: ('A' for Active; 'I' for Inactive)
REMARK    1  A    between atoms: C_1  and  C_2
REMARK    2  A    between atoms: C_4  and  C_16
REMARK    3  A    between atoms: N_8  and  C_10
REMARK    4  A    between atoms: C_10  and  C_13
REMARK    5  A    between atoms: C_13  and  O_14
REMARK    6  A    between atoms: O_14  and  C_19
REMARK                            x       y       z     vdW  Elec       q    Type
REMARK                         _______ _______ _______ _____ _____    ______ ____
ROOT
ATOM      1  C   UNL A   1     -28.016  -0.814  28.878  0.00  0.00    +0.249 C 
ATOM      2  N   UNL A   1     -27.982  -1.637  30.075  0.00  0.00    -0.264 N 
ATOM      3  O   UNL A   1     -29.216  -0.413  28.663  0.00  0.00    -0.270 OA
ATOM      4  C   UNL A   1     -26.654  -2.047  30.640  0.00  0.00    +0.116 C 
ENDROOT
BRANCH   1   5
ATOM      5  C   UNL A   1     -27.064  -0.119  28.608  0.00  0.00    +0.054 A 
ATOM      6  C   UNL A   1     -26.929   1.171  29.008  0.00  0.00    +0.012 A 
ATOM      7  C   UNL A   1     -25.770   2.034  28.688  0.00  0.00    +0.090 A 
ATOM      8  C   UNL A   1     -24.714   1.443  27.919  0.00  0.00    +0.064 A 
ATOM      9  C   UNL A   1     -24.859   0.078  27.584  0.00  0.00    +0.012 A 
ATOM     10  C   UNL A   1     -25.965  -0.661  27.916  0.00  0.00    +0.005 A 
ATOM     11 CL   UNL A   1     -23.334   2.288  27.516  0.00  0.00    -0.082 Cl
BRANCH   7  12
ATOM     12  C   UNL A   1     -25.627   3.453  29.087  0.00  0.00    +0.389 C 
ATOM     13  O   UNL A   1     -25.715   4.317  28.183  0.00  0.00    -0.240 OA
ATOM     14  O   UNL A   1     -25.552   3.703  30.359  0.00  0.00    -0.240 OA
ENDBRANCH   7  12
ENDBRANCH   1   5
BRANCH   2  15
ATOM     15  C   UNL A   1     -29.016  -2.482  30.586  0.00  0.00    +0.205 C 
BRANCH  15  16
ATOM     16  C   UNL A   1     -28.932  -3.821  30.296  0.00  0.00    +0.342 C 
ATOM     17  O   UNL A   1     -27.911  -4.320  29.573  0.00  0.00    -0.248 OA
BRANCH  16  18
ATOM     18  O   UNL A   1     -29.839  -4.582  30.620  0.00  0.00    -0.423 OA
BRANCH  18  19
ATOM     19  C   UNL A   1     -31.081  -4.326  30.223  0.00  0.00    +0.148 A 
ATOM     20  C   UNL A   1     -31.779  -3.556  30.323  0.00  0.00    +0.038 A 
ATOM     21  C   UNL A   1     -31.409  -5.441  29.126  0.00  0.00    +0.038 A 
ATOM     22  C   UNL A   1     -33.087  -3.381  29.770  0.00  0.00    +0.003 A 
ATOM     23  C   UNL A   1     -32.633  -5.386  28.495  0.00  0.00    +0.003 A 
ATOM     24  C   UNL A   1     -33.495  -4.360  28.830  0.00  0.00    +0.000 A 
ENDBRANCH  18  19
ENDBRANCH  16  18
ENDBRANCH  15  16
ENDBRANCH   2  15
TORSDOF 6
