MODEL 3289
MODEL 1
REMARK VINA RESULT:    -6.044      0.000      0.000
REMARK INTER + INTRA:          -7.444
REMARK INTER:                  -7.104
REMARK INTRA:                  -0.341
REMARK UNBOUND:                -0.341
REMARK  Name = No_3289-gen_results/8p0m/2024-11-26-14-13-15/
REMARK  3 active torsions:
REMARK  status: ('A' for Active; 'I' for Inactive)
REMARK    1  A    between atoms: C_3  and  C_7
REMARK    2  A    between atoms: C_5  and  C_11
REMARK    3  A    between atoms: C_11  and  N_12
REMARK                            x       y       z     vdW  Elec       q    Type
REMARK                         _______ _______ _______ _____ _____    ______ ____
ROOT
ATOM      1  C   UNL A   1     -21.469   1.467  27.396  0.00  0.00    +0.004 A 
ATOM      2  C   UNL A   1     -21.114   0.852  28.174  0.00  0.00    -0.000 A 
ATOM      3  C   UNL A   1     -22.872   1.377  27.107  0.00  0.00    +0.071 A 
ATOM      4  C   UNL A   1     -23.673   0.460  27.659  0.00  0.00    +0.002 A 
ATOM      5  C   UNL A   1     -23.108  -0.347  28.607  0.00  0.00    +0.002 A 
ATOM      6  C   UNL A   1     -21.782  -0.195  28.917  0.00  0.00    -0.002 A 
ENDROOT
BRANCH   3   7
ATOM      7  C   UNL A   1     -23.439   2.338  26.049  0.00  0.00    +0.419 C 
ATOM      8  F   UNL A   1     -23.780   3.392  26.411  0.00  0.00    -0.166 F 
ATOM      9  F   UNL A   1     -22.528   2.530  25.023  0.00  0.00    -0.166 F 
ATOM     10  F   UNL A   1     -24.601   1.834  25.418  0.00  0.00    -0.166 F 
ENDBRANCH   3   7
BRANCH   5  11
ATOM     11  C   UNL A   1     -23.864  -1.375  29.307  0.00  0.00    +0.151 C 
BRANCH  11  12
ATOM     12  N   UNL A   1     -23.811  -2.534  28.968  0.00  0.00    -0.269 NA
ATOM     13  C   UNL A   1     -24.441  -3.555  29.103  0.00  0.00    +0.068 C 
ATOM     14  C   UNL A   1     -24.146  -4.891  28.547  0.00  0.00    +0.053 C 
ENDBRANCH  11  12
ENDBRANCH   5  11
TORSDOF 3
ENDMDL
ENDMDL
