REMARK  Name = No_3289-gen_results/8p0m/2024-11-26-14-13-15/
REMARK  3 active torsions:
REMARK  status: ('A' for Active; 'I' for Inactive)
REMARK    1  A    between atoms: C_3  and  C_7
REMARK    2  A    between atoms: C_5  and  C_11
REMARK    3  A    between atoms: C_11  and  N_12
REMARK                            x       y       z     vdW  Elec       q    Type
REMARK                         _______ _______ _______ _____ _____    ______ ____
ROOT
ATOM      1  C   UNL A   1     -28.016  -0.814  28.878  0.00  0.00    +0.004 A 
ATOM      2  C   UNL A   1     -28.469  -0.785  29.829  0.00  0.00    -0.000 A 
ATOM      3  C   UNL A   1     -28.196   0.348  28.055  0.00  0.00    +0.071 A 
ATOM      4  C   UNL A   1     -29.019   1.350  28.378  0.00  0.00    +0.002 A 
ATOM      5  C   UNL A   1     -29.625   1.268  29.601  0.00  0.00    +0.002 A 
ATOM      6  C   UNL A   1     -29.382   0.182  30.400  0.00  0.00    -0.002 A 
ENDROOT
BRANCH   3   7
ATOM      7  C   UNL A   1     -27.459   0.379  26.705  0.00  0.00    +0.419 C 
ATOM      8  F   UNL A   1     -26.484  -0.252  26.613  0.00  0.00    -0.166 F 
ATOM      9  F   UNL A   1     -28.302  -0.013  25.678  0.00  0.00    -0.166 F 
ATOM     10  F   UNL A   1     -27.026   1.678  26.348  0.00  0.00    -0.166 F 
ENDBRANCH   3   7
BRANCH   5  11
ATOM     11  C   UNL A   1     -30.529   2.296  30.094  0.00  0.00    +0.151 C 
BRANCH  11  12
ATOM     12  N   UNL A   1     -30.383   2.789  31.188  0.00  0.00    -0.269 NA
ATOM     13  C   UNL A   1     -30.253   3.880  31.689  0.00  0.00    +0.068 C 
ATOM     14  C   UNL A   1     -30.098   4.216  33.119  0.00  0.00    +0.053 C 
ENDBRANCH  11  12
ENDBRANCH   5  11
TORSDOF 3
