REMARK  Name = No_329-gen_results/8p0m/2024-11-26-14-13-15/
REMARK  5 active torsions:
REMARK  status: ('A' for Active; 'I' for Inactive)
REMARK    1  A    between atoms: C_3  and  C_8
REMARK    2  A    between atoms: C_8  and  C_9
REMARK    3  A    between atoms: C_9  and  C_10
REMARK    4  A    between atoms: C_10  and  C_13
REMARK    5  A    between atoms: C_14  and  C_15
REMARK                            x       y       z     vdW  Elec       q    Type
REMARK                         _______ _______ _______ _____ _____    ______ ____
ROOT
ATOM      1  C   UNL A   1     -24.117   1.337  29.665  0.00  0.00    +0.008 C 
ATOM      2  C   UNL A   1     -22.771   1.847  29.407  0.00  0.00    +0.001 C 
ENDROOT
BRANCH   1   3
ATOM      3  C   UNL A   1     -24.861   1.792  30.628  0.00  0.00    +0.022 C 
ATOM      4  C   UNL A   1     -24.889   1.395  31.716  0.00  0.00    +0.005 C 
BRANCH   3   5
ATOM      5  C   UNL A   1     -25.832   2.766  30.109  0.00  0.00    -0.026 C 
ATOM      6  C   UNL A   1     -25.705   3.674  29.317  0.00  0.00    -0.005 C 
BRANCH   6   7
ATOM      7  C   UNL A   1     -26.678   4.640  28.915  0.00  0.00    -0.005 C 
ATOM      8  C   UNL A   1     -27.911   4.424  29.395  0.00  0.00    -0.026 C 
ATOM      9  C   UNL A   1     -28.189   3.421  30.292  0.00  0.00    +0.031 C 
ENDBRANCH   6   7
ENDBRANCH   3   5
ENDBRANCH   1   3
BRANCH   1  10
ATOM     10  C   UNL A   1     -24.529   0.349  28.800  0.00  0.00    +0.027 C 
BRANCH  10  13
ATOM     11  C   UNL A   1     -28.016  -0.814  28.878  0.00  0.00    +0.042 A 
ATOM     12  C   UNL A   1     -27.064  -0.119  28.608  0.00  0.00    -0.001 A 
ATOM     13  C   UNL A   1     -25.792  -0.430  29.076  0.00  0.00    -0.022 A 
ATOM     14  C   UNL A   1     -25.576  -1.565  29.936  0.00  0.00    -0.001 A 
ATOM     15  C   UNL A   1     -26.735  -2.300  30.217  0.00  0.00    +0.042 A 
ATOM     16  C   UNL A   1     -27.918  -1.954  29.763  0.00  0.00    +0.196 A 
ATOM     17  O   UNL A   1     -29.000  -2.701  30.115  0.00  0.00    -0.287 OA
ENDBRANCH  10  13
ENDBRANCH   1  10
TORSDOF 5
