REMARK  Name = No_3290-gen_results/8p0m/2024-11-26-14-13-15/
REMARK  9 active torsions:
REMARK  status: ('A' for Active; 'I' for Inactive)
REMARK    1  A    between atoms: C_1  and  C_2
REMARK    2  A    between atoms: C_1  and  C_8
REMARK    3  A    between atoms: C_5  and  C_10
REMARK    4  A    between atoms: C_8  and  C_9
REMARK    5  A    between atoms: C_8  and  C_18
REMARK    6  A    between atoms: C_14  and  C_29
REMARK    7  A    between atoms: C_20  and  C_24
REMARK    8  A    between atoms: N_31  and  C_32
REMARK    9  A    between atoms: C_33  and  C_34
REMARK                            x       y       z     vdW  Elec       q    Type
REMARK                         _______ _______ _______ _____ _____    ______ ____
ROOT
ATOM      1  C   UNL A   1     -28.660  -0.460  30.201  0.00  0.00    +0.168 C 
ATOM      2  O   UNL A   1     -27.590  -0.746  31.246  0.00  0.00    -0.216 OA
ENDROOT
BRANCH   1   3
ATOM      3  C   UNL A   1     -29.750  -1.249  30.677  0.00  0.00    +0.009 A 
ATOM      4  C   UNL A   1     -30.192  -2.184  29.881  0.00  0.00    +0.003 A 
ATOM      5  C   UNL A   1     -31.320  -2.937  30.447  0.00  0.00    +0.055 A 
ATOM      6  C   UNL A   1     -31.823  -2.662  31.618  0.00  0.00    +0.005 A 
ATOM      7  C   UNL A   1     -31.341  -1.673  32.432  0.00  0.00    -0.000 A 
ATOM      8  C   UNL A   1     -30.272  -0.918  31.985  0.00  0.00    -0.002 A 
BRANCH   5   9
ATOM      9  C   UNL A   1     -31.849  -4.008  29.534  0.00  0.00    +0.269 C 
ATOM     10  O   UNL A   1     -31.189  -5.046  29.378  0.00  0.00    -0.268 OA
ATOM     11  N   UNL A   1     -33.116  -4.053  29.190  0.00  0.00    -0.174 NA
BRANCH  11  12
ATOM     12  C   UNL A   1     -33.983  -2.906  29.282  0.00  0.00    +0.089 C 
ATOM     13  C   UNL A   1     -35.252  -3.126  28.919  0.00  0.00    +0.018 C 
BRANCH  13  14
ATOM     14  C   UNL A   1     -36.159  -2.127  28.953  0.00  0.00    +0.001 C 
ATOM     15  C   UNL A   1     -35.746  -0.800  29.402  0.00  0.00    +0.000 C 
ENDBRANCH  13  14
ENDBRANCH  11  12
ENDBRANCH   5   9
ENDBRANCH   1   3
BRANCH   1  16
ATOM     16  C   UNL A   1     -28.917   1.040  30.480  0.00  0.00    +0.009 A 
ATOM     17  C   UNL A   1     -29.722   1.791  29.747  0.00  0.00    +0.003 A 
ATOM     18  C   UNL A   1     -29.827   3.133  30.097  0.00  0.00    +0.055 A 
ATOM     19  C   UNL A   1     -28.437   1.507  31.769  0.00  0.00    -0.002 A 
ATOM     20  C   UNL A   1     -28.516   2.845  32.064  0.00  0.00    -0.000 A 
ATOM     21  C   UNL A   1     -29.257   3.675  31.249  0.00  0.00    +0.004 A 
BRANCH  18  22
ATOM     22  C   UNL A   1     -30.675   4.023  29.222  0.00  0.00    +0.265 C 
ATOM     23  N   UNL A   1     -30.491   5.175  29.074  0.00  0.00    -0.200 NA
ATOM     24  O   UNL A   1     -31.620   3.435  28.599  0.00  0.00    -0.268 OA
ATOM     25  C   UNL A   1     -29.394   5.996  29.648  0.00  0.00    +0.139 C 
ENDBRANCH  18  22
ENDBRANCH   1  16
BRANCH   1  26
ATOM     26  C   UNL A   1     -28.016  -0.814  28.878  0.00  0.00    +0.065 C 
BRANCH  26  27
ATOM     27  C   UNL A   1     -27.064  -0.119  28.608  0.00  0.00    -0.019 A 
ATOM     28  C   UNL A   1     -25.792  -0.430  29.076  0.00  0.00    -0.004 A 
ATOM     29  C   UNL A   1     -24.546   0.349  28.823  0.00  0.00    +0.004 A 
ATOM     30  C   UNL A   1     -24.659   1.420  27.888  0.00  0.00    +0.057 A 
ATOM     31  C   UNL A   1     -25.947   1.681  27.379  0.00  0.00    +0.004 A 
ATOM     32  C   UNL A   1     -27.044   0.974  27.687  0.00  0.00    -0.004 A 
BRANCH  30  33
ATOM     33  C   UNL A   1     -23.447   2.147  27.592  0.00  0.00    +0.284 C 
ATOM     34  N   UNL A   1     -23.474   3.137  26.811  0.00  0.00    -0.084 NA
ATOM     35  O   UNL A   1     -22.287   1.744  27.966  0.00  0.00    -0.267 OA
ENDBRANCH  30  33
ENDBRANCH  26  27
ENDBRANCH   1  26
TORSDOF 9
