MODEL 3290
MODEL 1
REMARK VINA RESULT:    -6.534      0.000      0.000
REMARK INTER + INTRA:         -13.035
REMARK INTER:                  -9.971
REMARK INTRA:                  -3.064
REMARK UNBOUND:                -3.064
REMARK  Name = No_3290-gen_results/8p0m/2024-11-26-14-13-15/
REMARK  9 active torsions:
REMARK  status: ('A' for Active; 'I' for Inactive)
REMARK    1  A    between atoms: C_1  and  C_2
REMARK    2  A    between atoms: C_1  and  C_8
REMARK    3  A    between atoms: C_5  and  C_10
REMARK    4  A    between atoms: C_8  and  C_9
REMARK    5  A    between atoms: C_8  and  C_18
REMARK    6  A    between atoms: C_14  and  C_29
REMARK    7  A    between atoms: C_20  and  C_24
REMARK    8  A    between atoms: N_31  and  C_32
REMARK    9  A    between atoms: C_33  and  C_34
REMARK                            x       y       z     vdW  Elec       q    Type
REMARK                         _______ _______ _______ _____ _____    ______ ____
ROOT
ATOM      1  C   UNL A   1     -18.272 -22.545   5.151  0.00  0.00    +0.168 C 
ATOM      2  O   UNL A   1     -17.937 -23.049   3.753  0.00  0.00    -0.216 OA
ENDROOT
BRANCH   1   3
ATOM      3  C   UNL A   1     -19.331 -21.627   4.883  0.00  0.00    +0.009 A 
ATOM      4  C   UNL A   1     -19.429 -20.594   5.674  0.00  0.00    +0.003 A 
ATOM      5  C   UNL A   1     -20.552 -19.710   5.332  0.00  0.00    +0.055 A 
ATOM      6  C   UNL A   1     -21.365 -19.968   4.346  0.00  0.00    +0.005 A 
ATOM      7  C   UNL A   1     -21.241 -21.061   3.532  0.00  0.00    -0.000 A 
ATOM      8  C   UNL A   1     -20.205 -21.944   3.774  0.00  0.00    -0.002 A 
BRANCH   5   9
ATOM      9  C   UNL A   1     -20.686 -18.523   6.245  0.00  0.00    +0.269 C 
ATOM     10  O   UNL A   1     -20.134 -17.458   5.933  0.00  0.00    -0.268 OA
ATOM     11  N   UNL A   1     -21.636 -18.456   7.150  0.00  0.00    -0.174 NA
BRANCH  11  12
ATOM     12  C   UNL A   1     -22.328 -19.625   7.631  0.00  0.00    +0.089 C 
ATOM     13  C   UNL A   1     -21.681 -20.315   8.578  0.00  0.00    +0.018 C 
BRANCH  13  14
ATOM     14  C   UNL A   1     -22.222 -21.435   9.102  0.00  0.00    +0.001 C 
ATOM     15  C   UNL A   1     -23.281 -22.128   8.373  0.00  0.00    +0.000 C 
ENDBRANCH  13  14
ENDBRANCH  11  12
ENDBRANCH   5   9
ENDBRANCH   1   3
BRANCH   1  16
ATOM     16  C   UNL A   1     -18.830 -23.844   5.780  0.00  0.00    +0.009 A 
ATOM     17  C   UNL A   1     -19.765 -23.858   6.715  0.00  0.00    +0.003 A 
ATOM     18  C   UNL A   1     -20.143 -25.101   7.212  0.00  0.00    +0.055 A 
ATOM     19  C   UNL A   1     -18.464 -25.062   5.079  0.00  0.00    -0.002 A 
ATOM     20  C   UNL A   1     -18.815 -26.273   5.621  0.00  0.00    -0.000 A 
ATOM     21  C   UNL A   1     -19.703 -26.311   6.675  0.00  0.00    +0.004 A 
BRANCH  18  22
ATOM     22  C   UNL A   1     -21.148 -25.131   8.338  0.00  0.00    +0.265 C 
ATOM     23  N   UNL A   1     -20.868 -25.046   9.477  0.00  0.00    -0.200 NA
ATOM     24  O   UNL A   1     -22.368 -25.225   7.978  0.00  0.00    -0.268 OA
ATOM     25  C   UNL A   1     -19.518 -24.845  10.064  0.00  0.00    +0.139 C 
ENDBRANCH  18  22
ENDBRANCH   1  16
BRANCH   1  26
ATOM     26  C   UNL A   1     -16.962 -22.021   5.700  0.00  0.00    +0.065 C 
BRANCH  26  27
ATOM     27  C   UNL A   1     -16.732 -22.395   6.826  0.00  0.00    -0.019 A 
ATOM     28  C   UNL A   1     -15.783 -23.380   7.077  0.00  0.00    -0.004 A 
ATOM     29  C   UNL A   1     -15.417 -23.931   8.413  0.00  0.00    +0.004 A 
ATOM     30  C   UNL A   1     -15.991 -23.270   9.539  0.00  0.00    +0.057 A 
ATOM     31  C   UNL A   1     -16.906 -22.234   9.264  0.00  0.00    +0.004 A 
ATOM     32  C   UNL A   1     -17.235 -21.817   8.033  0.00  0.00    -0.004 A 
BRANCH  30  33
ATOM     33  C   UNL A   1     -15.601 -23.759  10.840  0.00  0.00    +0.284 C 
ATOM     34  N   UNL A   1     -14.421 -23.593  11.254  0.00  0.00    -0.084 NA
ATOM     35  O   UNL A   1     -16.361 -24.504  11.558  0.00  0.00    -0.267 OA
ENDBRANCH  30  33
ENDBRANCH  26  27
ENDBRANCH   1  26
TORSDOF 9
ENDMDL
ENDMDL
