REMARK  Name = No_3291-gen_results/8p0m/2024-11-26-14-13-15/
REMARK  2 active torsions:
REMARK  status: ('A' for Active; 'I' for Inactive)
REMARK    1  A    between atoms: C_2  and  C_3
REMARK    2  A    between atoms: C_6  and  C_13
REMARK                            x       y       z     vdW  Elec       q    Type
REMARK                         _______ _______ _______ _____ _____    ______ ____
ROOT
ATOM      1  C   UNL A   1     -27.001   0.691  27.491  0.00  0.00    -0.004 A 
ATOM      2  C   UNL A   1     -25.855   1.482  27.083  0.00  0.00    -0.000 A 
ATOM      3  C   UNL A   1     -25.823   2.330  25.994  0.00  0.00    -0.000 A 
ATOM      4  C   UNL A   1     -26.947   2.350  25.160  0.00  0.00    -0.005 A 
ATOM      5  C   UNL A   1     -28.027   1.571  25.367  0.00  0.00    -0.025 A 
ATOM      6  C   UNL A   1     -28.060   0.762  26.499  0.00  0.00    -0.019 A 
ATOM      7  C   UNL A   1     -29.159   1.647  24.480  0.00  0.00    +0.034 C 
ATOM      8  C   UNL A   1     -29.827   0.480  24.435  0.00  0.00    +0.070 C 
ATOM      9  C   UNL A   1     -29.487  -0.650  25.142  0.00  0.00    +0.155 C 
ATOM     10  C   UNL A   1     -28.750  -0.487  26.312  0.00  0.00    +0.090 C 
ATOM     11  O   UNL A   1     -30.311  -1.690  25.058  0.00  0.00    -0.296 OA
ENDROOT
BRANCH   1  13
ATOM     12  C   UNL A   1     -28.016  -0.814  28.878  0.00  0.00    +0.007 A 
ATOM     13  C   UNL A   1     -27.064  -0.119  28.608  0.00  0.00    -0.000 A 
ATOM     14  C   UNL A   1     -27.987  -1.633  30.104  0.00  0.00    +0.080 A 
ATOM     15  C   UNL A   1     -26.777  -1.833  30.747  0.00  0.00    +0.007 A 
ATOM     16  C   UNL A   1     -25.630  -1.216  30.306  0.00  0.00    +0.000 A 
ATOM     17  C   UNL A   1     -25.732  -0.348  29.164  0.00  0.00    -0.000 A 
BRANCH  14  18
ATOM     18  C   UNL A   1     -29.171  -2.371  30.593  0.00  0.00    +0.388 C 
ATOM     19  O   UNL A   1     -29.200  -3.604  30.648  0.00  0.00    -0.241 OA
ATOM     20  O   UNL A   1     -30.078  -1.749  31.164  0.00  0.00    -0.241 OA
ENDBRANCH  14  18
ENDBRANCH   1  13
TORSDOF 2
