MODEL 3291
MODEL 1
REMARK VINA RESULT:    -8.364      0.000      0.000
REMARK INTER + INTRA:          -9.716
REMARK INTER:                  -9.342
REMARK INTRA:                  -0.374
REMARK UNBOUND:                -0.374
REMARK  Name = No_3291-gen_results/8p0m/2024-11-26-14-13-15/
REMARK  2 active torsions:
REMARK  status: ('A' for Active; 'I' for Inactive)
REMARK    1  A    between atoms: C_2  and  C_3
REMARK    2  A    between atoms: C_6  and  C_13
REMARK                            x       y       z     vdW  Elec       q    Type
REMARK                         _______ _______ _______ _____ _____    ______ ____
ROOT
ATOM      1  C   UNL A   1     -23.733  -1.348  28.857  0.00  0.00    -0.004 A 
ATOM      2  C   UNL A   1     -22.347  -1.146  29.236  0.00  0.00    -0.000 A 
ATOM      3  C   UNL A   1     -21.603  -0.018  28.951  0.00  0.00    -0.000 A 
ATOM      4  C   UNL A   1     -22.198   0.960  28.146  0.00  0.00    -0.005 A 
ATOM      5  C   UNL A   1     -23.438   0.832  27.633  0.00  0.00    -0.025 A 
ATOM      6  C   UNL A   1     -24.190  -0.288  27.975  0.00  0.00    -0.019 A 
ATOM      7  C   UNL A   1     -24.001   1.880  26.822  0.00  0.00    +0.034 C 
ATOM      8  C   UNL A   1     -24.894   1.393  25.941  0.00  0.00    +0.070 C 
ATOM      9  C   UNL A   1     -25.239   0.067  25.820  0.00  0.00    +0.155 C 
ATOM     10  C   UNL A   1     -25.065  -0.753  26.931  0.00  0.00    +0.090 C 
ATOM     11  O   UNL A   1     -26.211  -0.232  24.964  0.00  0.00    -0.296 OA
ENDROOT
BRANCH   1  13
ATOM     12  C   UNL A   1     -25.664  -2.375  29.518  0.00  0.00    +0.007 A 
ATOM     13  C   UNL A   1     -24.504  -2.447  29.182  0.00  0.00    -0.000 A 
ATOM     14  C   UNL A   1     -26.395  -3.610  29.858  0.00  0.00    +0.080 A 
ATOM     15  C   UNL A   1     -25.853  -4.830  29.493  0.00  0.00    +0.007 A 
ATOM     16  C   UNL A   1     -24.616  -4.906  28.897  0.00  0.00    +0.000 A 
ATOM     17  C   UNL A   1     -23.900  -3.678  28.678  0.00  0.00    -0.000 A 
BRANCH  14  18
ATOM     18  C   UNL A   1     -27.753  -3.592  30.441  0.00  0.00    +0.388 C 
ATOM     19  O   UNL A   1     -28.133  -2.693  31.196  0.00  0.00    -0.241 OA
ATOM     20  O   UNL A   1     -28.610  -4.373  30.002  0.00  0.00    -0.241 OA
ENDBRANCH  14  18
ENDBRANCH   1  13
TORSDOF 2
ENDMDL
ENDMDL
