MODEL 3292
MODEL 1
REMARK VINA RESULT:    -7.500      0.000      0.000
REMARK INTER + INTRA:         -14.306
REMARK INTER:                 -11.884
REMARK INTRA:                  -2.422
REMARK UNBOUND:                -2.422
REMARK  Name = No_3292-gen_results/8p0m/2024-11-26-14-13-15/
REMARK  10 active torsions:
REMARK  status: ('A' for Active; 'I' for Inactive)
REMARK    1  A    between atoms: C_1  and  C_2
REMARK    2  A    between atoms: C_3  and  O_13
REMARK    3  A    between atoms: C_5  and  C_9
REMARK    4  A    between atoms: O_13  and  C_14
REMARK    5  A    between atoms: C_14  and  C_15
REMARK    6  A    between atoms: C_17  and  C_18
REMARK    7  A    between atoms: C_21  and  C_28
REMARK    8  A    between atoms: C_28  and  O_29
REMARK    9  A    between atoms: O_29  and  C_31
REMARK   10  A    between atoms: C_31  and  C_33
REMARK                            x       y       z     vdW  Elec       q    Type
REMARK                         _______ _______ _______ _____ _____    ______ ____
ROOT
ATOM      1  C   UNL A   1     -30.085  -6.332  32.062  0.00  0.00    +0.076 A 
ATOM      2  C   UNL A   1     -29.055  -5.874  31.552  0.00  0.00    +0.006 A 
ATOM      3  C   UNL A   1     -29.053  -4.595  30.810  0.00  0.00    +0.000 A 
ATOM      4  C   UNL A   1     -31.352  -5.709  31.866  0.00  0.00    +0.006 A 
ATOM      5  C   UNL A   1     -31.300  -4.569  31.175  0.00  0.00    +0.000 A 
ATOM      6  C   UNL A   1     -30.227  -3.989  30.715  0.00  0.00    +0.000 A 
ENDROOT
BRANCH   3   7
ATOM      7  C   UNL A   1     -27.859  -3.937  30.423  0.00  0.00    +0.000 A 
ATOM      8  C   UNL A   1     -27.620  -2.731  30.667  0.00  0.00    +0.000 A 
ATOM      9  C   UNL A   1     -26.389  -2.076  30.309  0.00  0.00    +0.006 A 
ATOM     10  C   UNL A   1     -25.408  -2.868  29.699  0.00  0.00    +0.076 A 
ATOM     11  C   UNL A   1     -25.648  -4.167  29.435  0.00  0.00    +0.006 A 
ATOM     12  C   UNL A   1     -26.828  -4.747  29.800  0.00  0.00    +0.000 A 
BRANCH  10  13
ATOM     13  C   UNL A   1     -24.136  -2.166  29.288  0.00  0.00    +0.346 C 
ATOM     14  O   UNL A   1     -23.246  -2.828  28.876  0.00  0.00    -0.244 OA
BRANCH  13  15
ATOM     15  O   UNL A   1     -24.108  -0.971  29.239  0.00  0.00    -0.421 OA
BRANCH  15  16
ATOM     16  C   UNL A   1     -23.762  -0.174  28.442  0.00  0.00    +0.144 C 
ATOM     17  C   UNL A   1     -22.869   0.463  28.526  0.00  0.00    +0.012 C 
ATOM     18  C   UNL A   1     -22.382   1.507  27.560  0.00  0.00    +0.034 C 
BRANCH  16  19
ATOM     19  C   UNL A   1     -24.649  -0.019  27.291  0.00  0.00    +0.037 C 
ATOM     20  C   UNL A   1     -25.993   0.406  27.493  0.00  0.00    +0.003 C 
ENDBRANCH  16  19
ENDBRANCH  15  16
ENDBRANCH  13  15
ENDBRANCH  10  13
ENDBRANCH   3   7
BRANCH   1  21
ATOM     21  C   UNL A   1     -29.906  -7.414  32.915  0.00  0.00    +0.346 C 
ATOM     22  O   UNL A   1     -29.157  -7.266  33.952  0.00  0.00    -0.244 OA
BRANCH  21  23
ATOM     23  O   UNL A   1     -30.459  -8.500  32.680  0.00  0.00    -0.421 OA
BRANCH  23  25
ATOM     24  C   UNL A   1     -30.416  -9.931  30.841  0.00  0.00    +0.042 A 
ATOM     25  C   UNL A   1     -29.958  -9.549  32.087  0.00  0.00    +0.147 A 
ATOM     26  C   UNL A   1     -28.898 -10.200  32.835  0.00  0.00    +0.041 A 
ATOM     27  C   UNL A   1     -28.267 -11.332  32.275  0.00  0.00    +0.051 A 
ATOM     28  C   UNL A   1     -28.726 -11.733  30.969  0.00  0.00    +0.004 A 
ATOM     29  C   UNL A   1     -29.707 -11.078  30.262  0.00  0.00    +0.001 A 
BRANCH  24  30
ATOM     30  C   UNL A   1     -31.257  -9.322  30.222  0.00  0.00    +0.184 C 
ATOM     31 CL   UNL A   1     -32.946  -9.223  30.703  0.00  0.00    -0.092 Cl
ATOM     32 CL   UNL A   1     -30.897  -7.994  29.179  0.00  0.00    -0.092 Cl
ENDBRANCH  24  30
BRANCH  27  33
ATOM     33  C   UNL A   1     -27.222 -12.044  32.943  0.00  0.00    +0.242 C 
ATOM     34  N   UNL A   1     -27.242 -12.163  34.216  0.00  0.00    -0.116 NA
ATOM     35  F   UNL A   1     -26.359 -12.612  32.205  0.00  0.00    -0.181 F 
ENDBRANCH  27  33
ENDBRANCH  23  25
ENDBRANCH  21  23
ENDBRANCH   1  21
TORSDOF 10
ENDMDL
ENDMDL
