REMARK  Name = No_3292-gen_results/8p0m/2024-11-26-14-13-15/
REMARK  10 active torsions:
REMARK  status: ('A' for Active; 'I' for Inactive)
REMARK    1  A    between atoms: C_1  and  C_2
REMARK    2  A    between atoms: C_3  and  O_13
REMARK    3  A    between atoms: C_5  and  C_9
REMARK    4  A    between atoms: O_13  and  C_14
REMARK    5  A    between atoms: C_14  and  C_15
REMARK    6  A    between atoms: C_17  and  C_18
REMARK    7  A    between atoms: C_21  and  C_28
REMARK    8  A    between atoms: C_28  and  O_29
REMARK    9  A    between atoms: O_29  and  C_31
REMARK   10  A    between atoms: C_31  and  C_33
REMARK                            x       y       z     vdW  Elec       q    Type
REMARK                         _______ _______ _______ _____ _____    ______ ____
ROOT
ATOM      1  C   UNL A   1     -29.204   0.264  24.789  0.00  0.00    +0.076 A 
ATOM      2  C   UNL A   1     -30.157  -0.037  25.517  0.00  0.00    +0.006 A 
ATOM      3  C   UNL A   1     -31.397  -0.634  24.975  0.00  0.00    +0.000 A 
ATOM      4  C   UNL A   1     -29.290   0.157  23.370  0.00  0.00    +0.006 A 
ATOM      5  C   UNL A   1     -30.434  -0.369  22.929  0.00  0.00    +0.000 A 
ATOM      6  C   UNL A   1     -31.420  -0.805  23.662  0.00  0.00    +0.000 A 
ENDROOT
BRANCH   3   7
ATOM      7  C   UNL A   1     -32.399  -1.199  25.802  0.00  0.00    +0.000 A 
ATOM      8  C   UNL A   1     -33.221  -2.060  25.408  0.00  0.00    +0.000 A 
ATOM      9  C   UNL A   1     -34.212  -2.663  26.261  0.00  0.00    +0.006 A 
ATOM     10  C   UNL A   1     -34.199  -2.281  27.609  0.00  0.00    +0.076 A 
ATOM     11  C   UNL A   1     -33.318  -1.362  28.049  0.00  0.00    +0.006 A 
ATOM     12  C   UNL A   1     -32.392  -0.823  27.204  0.00  0.00    +0.000 A 
BRANCH  10  13
ATOM     13  C   UNL A   1     -35.267  -2.885  28.489  0.00  0.00    +0.346 C 
ATOM     14  O   UNL A   1     -35.846  -3.835  28.085  0.00  0.00    -0.244 OA
BRANCH  13  15
ATOM     15  O   UNL A   1     -35.397  -2.499  29.614  0.00  0.00    -0.421 OA
BRANCH  15  16
ATOM     16  C   UNL A   1     -36.144  -2.729  30.496  0.00  0.00    +0.144 C 
ATOM     17  C   UNL A   1     -36.302  -2.091  31.379  0.00  0.00    +0.012 C 
ATOM     18  C   UNL A   1     -37.221  -2.332  32.544  0.00  0.00    +0.034 C 
BRANCH  16  19
ATOM     19  C   UNL A   1     -36.859  -4.000  30.392  0.00  0.00    +0.037 C 
ATOM     20  C   UNL A   1     -37.777  -4.374  31.414  0.00  0.00    +0.003 C 
ENDBRANCH  16  19
ENDBRANCH  15  16
ENDBRANCH  13  15
ENDBRANCH  10  13
ENDBRANCH   3   7
BRANCH   1  21
ATOM     21  C   UNL A   1     -28.027   0.602  25.445  0.00  0.00    +0.346 C 
ATOM     22  O   UNL A   1     -26.951   0.741  24.752  0.00  0.00    -0.244 OA
BRANCH  21  23
ATOM     23  O   UNL A   1     -28.017   0.768  26.675  0.00  0.00    -0.421 OA
BRANCH  23  25
ATOM     24  C   UNL A   1     -27.064  -0.119  28.608  0.00  0.00    +0.042 A 
ATOM     25  C   UNL A   1     -27.001   0.691  27.491  0.00  0.00    +0.147 A 
ATOM     26  C   UNL A   1     -25.855   1.482  27.083  0.00  0.00    +0.041 A 
ATOM     27  C   UNL A   1     -24.690   1.453  27.881  0.00  0.00    +0.051 A 
ATOM     28  C   UNL A   1     -24.738   0.601  29.042  0.00  0.00    +0.004 A 
ATOM     29  C   UNL A   1     -25.823  -0.169  29.389  0.00  0.00    +0.001 A 
BRANCH  24  30
ATOM     30  C   UNL A   1     -28.016  -0.814  28.878  0.00  0.00    +0.184 C 
ATOM     31 CL   UNL A   1     -28.101  -1.847  30.300  0.00  0.00    -0.092 Cl
ATOM     32 CL   UNL A   1     -29.620  -0.487  28.332  0.00  0.00    -0.092 Cl
ENDBRANCH  24  30
BRANCH  27  33
ATOM     33  C   UNL A   1     -23.517   2.207  27.564  0.00  0.00    +0.242 C 
ATOM     34  N   UNL A   1     -22.521   2.208  28.367  0.00  0.00    -0.116 NA
ATOM     35  F   UNL A   1     -23.495   2.774  26.429  0.00  0.00    -0.181 F 
ENDBRANCH  27  33
ENDBRANCH  23  25
ENDBRANCH  21  23
ENDBRANCH   1  21
TORSDOF 10
