MODEL 3293
MODEL 1
REMARK VINA RESULT:    -6.408      0.000      0.000
REMARK INTER + INTRA:          -6.946
REMARK INTER:                  -6.782
REMARK INTRA:                  -0.163
REMARK UNBOUND:                -0.163
REMARK  Name = No_3293-gen_results/8p0m/2024-11-26-14-13-15/
REMARK  1 active torsions:
REMARK  status: ('A' for Active; 'I' for Inactive)
REMARK    1  A    between atoms: C_8  and  C_10
REMARK                            x       y       z     vdW  Elec       q    Type
REMARK                         _______ _______ _______ _____ _____    ______ ____
ROOT
ATOM      1  N   UNL A   1     -27.608  -2.201  30.235  0.00  0.00    -0.225 NA
ATOM      2  C   UNL A   1     -26.501  -2.138  29.698  0.00  0.00    +0.166 A 
ATOM      3  C   UNL A   1     -25.805  -3.271  29.396  0.00  0.00    +0.076 A 
ATOM      4  C   UNL A   1     -26.345  -4.503  29.724  0.00  0.00    +0.008 A 
ATOM      5  C   UNL A   1     -27.581  -4.502  30.270  0.00  0.00    +0.021 A 
ATOM      6  C   UNL A   1     -28.234  -3.327  30.480  0.00  0.00    +0.101 A 
ATOM      7  N   UNL A   1     -25.714  -1.037  29.268  0.00  0.00    -0.223 NA
ATOM      8  C   UNL A   1     -24.508  -1.311  28.867  0.00  0.00    +0.122 C 
ATOM      9  C   UNL A   1     -24.482  -2.765  28.900  0.00  0.00    +0.216 C 
ATOM     10  O   UNL A   1     -23.503  -3.591  28.530  0.00  0.00    -0.285 OA
ENDROOT
BRANCH   8  11
ATOM     11  C   UNL A   1     -23.423  -0.566  28.318  0.00  0.00    +0.021 A 
ATOM     12  C   UNL A   1     -22.125  -0.648  28.920  0.00  0.00    +0.002 A 
ATOM     13  C   UNL A   1     -23.710   0.442  27.360  0.00  0.00    +0.002 A 
ATOM     14  C   UNL A   1     -23.447   1.472  27.344  0.00  0.00    +0.000 A 
ATOM     15  C   UNL A   1     -21.895   1.557  27.635  0.00  0.00    +0.000 A 
ATOM     16  C   UNL A   1     -21.357   0.607  28.519  0.00  0.00    +0.000 A 
ENDBRANCH   8  11
TORSDOF 1
ENDMDL
ENDMDL
