REMARK  Name = No_3293-gen_results/8p0m/2024-11-26-14-13-15/
REMARK  1 active torsions:
REMARK  status: ('A' for Active; 'I' for Inactive)
REMARK    1  A    between atoms: C_8  and  C_10
REMARK                            x       y       z     vdW  Elec       q    Type
REMARK                         _______ _______ _______ _____ _____    ______ ____
ROOT
ATOM      1  N   UNL A   1     -28.054  -1.050  28.725  0.00  0.00    -0.225 NA
ATOM      2  C   UNL A   1     -26.966  -0.472  28.771  0.00  0.00    +0.166 A 
ATOM      3  C   UNL A   1     -26.876   0.813  29.219  0.00  0.00    +0.076 A 
ATOM      4  C   UNL A   1     -28.029   1.478  29.601  0.00  0.00    +0.008 A 
ATOM      5  C   UNL A   1     -29.180   0.771  29.568  0.00  0.00    +0.021 A 
ATOM      6  C   UNL A   1     -29.173  -0.529  29.167  0.00  0.00    +0.101 A 
ATOM      7  N   UNL A   1     -25.651  -0.892  28.440  0.00  0.00    -0.223 NA
ATOM      8  C   UNL A   1     -24.729   0.023  28.464  0.00  0.00    +0.122 C 
ATOM      9  C   UNL A   1     -25.440   1.181  28.984  0.00  0.00    +0.216 C 
ATOM     10  O   UNL A   1     -24.965   2.392  29.273  0.00  0.00    -0.285 OA
ENDROOT
BRANCH   8  11
ATOM     11  C   UNL A   1     -23.317   0.053  28.266  0.00  0.00    +0.021 A 
ATOM     12  C   UNL A   1     -22.477  -0.863  28.979  0.00  0.00    +0.002 A 
ATOM     13  C   UNL A   1     -22.754   1.159  27.577  0.00  0.00    +0.002 A 
ATOM     14  C   UNL A   1     -21.976   1.825  27.863  0.00  0.00    +0.000 A 
ATOM     15  C   UNL A   1     -20.764   0.937  28.354  0.00  0.00    +0.000 A 
ATOM     16  C   UNL A   1     -21.076  -0.261  29.018  0.00  0.00    +0.000 A 
ENDBRANCH   8  11
TORSDOF 1
