MODEL 3294
MODEL 1
REMARK VINA RESULT:    -5.443      0.000      0.000
REMARK INTER + INTRA:          -5.443
REMARK INTER:                  -5.443
REMARK INTRA:                   0.000
REMARK UNBOUND:                 0.000
REMARK  Name = No_3294-gen_results/8p0m/2024-11-26-14-13-15/
REMARK  0 active torsions:
REMARK  status: ('A' for Active; 'I' for Inactive)
REMARK                            x       y       z     vdW  Elec       q    Type
REMARK                         _______ _______ _______ _____ _____    ______ ____
ROOT
ATOM      1  C   UNL A   1     -24.973  -5.314  28.982  0.00  0.00    +0.000 A 
ATOM      2  C   UNL A   1     -25.882  -4.980  29.397  0.00  0.00    +0.000 A 
ATOM      3  C   UNL A   1     -23.937  -4.239  28.737  0.00  0.00    +0.000 A 
ATOM      4  C   UNL A   1     -24.181  -2.927  29.194  0.00  0.00    +0.000 A 
ATOM      5  C   UNL A   1     -26.369  -3.710  29.982  0.00  0.00    +0.000 A 
ATOM      6  C   UNL A   1     -25.440  -2.699  29.781  0.00  0.00    +0.000 A 
ATOM      7  C   UNL A   1     -23.251  -1.872  28.976  0.00  0.00    +0.000 A 
ATOM      8  C   UNL A   1     -23.320  -0.843  29.379  0.00  0.00    +0.000 A 
ATOM      9  C   UNL A   1     -24.599  -0.470  30.074  0.00  0.00    +0.000 A 
ATOM     10  C   UNL A   1     -25.625  -1.347  30.203  0.00  0.00    +0.000 A 
ENDROOT
TORSDOF 0
ENDMDL
ENDMDL
