MODEL 3295
MODEL 1
REMARK VINA RESULT:    -6.502      0.000      0.000
REMARK INTER + INTRA:          -7.444
REMARK INTER:                  -7.262
REMARK INTRA:                  -0.182
REMARK UNBOUND:                -0.182
REMARK  Name = No_3295-gen_results/8p0m/2024-11-26-14-13-15/
REMARK  2 active torsions:
REMARK  status: ('A' for Active; 'I' for Inactive)
REMARK    1  A    between atoms: C_3  and  C_14
REMARK    2  A    between atoms: C_5  and  C_11
REMARK                            x       y       z     vdW  Elec       q    Type
REMARK                         _______ _______ _______ _____ _____    ______ ____
ROOT
ATOM      1  C   UNL A   1     -30.724  -9.532  29.682  0.00  0.00    +0.000 A 
ATOM      2  C   UNL A   1     -30.011 -10.142  30.445  0.00  0.00    +0.006 A 
ATOM      3  C   UNL A   1     -29.777  -9.797  31.765  0.00  0.00    +0.080 A 
ATOM      4  C   UNL A   1     -28.870 -10.458  32.673  0.00  0.00    +0.013 A 
ATOM      5  C   UNL A   1     -28.138 -11.574  32.204  0.00  0.00    +0.080 A 
ATOM      6  C   UNL A   1     -28.335 -11.983  30.859  0.00  0.00    +0.007 A 
ATOM      7  C   UNL A   1     -29.191 -11.276  30.072  0.00  0.00    +0.000 A 
ATOM      8  C   UNL A   1     -30.998 -10.081  28.316  0.00  0.00    +0.000 A 
ATOM      9  C   UNL A   1     -30.135 -11.097  27.810  0.00  0.00    +0.000 A 
ATOM     10  C   UNL A   1     -29.320 -11.755  28.673  0.00  0.00    +0.000 A 
ENDROOT
BRANCH   5  11
ATOM     11  C   UNL A   1     -27.222 -12.311  33.103  0.00  0.00    +0.388 C 
ATOM     12  O   UNL A   1     -26.434 -13.106  32.674  0.00  0.00    -0.241 OA
ATOM     13  O   UNL A   1     -27.434 -12.310  34.464  0.00  0.00    -0.241 OA
ENDBRANCH   5  11
BRANCH   3  14
ATOM     14  C   UNL A   1     -30.421  -8.598  32.358  0.00  0.00    +0.388 C 
ATOM     15  O   UNL A   1     -31.465  -8.590  32.929  0.00  0.00    -0.241 OA
ATOM     16  O   UNL A   1     -29.688  -7.511  32.336  0.00  0.00    -0.241 OA
ENDBRANCH   3  14
TORSDOF 2
ENDMDL
ENDMDL
