REMARK  Name = No_3295-gen_results/8p0m/2024-11-26-14-13-15/
REMARK  2 active torsions:
REMARK  status: ('A' for Active; 'I' for Inactive)
REMARK    1  A    between atoms: C_3  and  C_14
REMARK    2  A    between atoms: C_5  and  C_11
REMARK                            x       y       z     vdW  Elec       q    Type
REMARK                         _______ _______ _______ _____ _____    ______ ____
ROOT
ATOM      1  C   UNL A   1     -28.016  -0.814  28.878  0.00  0.00    +0.000 A 
ATOM      2  C   UNL A   1     -27.064  -0.119  28.608  0.00  0.00    +0.006 A 
ATOM      3  C   UNL A   1     -26.972   0.714  27.506  0.00  0.00    +0.080 A 
ATOM      4  C   UNL A   1     -25.820   1.491  27.116  0.00  0.00    +0.013 A 
ATOM      5  C   UNL A   1     -24.656   1.424  27.918  0.00  0.00    +0.080 A 
ATOM      6  C   UNL A   1     -24.685   0.590  29.066  0.00  0.00    +0.007 A 
ATOM      7  C   UNL A   1     -25.810  -0.127  29.334  0.00  0.00    +0.000 A 
ATOM      8  C   UNL A   1     -28.044  -1.573  30.169  0.00  0.00    +0.000 A 
ATOM      9  C   UNL A   1     -26.817  -1.760  30.870  0.00  0.00    +0.000 A 
ATOM     10  C   UNL A   1     -25.748  -0.992  30.538  0.00  0.00    +0.000 A 
ENDROOT
BRANCH   5  11
ATOM     11  C   UNL A   1     -23.459   2.228  27.584  0.00  0.00    +0.388 C 
ATOM     12  O   UNL A   1     -23.527   3.169  26.845  0.00  0.00    -0.241 OA
ATOM     13  O   UNL A   1     -22.200   1.759  27.887  0.00  0.00    -0.241 OA
ENDBRANCH   5  11
BRANCH   3  14
ATOM     14  C   UNL A   1     -28.095   0.814  26.540  0.00  0.00    +0.388 C 
ATOM     15  O   UNL A   1     -28.015   0.617  25.370  0.00  0.00    -0.241 OA
ATOM     16  O   UNL A   1     -29.272   1.014  27.083  0.00  0.00    -0.241 OA
ENDBRANCH   3  14
TORSDOF 2
