MODEL 3296
MODEL 1
REMARK VINA RESULT:    -8.502      0.000      0.000
REMARK INTER + INTRA:         -12.844
REMARK INTER:                 -11.981
REMARK INTRA:                  -0.863
REMARK UNBOUND:                -0.863
REMARK  Name = No_3296-gen_results/8p0m/2024-11-26-14-13-15/
REMARK  7 active torsions:
REMARK  status: ('A' for Active; 'I' for Inactive)
REMARK    1  A    between atoms: C_2  and  C_17
REMARK    2  A    between atoms: C_5  and  N_7
REMARK    3  A    between atoms: N_7  and  C_8
REMARK    4  A    between atoms: C_18  and  C_23
REMARK    5  A    between atoms: N_24  and  CA_25
REMARK    6  A    between atoms: CA_25  and  C_26
REMARK    7  A    between atoms: CA_25  and  C_33
REMARK                            x       y       z     vdW  Elec       q    Type
REMARK                         _______ _______ _______ _____ _____    ______ ____
ROOT
ATOM      1  C   UNL A   1     -24.266   1.193  26.197  0.00  0.00    +0.004 A 
ATOM      2  C   UNL A   1     -23.686   0.988  27.088  0.00  0.00    +0.055 A 
ATOM      3  C   UNL A   1     -22.284   1.393  27.392  0.00  0.00    +0.005 A 
ATOM      4  C   UNL A   1     -21.653   2.064  26.367  0.00  0.00    +0.000 A 
ATOM      5  C   UNL A   1     -23.553   1.979  25.081  0.00  0.00    +0.000 A 
ATOM      6  C   UNL A   1     -22.304   2.366  25.244  0.00  0.00    +0.000 A 
ENDROOT
BRANCH   1   8
ATOM      7  C   UNL A   1     -26.093   0.008  25.084  0.00  0.00    +0.001 A 
ATOM      8  C   UNL A   1     -25.790   0.924  25.813  0.00  0.00    +0.000 A 
ATOM      9  C   UNL A   1     -26.637   1.946  26.203  0.00  0.00    +0.001 A 
ATOM     10  C   UNL A   1     -27.981   1.892  25.728  0.00  0.00    +0.015 A 
ATOM     11  C   UNL A   1     -28.324   0.782  25.043  0.00  0.00    +0.061 A 
ATOM     12  C   UNL A   1     -27.445  -0.191  24.795  0.00  0.00    +0.015 A 
BRANCH  11  13
ATOM     13  N   UNL A   1     -29.652   0.728  24.638  0.00  0.00    -0.201 N 
ATOM     14  C   UNL A   1     -30.260  -0.635  25.027  0.00  0.00    +0.455 C 
ATOM     15  O   UNL A   1     -30.510  -1.449  24.240  0.00  0.00    -0.222 OA
ATOM     16  O   UNL A   1     -30.788  -0.663  26.257  0.00  0.00    -0.222 OA
BRANCH  13  17
ATOM     17  C   UNL A   1     -30.316   1.510  24.147  0.00  0.00    +0.061 A 
ATOM     18  C   UNL A   1     -30.371   1.662  22.806  0.00  0.00    +0.015 A 
ATOM     19  C   UNL A   1     -31.188   2.404  24.996  0.00  0.00    +0.015 A 
ATOM     20  C   UNL A   1     -31.263   2.646  22.150  0.00  0.00    +0.001 A 
ATOM     21  C   UNL A   1     -32.054   3.347  24.344  0.00  0.00    +0.001 A 
ATOM     22  C   UNL A   1     -32.100   3.430  22.976  0.00  0.00    +0.000 A 
ENDBRANCH  13  17
ENDBRANCH  11  13
ENDBRANCH   1   8
BRANCH   2  23
ATOM     23  C   UNL A   1     -24.270   0.249  28.342  0.00  0.00    +0.265 C 
ATOM     24  N   UNL A   1     -23.885  -0.708  28.848  0.00  0.00    -0.196 NA
ATOM     25  O   UNL A   1     -25.537   0.580  28.622  0.00  0.00    -0.268 OA
BRANCH  24  26
ATOM     26  CA  UNL A   1     -24.444  -1.369  29.878  0.00  0.00    +0.151 C 
BRANCH  26  27
ATOM     27  C   UNL A   1     -24.928  -2.591  29.697  0.00  0.00    +0.000 A 
ATOM     28  C   UNL A   1     -25.866  -3.120  29.981  0.00  0.00    -0.003 A 
ATOM     29  C   UNL A   1     -26.366  -4.468  29.719  0.00  0.00    -0.000 A 
ATOM     30  C   UNL A   1     -25.430  -5.296  29.041  0.00  0.00    -0.000 A 
ATOM     31  C   UNL A   1     -24.210  -4.817  28.680  0.00  0.00    -0.000 A 
ATOM     32  C   UNL A   1     -23.850  -3.501  28.948  0.00  0.00    -0.003 A 
ENDBRANCH  26  27
BRANCH  26  33
ATOM     33  C   UNL A   1     -24.146  -0.729  31.208  0.00  0.00    +0.208 C 
ATOM     34  O   UNL A   1     -24.003  -1.455  32.132  0.00  0.00    -0.218 OA
ENDBRANCH  26  33
ENDBRANCH  24  26
ENDBRANCH   2  23
TORSDOF 7
ENDMDL
ENDMDL
