REMARK  Name = No_3296-gen_results/8p0m/2024-11-26-14-13-15/
REMARK  7 active torsions:
REMARK  status: ('A' for Active; 'I' for Inactive)
REMARK    1  A    between atoms: C_2  and  C_17
REMARK    2  A    between atoms: C_5  and  N_7
REMARK    3  A    between atoms: N_7  and  C_8
REMARK    4  A    between atoms: C_18  and  C_23
REMARK    5  A    between atoms: N_24  and  CA_25
REMARK    6  A    between atoms: CA_25  and  C_26
REMARK    7  A    between atoms: CA_25  and  C_33
REMARK                            x       y       z     vdW  Elec       q    Type
REMARK                         _______ _______ _______ _____ _____    ______ ____
ROOT
ATOM      1  C   UNL A   1     -25.678  -0.296  29.376  0.00  0.00    +0.004 A 
ATOM      2  C   UNL A   1     -24.985   0.411  29.814  0.00  0.00    +0.055 A 
ATOM      3  C   UNL A   1     -23.645   0.145  30.410  0.00  0.00    +0.005 A 
ATOM      4  C   UNL A   1     -23.294  -1.187  30.443  0.00  0.00    +0.000 A 
ATOM      5  C   UNL A   1     -25.246  -1.775  29.388  0.00  0.00    +0.000 A 
ATOM      6  C   UNL A   1     -24.087  -2.117  29.911  0.00  0.00    +0.000 A 
ENDROOT
BRANCH   1   8
ATOM      7  C   UNL A   1     -28.016  -0.814  28.878  0.00  0.00    +0.001 A 
ATOM      8  C   UNL A   1     -27.064  -0.119  28.608  0.00  0.00    +0.000 A 
ATOM      9  C   UNL A   1     -26.972   0.714  27.506  0.00  0.00    +0.001 A 
ATOM     10  C   UNL A   1     -28.105   0.774  26.642  0.00  0.00    +0.015 A 
ATOM     11  C   UNL A   1     -29.201   0.104  27.053  0.00  0.00    +0.061 A 
ATOM     12  C   UNL A   1     -29.210  -0.603  28.185  0.00  0.00    +0.015 A 
BRANCH  11  13
ATOM     13  N   UNL A   1     -30.308   0.222  26.222  0.00  0.00    -0.201 N 
ATOM     14  C   UNL A   1     -30.564  -1.118  25.502  0.00  0.00    +0.455 C 
ATOM     15  O   UNL A   1     -30.357  -1.263  24.371  0.00  0.00    -0.222 OA
ATOM     16  O   UNL A   1     -31.350  -1.960  26.185  0.00  0.00    -0.222 OA
BRANCH  13  17
ATOM     17  C   UNL A   1     -31.028   1.086  26.054  0.00  0.00    +0.061 A 
ATOM     18  C   UNL A   1     -31.113   2.125  26.913  0.00  0.00    +0.015 A 
ATOM     19  C   UNL A   1     -31.912   1.107  24.830  0.00  0.00    +0.015 A 
ATOM     20  C   UNL A   1     -32.014   3.278  26.685  0.00  0.00    +0.001 A 
ATOM     21  C   UNL A   1     -32.774   2.237  24.618  0.00  0.00    +0.001 A 
ATOM     22  C   UNL A   1     -32.790   3.285  25.503  0.00  0.00    +0.000 A 
ENDBRANCH  13  17
ENDBRANCH  11  13
ENDBRANCH   1   8
BRANCH   2  23
ATOM     23  C   UNL A   1     -25.238   1.959  29.837  0.00  0.00    +0.265 C 
ATOM     24  N   UNL A   1     -26.242   2.516  29.804  0.00  0.00    -0.196 NA
ATOM     25  O   UNL A   1     -24.163   2.686  29.510  0.00  0.00    -0.268 OA
BRANCH  24  26
ATOM     26  CA  UNL A   1     -26.436   3.847  29.749  0.00  0.00    +0.151 C 
BRANCH  26  27
ATOM     27  C   UNL A   1     -27.080   4.381  28.719  0.00  0.00    +0.000 A 
ATOM     28  C   UNL A   1     -27.645   3.982  27.846  0.00  0.00    -0.003 A 
ATOM     29  C   UNL A   1     -28.372   4.624  26.753  0.00  0.00    -0.000 A 
ATOM     30  C   UNL A   1     -28.262   6.042  26.758  0.00  0.00    -0.000 A 
ATOM     31  C   UNL A   1     -27.551   6.682  27.725  0.00  0.00    -0.000 A 
ATOM     32  C   UNL A   1     -26.926   5.971  28.743  0.00  0.00    -0.003 A 
ENDBRANCH  26  27
BRANCH  26  33
ATOM     33  C   UNL A   1     -26.160   4.528  31.063  0.00  0.00    +0.208 C 
ATOM     34  O   UNL A   1     -27.084   4.694  31.785  0.00  0.00    -0.218 OA
ENDBRANCH  26  33
ENDBRANCH  24  26
ENDBRANCH   2  23
TORSDOF 7
