MODEL 3297
MODEL 1
REMARK VINA RESULT:    -6.452      0.000      0.000
REMARK INTER + INTRA:          -7.026
REMARK INTER:                  -6.829
REMARK INTRA:                  -0.197
REMARK UNBOUND:                -0.197
REMARK  Name = No_3297-gen_results/8p0m/2024-11-26-14-13-15/
REMARK  1 active torsions:
REMARK  status: ('A' for Active; 'I' for Inactive)
REMARK    1  A    between atoms: C_9  and  C_11
REMARK                            x       y       z     vdW  Elec       q    Type
REMARK                         _______ _______ _______ _____ _____    ______ ____
ROOT
ATOM      1  C   UNL A   1     -26.463  -3.383  29.998  0.00  0.00    -0.000 A 
ATOM      2  C   UNL A   1     -25.549  -2.596  29.911  0.00  0.00    -0.000 A 
ATOM      3  C   UNL A   1     -24.324  -2.976  29.375  0.00  0.00    -0.000 A 
ATOM      4  C   UNL A   1     -24.090  -4.331  28.948  0.00  0.00    -0.000 A 
ATOM      5  C   UNL A   1     -25.193  -5.180  29.106  0.00  0.00    -0.000 A 
ATOM      6  C   UNL A   1     -26.325  -4.776  29.635  0.00  0.00    -0.000 A 
ATOM      7  C   UNL A   1     -25.603  -1.168  30.326  0.00  0.00    -0.000 A 
ATOM      8  C   UNL A   1     -24.925  -0.241  29.748  0.00  0.00    +0.004 A 
ATOM      9  C   UNL A   1     -23.591  -0.628  29.120  0.00  0.00    +0.071 A 
ATOM     10  C   UNL A   1     -23.373  -1.969  28.830  0.00  0.00    +0.004 A 
ENDROOT
BRANCH   9  11
ATOM     11  C   UNL A   1     -22.625   0.391  28.731  0.00  0.00    +0.419 C 
ATOM     12  F   UNL A   1     -21.496   0.015  28.703  0.00  0.00    -0.166 F 
ATOM     13  F   UNL A   1     -22.810   1.508  29.529  0.00  0.00    -0.166 F 
ATOM     14  F   UNL A   1     -22.785   0.744  27.403  0.00  0.00    -0.166 F 
ENDBRANCH   9  11
TORSDOF 1
ENDMDL
ENDMDL
