MODEL 3298
MODEL 1
REMARK VINA RESULT:    -5.765      0.000      0.000
REMARK INTER + INTRA:          -8.403
REMARK INTER:                  -7.787
REMARK INTRA:                  -0.616
REMARK UNBOUND:                -0.616
REMARK  Name = No_3298-gen_results/8p0m/2024-11-26-14-13-15/
REMARK  6 active torsions:
REMARK  status: ('A' for Active; 'I' for Inactive)
REMARK    1  A    between atoms: C_3  and  C_7
REMARK    2  A    between atoms: C_6  and  O_13
REMARK    3  A    between atoms: O_13  and  C_14
REMARK    4  A    between atoms: C_14  and  C_15
REMARK    5  A    between atoms: C_15  and  N_17
REMARK    6  A    between atoms: N_17  and  C_18
REMARK                            x       y       z     vdW  Elec       q    Type
REMARK                         _______ _______ _______ _____ _____    ______ ____
ROOT
ATOM      1  C   UNL A   1      -8.489   0.267  35.249  0.00  0.00    +0.037 A 
ATOM      2  C   UNL A   1      -8.853  -0.403  36.187  0.00  0.00    +0.003 A 
ATOM      3  C   UNL A   1     -10.132  -0.329  36.738  0.00  0.00    +0.000 A 
ATOM      4  C   UNL A   1     -11.074   0.638  36.208  0.00  0.00    +0.003 A 
ATOM      5  C   UNL A   1     -10.607   1.402  35.140  0.00  0.00    +0.037 A 
ATOM      6  C   UNL A   1      -9.374   1.274  34.688  0.00  0.00    +0.139 A 
ENDROOT
BRANCH   3   7
ATOM      7  C   UNL A   1     -10.662  -1.123  37.892  0.00  0.00    +0.000 A 
ATOM      8  C   UNL A   1     -11.617  -1.996  37.740  0.00  0.00    +0.000 A 
ATOM      9  C   UNL A   1     -12.176  -2.684  38.859  0.00  0.00    +0.000 A 
ATOM     10  C   UNL A   1     -11.869  -2.350  40.156  0.00  0.00    +0.000 A 
ATOM     11  C   UNL A   1     -10.280  -0.769  39.267  0.00  0.00    +0.000 A 
ATOM     12  C   UNL A   1     -10.887  -1.424  40.364  0.00  0.00    +0.000 A 
ENDBRANCH   3   7
BRANCH   6  13
ATOM     13  O   UNL A   1      -8.967   2.082  33.659  0.00  0.00    -0.469 OA
BRANCH  13  14
ATOM     14  C   UNL A   1      -8.842   3.379  33.783  0.00  0.00    +0.248 C 
BRANCH  14  15
ATOM     15  C   UNL A   1      -8.401   3.946  32.595  0.00  0.00    +0.092 C 
ATOM     16  C   UNL A   1      -8.249   5.283  32.478  0.00  0.00    +0.017 C 
BRANCH  15  17
ATOM     17  N   UNL A   1      -7.073   3.317  32.186  0.00  0.00    -0.212 NA
BRANCH  17  18
ATOM     18  C   UNL A   1      -6.052   4.011  31.963  0.00  0.00    +0.085 C 
ATOM     19  C   UNL A   1      -4.860   3.418  31.567  0.00  0.00    +0.019 C 
ENDBRANCH  17  18
ENDBRANCH  15  17
ENDBRANCH  14  15
ENDBRANCH  13  14
ENDBRANCH   6  13
TORSDOF 6
ENDMDL
ENDMDL
