MODEL 3299
MODEL 1
REMARK VINA RESULT:    -6.463      0.000      0.000
REMARK INTER + INTRA:         -13.702
REMARK INTER:                  -9.864
REMARK INTRA:                  -3.838
REMARK UNBOUND:                -3.838
REMARK  Name = No_3299-gen_results/8p0m/2024-11-26-14-13-15/
REMARK  9 active torsions:
REMARK  status: ('A' for Active; 'I' for Inactive)
REMARK    1  A    between atoms: C_1  and  O_18
REMARK    2  A    between atoms: C_3  and  C_4
REMARK    3  A    between atoms: C_6  and  C_13
REMARK    4  A    between atoms: C_12  and  O_16
REMARK    5  A    between atoms: O_18  and  C_19
REMARK    6  A    between atoms: C_19  and  C_20
REMARK    7  A    between atoms: C_19  and  C_23
REMARK    8  A    between atoms: C_23  and  C_24
REMARK    9  A    between atoms: C_24  and  C_25
REMARK                            x       y       z     vdW  Elec       q    Type
REMARK                         _______ _______ _______ _____ _____    ______ ____
ROOT
ATOM      1  C   UNL A   1     -24.156  -1.013  28.038  0.00  0.00    +0.145 A 
ATOM      2  C   UNL A   1     -25.100  -0.641  27.380  0.00  0.00    +0.037 A 
ATOM      3  C   UNL A   1     -25.117   0.624  26.801  0.00  0.00    +0.003 A 
ATOM      4  C   UNL A   1     -23.088  -0.068  28.398  0.00  0.00    +0.114 A 
ATOM      5  C   UNL A   1     -22.977   1.165  27.825  0.00  0.00    +0.010 A 
ATOM      6  C   UNL A   1     -24.021   1.571  26.977  0.00  0.00    +0.000 A 
ENDROOT
BRANCH   3   7
ATOM      7  C   UNL A   1     -26.220   1.202  25.981  0.00  0.00    +0.003 A 
ATOM      8  C   UNL A   1     -26.546   2.600  25.890  0.00  0.00    +0.000 A 
ATOM      9  C   UNL A   1     -27.581   2.975  25.083  0.00  0.00    +0.003 A 
ATOM     10  C   UNL A   1     -28.205   2.234  24.132  0.00  0.00    +0.037 A 
ATOM     11  C   UNL A   1     -26.915   0.377  25.005  0.00  0.00    +0.037 A 
ATOM     12  C   UNL A   1     -27.867   0.904  24.133  0.00  0.00    +0.139 A 
BRANCH  12  13
ATOM     13  O   UNL A   1     -28.435   0.032  23.265  0.00  0.00    -0.471 OA
ATOM     14  C   UNL A   1     -29.069  -1.081  23.835  0.00  0.00    +0.253 C 
ENDBRANCH  12  13
ENDBRANCH   3   7
BRANCH   4  15
ATOM     15  C   UNL A   1     -21.945  -0.464  29.294  0.00  0.00    +0.391 C 
ATOM     16  O   UNL A   1     -22.174  -0.416  30.492  0.00  0.00    -0.240 OA
ATOM     17  O   UNL A   1     -20.962  -1.054  28.895  0.00  0.00    -0.240 OA
ENDBRANCH   4  15
BRANCH   1  18
ATOM     18  O   UNL A   1     -24.037  -2.099  28.740  0.00  0.00    -0.468 OA
BRANCH  18  19
ATOM     19  C   UNL A   1     -25.215  -2.591  29.303  0.00  0.00    +0.268 C 
BRANCH  19  20
ATOM     20  C   UNL A   1     -25.259  -4.015  29.354  0.00  0.00    +0.404 C 
ATOM     21  O   UNL A   1     -24.233  -4.600  29.255  0.00  0.00    -0.242 OA
ATOM     22  O   UNL A   1     -26.343  -4.559  29.612  0.00  0.00    -0.242 OA
ENDBRANCH  19  20
BRANCH  19  23
ATOM     23  C   UNL A   1     -25.416  -1.999  30.741  0.00  0.00    +0.060 C 
BRANCH  23  24
ATOM     24  C   UNL A   1     -26.354  -1.190  31.050  0.00  0.00    +0.031 C 
BRANCH  24  25
ATOM     25  C   UNL A   1     -26.322   0.050  30.705  0.00  0.00    -0.022 A 
ATOM     26  C   UNL A   1     -25.243   0.938  31.104  0.00  0.00    -0.004 A 
ATOM     27  C   UNL A   1     -25.174   2.239  30.629  0.00  0.00    -0.000 A 
ATOM     28  C   UNL A   1     -26.271   2.766  29.811  0.00  0.00    -0.000 A 
ATOM     29  C   UNL A   1     -27.359   1.943  29.505  0.00  0.00    -0.000 A 
ATOM     30  C   UNL A   1     -27.357   0.676  29.874  0.00  0.00    -0.004 A 
ENDBRANCH  24  25
ENDBRANCH  23  24
ENDBRANCH  19  23
ENDBRANCH  18  19
ENDBRANCH   1  18
TORSDOF 9
ENDMDL
ENDMDL
