MODEL 329
MODEL 1
REMARK VINA RESULT:    -6.101      0.000      0.000
REMARK INTER + INTRA:          -9.070
REMARK INTER:                  -7.885
REMARK INTRA:                  -1.185
REMARK UNBOUND:                -1.185
REMARK  Name = No_329-gen_results/8p0m/2024-11-26-14-13-15/
REMARK  5 active torsions:
REMARK  status: ('A' for Active; 'I' for Inactive)
REMARK    1  A    between atoms: C_3  and  C_8
REMARK    2  A    between atoms: C_8  and  C_9
REMARK    3  A    between atoms: C_9  and  C_10
REMARK    4  A    between atoms: C_10  and  C_13
REMARK    5  A    between atoms: C_14  and  C_15
REMARK                            x       y       z     vdW  Elec       q    Type
REMARK                         _______ _______ _______ _____ _____    ______ ____
ROOT
ATOM      1  C   UNL A   1     -22.078   0.380  28.565  0.00  0.00    +0.008 C 
ATOM      2  C   UNL A   1     -20.709  -0.118  28.434  0.00  0.00    +0.001 C 
ENDROOT
BRANCH   1   3
ATOM      3  C   UNL A   1     -22.958  -0.195  29.328  0.00  0.00    +0.022 C 
ATOM      4  C   UNL A   1     -23.382   0.227  30.321  0.00  0.00    +0.005 C 
BRANCH   3   5
ATOM      5  C   UNL A   1     -23.212  -1.569  28.873  0.00  0.00    -0.026 C 
ATOM      6  C   UNL A   1     -23.943  -2.431  29.309  0.00  0.00    -0.005 C 
BRANCH   6   7
ATOM      7  C   UNL A   1     -24.082  -3.782  28.864  0.00  0.00    -0.005 C 
ATOM      8  C   UNL A   1     -25.249  -4.359  29.185  0.00  0.00    -0.026 C 
ATOM      9  C   UNL A   1     -26.271  -3.669  29.792  0.00  0.00    +0.031 C 
ENDBRANCH   6   7
ENDBRANCH   3   5
ENDBRANCH   1   3
BRANCH   1  10
ATOM     10  C   UNL A   1     -22.349   1.508  27.824  0.00  0.00    +0.027 C 
BRANCH  10  13
ATOM     11  C   UNL A   1     -25.183   0.940  25.552  0.00  0.00    +0.042 A 
ATOM     12  C   UNL A   1     -24.118   0.758  26.095  0.00  0.00    -0.001 A 
ATOM     13  C   UNL A   1     -23.650   1.632  27.070  0.00  0.00    -0.022 A 
ATOM     14  C   UNL A   1     -24.399   2.808  27.432  0.00  0.00    -0.001 A 
ATOM     15  C   UNL A   1     -25.608   2.954  26.738  0.00  0.00    +0.042 A 
ATOM     16  C   UNL A   1     -25.997   2.107  25.812  0.00  0.00    +0.196 A 
ATOM     17  O   UNL A   1     -27.167   2.343  25.158  0.00  0.00    -0.287 OA
ENDBRANCH  10  13
ENDBRANCH   1  10
TORSDOF 5
ENDMDL
ENDMDL
