MODEL 32
MODEL 1
REMARK VINA RESULT:    -7.025      0.000      0.000
REMARK INTER + INTRA:          -8.293
REMARK INTER:                  -7.846
REMARK INTRA:                  -0.447
REMARK UNBOUND:                -0.447
REMARK  Name = No_32-gen_results/8p0m/2024-11-26-14-13-15/
REMARK  2 active torsions:
REMARK  status: ('A' for Active; 'I' for Inactive)
REMARK    1  A    between atoms: C_2  and  C_13
REMARK    2  A    between atoms: C_4  and  C_7
REMARK                            x       y       z     vdW  Elec       q    Type
REMARK                         _______ _______ _______ _____ _____    ______ ____
ROOT
ATOM      1  C   UNL A   1     -27.614 -12.200  31.994  0.00  0.00    +0.007 A 
ATOM      2  C   UNL A   1     -28.073 -11.588  32.719  0.00  0.00    +0.080 A 
ATOM      3  C   UNL A   1     -28.126 -12.091  30.619  0.00  0.00    +0.000 A 
ATOM      4  C   UNL A   1     -29.095 -11.101  30.283  0.00  0.00    +0.000 A 
ATOM      5  C   UNL A   1     -29.557 -10.334  31.323  0.00  0.00    +0.000 A 
ATOM      6  C   UNL A   1     -29.070 -10.494  32.571  0.00  0.00    +0.007 A 
ENDROOT
BRANCH   4   7
ATOM      7  C   UNL A   1     -29.552 -11.199  28.954  0.00  0.00    +0.000 A 
ATOM      8  C   UNL A   1     -29.134 -11.965  28.187  0.00  0.00    +0.000 A 
ATOM      9  C   UNL A   1     -30.615 -10.334  28.497  0.00  0.00    +0.000 A 
ATOM     10  C   UNL A   1     -30.942 -10.371  27.076  0.00  0.00    +0.000 A 
ATOM     11  C   UNL A   1     -29.352 -12.058  26.734  0.00  0.00    +0.000 A 
ATOM     12  C   UNL A   1     -30.341 -11.257  26.277  0.00  0.00    +0.000 A 
ENDBRANCH   4   7
BRANCH   2  13
ATOM     13  C   UNL A   1     -27.570 -11.647  34.241  0.00  0.00    +0.388 C 
ATOM     14  O   UNL A   1     -27.929 -12.520  34.806  0.00  0.00    -0.241 OA
ATOM     15  O   UNL A   1     -26.828 -10.702  34.755  0.00  0.00    -0.241 OA
ENDBRANCH   2  13
TORSDOF 2
ENDMDL
ENDMDL
