REMARK  Name = No_33-gen_results/8p0m/2024-11-26-14-13-15/
REMARK  0 active torsions:
REMARK  status: ('A' for Active; 'I' for Inactive)
REMARK                            x       y       z     vdW  Elec       q    Type
REMARK                         _______ _______ _______ _____ _____    ______ ____
ROOT
ATOM      1  C   UNL A   1     -28.016  -0.814  28.878  0.00  0.00    -0.003 A 
ATOM      2  C   UNL A   1     -28.469  -0.785  29.829  0.00  0.00    +0.019 A 
ATOM      3  C   UNL A   1     -27.087   0.290  28.638  0.00  0.00    -0.019 A 
ATOM      4  C   UNL A   1     -26.252   0.411  27.422  0.00  0.00    +0.027 C 
ATOM      5  C   UNL A   1     -28.391   0.104  30.980  0.00  0.00    +0.003 A 
ATOM      6  C   UNL A   1     -27.533   1.167  30.787  0.00  0.00    +0.003 A 
ATOM      7  C   UNL A   1     -26.828   1.256  29.645  0.00  0.00    +0.031 A 
ATOM      8  C   UNL A   1     -25.644   1.665  27.222  0.00  0.00    +0.013 C 
ATOM      9  C   UNL A   1     -25.391   2.560  28.229  0.00  0.00    +0.070 C 
ATOM     10  C   UNL A   1     -26.098   2.444  29.409  0.00  0.00    +0.173 C 
ATOM     11  O   UNL A   1     -25.892   3.385  30.340  0.00  0.00    -0.291 OA
ATOM     12  C   UNL A   1     -29.459  -2.050  30.222  0.00  0.00    +0.099 A 
ATOM     13  N   UNL A   1     -29.928  -2.087  31.444  0.00  0.00    -0.242 NA
ATOM     14  C   UNL A   1     -29.834  -1.182  32.433  0.00  0.00    +0.099 A 
ATOM     15  C   UNL A   1     -29.073  -0.140  32.271  0.00  0.00    +0.021 A 
ENDROOT
TORSDOF 0
