MODEL 3300
MODEL 1
REMARK VINA RESULT:    -6.636      0.000      0.000
REMARK INTER + INTRA:          -8.564
REMARK INTER:                  -7.800
REMARK INTRA:                  -0.764
REMARK UNBOUND:                -0.764
REMARK  Name = No_3300-gen_results/8p0m/2024-11-26-14-13-15/
REMARK  3 active torsions:
REMARK  status: ('A' for Active; 'I' for Inactive)
REMARK    1  A    between atoms: C_3  and  C_7
REMARK    2  A    between atoms: C_7  and  C_8
REMARK    3  A    between atoms: C_7  and  C_14
REMARK                            x       y       z     vdW  Elec       q    Type
REMARK                         _______ _______ _______ _____ _____    ______ ____
ROOT
ATOM      1  C   UNL A   1     -24.270  -1.333  29.849  0.00  0.00    +0.085 C 
ENDROOT
BRANCH   1   4
ATOM      2  C   UNL A   1     -23.777  -3.638  28.804  0.00  0.00    -0.004 A 
ATOM      3  C   UNL A   1     -24.177  -4.604  28.665  0.00  0.00    -0.000 A 
ATOM      4  C   UNL A   1     -24.674  -2.731  29.519  0.00  0.00    -0.013 A 
ATOM      5  C   UNL A   1     -25.907  -3.131  29.974  0.00  0.00    -0.004 A 
ATOM      6  C   UNL A   1     -25.414  -5.293  29.029  0.00  0.00    -0.000 A 
ATOM      7  C   UNL A   1     -26.289  -4.424  29.722  0.00  0.00    -0.000 A 
ENDBRANCH   1   4
BRANCH   1   8
ATOM      8  C   UNL A   1     -23.665  -0.641  28.805  0.00  0.00    -0.013 A 
ATOM      9  C   UNL A   1     -24.621  -0.084  27.849  0.00  0.00    -0.004 A 
ATOM     10  C   UNL A   1     -24.159   1.027  27.077  0.00  0.00    -0.000 A 
ATOM     11  C   UNL A   1     -22.834   1.496  27.206  0.00  0.00    -0.000 A 
ATOM     12  C   UNL A   1     -21.957   0.854  28.101  0.00  0.00    -0.000 A 
ATOM     13  C   UNL A   1     -22.397  -0.127  28.967  0.00  0.00    -0.004 A 
ENDBRANCH   1   8
BRANCH   1  14
ATOM     14  C   UNL A   1     -24.728  -0.789  31.033  0.00  0.00    +0.075 C 
ATOM     15  N   UNL A   1     -24.330  -0.665  32.017  0.00  0.00    -0.271 NA
ATOM     16  C   UNL A   1     -25.007  -0.087  33.096  0.00  0.00    +0.151 C 
ENDBRANCH   1  14
TORSDOF 3
ENDMDL
ENDMDL
