REMARK  Name = No_3300-gen_results/8p0m/2024-11-26-14-13-15/
REMARK  3 active torsions:
REMARK  status: ('A' for Active; 'I' for Inactive)
REMARK    1  A    between atoms: C_3  and  C_7
REMARK    2  A    between atoms: C_7  and  C_8
REMARK    3  A    between atoms: C_7  and  C_14
REMARK                            x       y       z     vdW  Elec       q    Type
REMARK                         _______ _______ _______ _____ _____    ______ ____
ROOT
ATOM      1  C   UNL A   1     -26.317   0.399  27.365  0.00  0.00    +0.085 C 
ENDROOT
BRANCH   1   4
ATOM      2  C   UNL A   1     -28.016  -0.814  28.878  0.00  0.00    -0.004 A 
ATOM      3  C   UNL A   1     -28.469  -0.785  29.829  0.00  0.00    -0.000 A 
ATOM      4  C   UNL A   1     -27.087   0.290  28.638  0.00  0.00    -0.013 A 
ATOM      5  C   UNL A   1     -26.832   1.249  29.587  0.00  0.00    -0.004 A 
ATOM      6  C   UNL A   1     -28.391   0.080  31.006  0.00  0.00    -0.000 A 
ATOM      7  C   UNL A   1     -27.494   1.152  30.784  0.00  0.00    -0.000 A 
ENDBRANCH   1   4
BRANCH   1   8
ATOM      8  C   UNL A   1     -24.941   0.255  27.503  0.00  0.00    -0.013 A 
ATOM      9  C   UNL A   1     -24.190   0.722  26.338  0.00  0.00    -0.004 A 
ATOM     10  C   UNL A   1     -22.828   1.087  26.576  0.00  0.00    -0.000 A 
ATOM     11  C   UNL A   1     -22.252   0.935  27.855  0.00  0.00    -0.000 A 
ATOM     12  C   UNL A   1     -23.028   0.410  28.906  0.00  0.00    -0.000 A 
ATOM     13  C   UNL A   1     -24.381   0.178  28.760  0.00  0.00    -0.004 A 
ENDBRANCH   1   8
BRANCH   1  14
ATOM     14  C   UNL A   1     -27.024   0.393  26.178  0.00  0.00    +0.075 C 
ATOM     15  N   UNL A   1     -27.668   1.080  25.673  0.00  0.00    -0.271 NA
ATOM     16  C   UNL A   1     -28.309   0.840  24.453  0.00  0.00    +0.151 C 
ENDBRANCH   1  14
TORSDOF 3
