MODEL 3301
MODEL 1
REMARK VINA RESULT:    -7.211      0.000      0.000
REMARK INTER + INTRA:          -9.703
REMARK INTER:                  -8.897
REMARK INTRA:                  -0.806
REMARK UNBOUND:                -0.806
REMARK  Name = No_3301-gen_results/8p0m/2024-11-26-14-13-15/
REMARK  4 active torsions:
REMARK  status: ('A' for Active; 'I' for Inactive)
REMARK    1  A    between atoms: C_3  and  C_4
REMARK    2  A    between atoms: C_4  and  C_8
REMARK    3  A    between atoms: C_8  and  C_9
REMARK    4  A    between atoms: C_8  and  C_15
REMARK                            x       y       z     vdW  Elec       q    Type
REMARK                         _______ _______ _______ _____ _____    ______ ____
ROOT
ATOM      1  C   UNL A   1     -23.514  -0.700  29.420  0.00  0.00    +0.027 C 
ENDROOT
BRANCH   1   2
ATOM      2  C   UNL A   1     -23.389   0.251  28.472  0.00  0.00    -0.022 A 
ATOM      3  C   UNL A   1     -22.318   1.048  28.122  0.00  0.00    -0.004 A 
ATOM      4  C   UNL A   1     -22.256   1.890  27.020  0.00  0.00    -0.000 A 
ATOM      5  C   UNL A   1     -23.330   1.861  26.121  0.00  0.00    -0.000 A 
ATOM      6  C   UNL A   1     -24.353   0.193  27.335  0.00  0.00    -0.004 A 
ATOM      7  C   UNL A   1     -24.368   1.028  26.295  0.00  0.00    -0.000 A 
ENDBRANCH   1   2
BRANCH   1   8
ATOM      8  C   UNL A   1     -23.771  -0.433  30.750  0.00  0.00    +0.005 C 
ATOM      9  C   UNL A   1     -22.977  -0.826  31.626  0.00  0.00    +0.000 C 
ENDBRANCH   1   8
BRANCH   1  10
ATOM     10  C   UNL A   1     -23.346  -2.082  28.942  0.00  0.00    +0.031 C 
BRANCH  10  13
ATOM     11  C   UNL A   1     -25.812  -2.642  29.633  0.00  0.00    -0.004 A 
ATOM     12  C   UNL A   1     -26.460  -3.446  29.840  0.00  0.00    -0.000 A 
ATOM     13  C   UNL A   1     -24.464  -2.988  29.154  0.00  0.00    -0.022 A 
ATOM     14  C   UNL A   1     -26.363  -4.617  29.646  0.00  0.00    -0.000 A 
ATOM     15  C   UNL A   1     -25.161  -5.254  29.188  0.00  0.00    -0.000 A 
ATOM     16  C   UNL A   1     -24.141  -4.386  28.905  0.00  0.00    -0.004 A 
ENDBRANCH  10  13
ENDBRANCH   1  10
TORSDOF 4
ENDMDL
ENDMDL
