REMARK  Name = No_3301-gen_results/8p0m/2024-11-26-14-13-15/
REMARK  4 active torsions:
REMARK  status: ('A' for Active; 'I' for Inactive)
REMARK    1  A    between atoms: C_3  and  C_4
REMARK    2  A    between atoms: C_4  and  C_8
REMARK    3  A    between atoms: C_8  and  C_9
REMARK    4  A    between atoms: C_8  and  C_15
REMARK                            x       y       z     vdW  Elec       q    Type
REMARK                         _______ _______ _______ _____ _____    ______ ____
ROOT
ATOM      1  C   UNL A   1     -25.188   0.566  27.338  0.00  0.00    +0.027 C 
ENDROOT
BRANCH   1   2
ATOM      2  C   UNL A   1     -23.957   0.857  27.805  0.00  0.00    -0.022 A 
ATOM      3  C   UNL A   1     -23.182   0.239  28.766  0.00  0.00    -0.004 A 
ATOM      4  C   UNL A   1     -21.858   0.536  29.058  0.00  0.00    -0.000 A 
ATOM      5  C   UNL A   1     -21.209   1.474  28.244  0.00  0.00    -0.000 A 
ATOM      6  C   UNL A   1     -23.082   1.680  26.920  0.00  0.00    -0.004 A 
ATOM      7  C   UNL A   1     -21.829   2.043  27.199  0.00  0.00    -0.000 A 
ENDBRANCH   1   2
BRANCH   1   8
ATOM      8  C   UNL A   1     -25.957   1.439  26.596  0.00  0.00    +0.005 C 
ATOM      9  C   UNL A   1     -26.336   2.514  27.100  0.00  0.00    +0.000 C 
ENDBRANCH   1   8
BRANCH   1  10
ATOM     10  C   UNL A   1     -25.683  -0.777  27.683  0.00  0.00    +0.031 C 
BRANCH  10  13
ATOM     11  C   UNL A   1     -28.016  -0.814  28.878  0.00  0.00    -0.004 A 
ATOM     12  C   UNL A   1     -28.469  -0.785  29.829  0.00  0.00    -0.000 A 
ATOM     13  C   UNL A   1     -26.546  -0.876  28.850  0.00  0.00    -0.022 A 
ATOM     14  C   UNL A   1     -28.026  -0.916  30.927  0.00  0.00    -0.000 A 
ATOM     15  C   UNL A   1     -26.622  -0.993  31.217  0.00  0.00    -0.000 A 
ATOM     16  C   UNL A   1     -25.820  -0.989  30.108  0.00  0.00    -0.004 A 
ENDBRANCH  10  13
ENDBRANCH   1  10
TORSDOF 4
