MODEL 3303
MODEL 1
REMARK VINA RESULT:    -6.997      0.000      0.000
REMARK INTER + INTRA:          -9.082
REMARK INTER:                  -8.633
REMARK INTRA:                  -0.449
REMARK UNBOUND:                -0.449
REMARK  Name = No_3303-gen_results/8p0m/2024-11-26-14-13-15/
REMARK  4 active torsions:
REMARK  status: ('A' for Active; 'I' for Inactive)
REMARK    1  A    between atoms: C_5  and  O_20
REMARK    2  A    between atoms: C_10  and  C_11
REMARK    3  A    between atoms: C_11  and  C_12
REMARK    4  A    between atoms: C_11  and  C_18
REMARK                            x       y       z     vdW  Elec       q    Type
REMARK                         _______ _______ _______ _____ _____    ______ ____
ROOT
ATOM      1  C   UNL A   1     -25.194  -0.268  29.980  0.00  0.00    +0.037 A 
ATOM      2  C   UNL A   1     -24.912   0.147  28.880  0.00  0.00    +0.003 A 
ATOM      3  C   UNL A   1     -23.728   0.276  28.353  0.00  0.00    -0.003 A 
ATOM      4  C   UNL A   1     -22.598  -0.096  29.143  0.00  0.00    +0.003 A 
ATOM      5  C   UNL A   1     -24.107  -0.773  30.798  0.00  0.00    +0.139 A 
ATOM      6  C   UNL A   1     -21.253   0.021  28.614  0.00  0.00    +0.000 A 
ATOM      7  C   UNL A   1     -22.871  -0.653  30.354  0.00  0.00    +0.037 A 
ATOM      8  C   UNL A   1     -20.921   0.812  27.898  0.00  0.00    -0.000 A 
ATOM      9  C   UNL A   1     -21.824   1.856  27.323  0.00  0.00    -0.004 A 
ATOM     10  C   UNL A   1     -23.170   1.581  27.380  0.00  0.00    -0.015 A 
ENDROOT
BRANCH  10  11
ATOM     11  C   UNL A   1     -24.205   2.328  26.698  0.00  0.00    +0.053 C 
ATOM     12  C   UNL A   1     -23.373   2.952  25.475  0.00  0.00    +0.013 C 
BRANCH  11  13
ATOM     13  C   UNL A   1     -25.198   1.435  26.059  0.00  0.00    -0.015 A 
ATOM     14  C   UNL A   1     -26.584   1.572  26.253  0.00  0.00    -0.004 A 
ATOM     15  C   UNL A   1     -27.481   0.674  25.613  0.00  0.00    -0.000 A 
ATOM     16  C   UNL A   1     -26.950  -0.373  24.737  0.00  0.00    -0.000 A 
ATOM     17  C   UNL A   1     -25.560  -0.502  24.590  0.00  0.00    -0.000 A 
ATOM     18  C   UNL A   1     -24.721   0.402  25.200  0.00  0.00    -0.004 A 
ENDBRANCH  11  13
BRANCH  11  19
ATOM     19  C   UNL A   1     -24.764   3.434  27.435  0.00  0.00    -0.037 C 
ATOM     20  C   UNL A   1     -24.803   4.669  26.874  0.00  0.00    -0.009 C 
ATOM     21  C   UNL A   1     -25.214   3.321  28.754  0.00  0.00    +0.027 C 
ENDBRANCH  11  19
ENDBRANCH  10  11
BRANCH   5  22
ATOM     22  O   UNL A   1     -24.470  -1.445  31.936  0.00  0.00    -0.471 OA
ATOM     23  C   UNL A   1     -24.430  -0.810  33.051  0.00  0.00    +0.253 C 
ENDBRANCH   5  22
TORSDOF 4
ENDMDL
ENDMDL
