REMARK  Name = No_3303-gen_results/8p0m/2024-11-26-14-13-15/
REMARK  4 active torsions:
REMARK  status: ('A' for Active; 'I' for Inactive)
REMARK    1  A    between atoms: C_5  and  O_20
REMARK    2  A    between atoms: C_10  and  C_11
REMARK    3  A    between atoms: C_11  and  C_12
REMARK    4  A    between atoms: C_11  and  C_18
REMARK                            x       y       z     vdW  Elec       q    Type
REMARK                         _______ _______ _______ _____ _____    ______ ____
ROOT
ATOM      1  C   UNL A   1     -28.016  -0.814  28.878  0.00  0.00    +0.037 A 
ATOM      2  C   UNL A   1     -27.064  -0.119  28.608  0.00  0.00    +0.003 A 
ATOM      3  C   UNL A   1     -26.876   1.133  28.913  0.00  0.00    -0.003 A 
ATOM      4  C   UNL A   1     -27.901   1.807  29.644  0.00  0.00    +0.003 A 
ATOM      5  C   UNL A   1     -29.046  -0.232  29.718  0.00  0.00    +0.139 A 
ATOM      6  C   UNL A   1     -27.752   3.200  30.017  0.00  0.00    +0.000 A 
ATOM      7  C   UNL A   1     -28.951   1.041  30.048  0.00  0.00    +0.037 A 
ATOM      8  C   UNL A   1     -27.212   3.965  29.406  0.00  0.00    -0.000 A 
ATOM      9  C   UNL A   1     -26.506   3.667  28.122  0.00  0.00    -0.004 A 
ATOM     10  C   UNL A   1     -26.188   2.347  27.905  0.00  0.00    -0.015 A 
ENDROOT
BRANCH  10  11
ATOM     11  C   UNL A   1     -25.322   1.858  26.855  0.00  0.00    +0.053 C 
ATOM     12  C   UNL A   1     -25.074   3.203  26.015  0.00  0.00    +0.013 C 
BRANCH  11  13
ATOM     13  C   UNL A   1     -23.985   1.487  27.372  0.00  0.00    -0.015 A 
ATOM     14  C   UNL A   1     -22.843   2.284  27.177  0.00  0.00    -0.004 A 
ATOM     15  C   UNL A   1     -21.588   1.863  27.695  0.00  0.00    -0.000 A 
ATOM     16  C   UNL A   1     -21.504   0.610  28.450  0.00  0.00    -0.000 A 
ATOM     17  C   UNL A   1     -22.656  -0.177  28.599  0.00  0.00    -0.000 A 
ATOM     18  C   UNL A   1     -23.861   0.274  28.110  0.00  0.00    -0.004 A 
ENDBRANCH  11  13
BRANCH  11  19
ATOM     19  C   UNL A   1     -25.914   0.902  25.953  0.00  0.00    -0.037 C 
ATOM     20  C   UNL A   1     -25.119   0.100  25.200  0.00  0.00    -0.009 C 
ATOM     21  C   UNL A   1     -27.294   0.799  25.750  0.00  0.00    +0.027 C 
ENDBRANCH  11  19
ENDBRANCH  10  11
BRANCH   5  22
ATOM     22  O   UNL A   1     -29.993  -1.098  30.198  0.00  0.00    -0.471 OA
ATOM     23  C   UNL A   1     -30.918  -0.625  30.953  0.00  0.00    +0.253 C 
ENDBRANCH   5  22
TORSDOF 4
