REMARK  Name = No_3304-gen_results/8p0m/2024-11-26-14-13-15/
REMARK  0 active torsions:
REMARK  status: ('A' for Active; 'I' for Inactive)
REMARK                            x       y       z     vdW  Elec       q    Type
REMARK                         _______ _______ _______ _____ _____    ______ ____
ROOT
ATOM      1  N   UNL A   1     -28.054  -1.050  28.725  0.00  0.00    -0.229 NA
ATOM      2  C   UNL A   1     -27.746  -0.073  29.010  0.00  0.00    +0.132 A 
ATOM      3  C   UNL A   1     -27.174   0.733  28.825  0.00  0.00    +0.034 A 
ATOM      4  C   UNL A   1     -26.263   0.636  27.646  0.00  0.00    +0.004 A 
ATOM      5  C   UNL A   1     -26.325  -0.548  27.054  0.00  0.00    +0.021 A 
ATOM      6  C   UNL A   1     -27.112  -1.459  27.580  0.00  0.00    +0.100 A 
ATOM      7  N   UNL A   1     -28.684   0.156  30.324  0.00  0.00    -0.293 N 
ATOM      8  C   UNL A   1     -29.360  -0.298  30.914  0.00  0.00    +0.092 C 
ATOM      9  C   UNL A   1     -30.026   0.175  32.081  0.00  0.00    +0.021 C 
ATOM     10  C   UNL A   1     -29.595   1.455  32.342  0.00  0.00    +0.004 C 
ATOM     11  C   UNL A   1     -28.730   2.195  31.746  0.00  0.00    +0.021 C 
ATOM     12  C   UNL A   1     -28.132   1.593  30.660  0.00  0.00    +0.092 C 
ENDROOT
TORSDOF 0
