MODEL 3304
MODEL 1
REMARK VINA RESULT:    -5.748      0.000      0.000
REMARK INTER + INTRA:          -5.748
REMARK INTER:                  -5.748
REMARK INTRA:                   0.000
REMARK UNBOUND:                 0.000
REMARK  Name = No_3304-gen_results/8p0m/2024-11-26-14-13-15/
REMARK  0 active torsions:
REMARK  status: ('A' for Active; 'I' for Inactive)
REMARK                            x       y       z     vdW  Elec       q    Type
REMARK                         _______ _______ _______ _____ _____    ______ ____
ROOT
ATOM      1  N   UNL A   1     -25.610  -3.116  29.821  0.00  0.00    -0.229 NA
ATOM      2  C   UNL A   1     -24.645  -2.961  29.402  0.00  0.00    +0.132 A 
ATOM      3  C   UNL A   1     -23.871  -3.329  28.875  0.00  0.00    +0.034 A 
ATOM      4  C   UNL A   1     -23.987  -4.753  28.443  0.00  0.00    +0.004 A 
ATOM      5  C   UNL A   1     -25.099  -5.326  28.880  0.00  0.00    +0.021 A 
ATOM      6  C   UNL A   1     -25.901  -4.615  29.640  0.00  0.00    +0.100 A 
ATOM      7  N   UNL A   1     -24.391  -1.406  29.820  0.00  0.00    -0.293 N 
ATOM      8  C   UNL A   1     -24.794  -0.638  30.330  0.00  0.00    +0.092 C 
ATOM      9  C   UNL A   1     -24.293   0.676  30.558  0.00  0.00    +0.021 C 
ATOM     10  C   UNL A   1     -23.068   0.790  29.944  0.00  0.00    +0.004 C 
ATOM     11  C   UNL A   1     -22.369  -0.062  29.283  0.00  0.00    +0.021 C 
ATOM     12  C   UNL A   1     -22.956  -1.305  29.178  0.00  0.00    +0.092 C 
ENDROOT
TORSDOF 0
ENDMDL
ENDMDL
