MODEL 3305
MODEL 1
REMARK VINA RESULT:    -4.346      0.000      0.000
REMARK INTER + INTRA:          -4.346
REMARK INTER:                  -4.346
REMARK INTRA:                   0.000
REMARK UNBOUND:                 0.000
REMARK  Name = No_3305-gen_results/8p0m/2024-11-26-14-13-15/
REMARK  0 active torsions:
REMARK  status: ('A' for Active; 'I' for Inactive)
REMARK                            x       y       z     vdW  Elec       q    Type
REMARK                         _______ _______ _______ _____ _____    ______ ____
ROOT
ATOM      1  C   UNL A   1     -24.974  -5.434  29.043  0.00  0.00    +0.000 A 
ATOM      2  C   UNL A   1     -24.206  -4.809  28.681  0.00  0.00    +0.000 A 
ATOM      3  C   UNL A   1     -26.119  -4.696  29.591  0.00  0.00    +0.000 A 
ATOM      4  C   UNL A   1     -26.097  -3.376  29.777  0.00  0.00    +0.000 A 
ATOM      5  C   UNL A   1     -23.955  -3.392  28.785  0.00  0.00    +0.000 A 
ATOM      6  C   UNL A   1     -25.019  -2.728  29.319  0.00  0.00    +0.000 A 
ENDROOT
TORSDOF 0
ENDMDL
ENDMDL
