REMARK  Name = No_3306-gen_results/8p0m/2024-11-26-14-13-15/
REMARK  2 active torsions:
REMARK  status: ('A' for Active; 'I' for Inactive)
REMARK    1  A    between atoms: C_9  and  C_15
REMARK    2  A    between atoms: C_15  and  C_16
REMARK                            x       y       z     vdW  Elec       q    Type
REMARK                         _______ _______ _______ _____ _____    ______ ____
ROOT
ATOM      1  N   UNL A   1     -28.054  -1.050  28.725  0.00  0.00    -0.231 NA
ATOM      2  C   UNL A   1     -26.966  -0.472  28.771  0.00  0.00    +0.099 A 
ATOM      3  C   UNL A   1     -25.929  -1.020  29.506  0.00  0.00    +0.153 A 
ATOM      4  C   UNL A   1     -24.631  -0.446  29.599  0.00  0.00    +0.038 A 
ATOM      5  C   UNL A   1     -24.403   0.789  28.931  0.00  0.00    +0.003 A 
ATOM      6  C   UNL A   1     -25.477   1.331  28.173  0.00  0.00    +0.001 A 
ATOM      7  C   UNL A   1     -26.674   0.717  28.081  0.00  0.00    +0.018 A 
ATOM      8  C   UNL A   1     -28.605  -1.526  29.916  0.00  0.00    +0.159 C 
ATOM      9  C   UNL A   1     -27.745  -2.464  30.616  0.00  0.00    +0.225 C 
ATOM     10  O   UNL A   1     -26.356  -1.896  30.705  0.00  0.00    -0.473 OA
ATOM     11  C   UNL A   1     -27.618   1.298  27.174  0.00  0.00    +0.001 A 
ATOM     12  C   UNL A   1     -27.309   2.060  26.180  0.00  0.00    +0.000 A 
ATOM     13  C   UNL A   1     -26.000   2.779  26.259  0.00  0.00    +0.000 A 
ATOM     14  C   UNL A   1     -25.020   2.364  27.244  0.00  0.00    +0.000 A 
ENDROOT
BRANCH   9  15
ATOM     15  C   UNL A   1     -28.042  -2.778  31.983  0.00  0.00    +0.257 C 
ATOM     16  O   UNL A   1     -28.390  -1.584  32.647  0.00  0.00    -0.211 OA
BRANCH  15  17
ATOM     17  C   UNL A   1     -29.350  -3.602  31.942  0.00  0.00    +0.244 C 
ATOM     18  O   UNL A   1     -29.411  -4.294  32.916  0.00  0.00    -0.285 OA
ENDBRANCH  15  17
ENDBRANCH   9  15
TORSDOF 2
