MODEL 3306
MODEL 1
REMARK VINA RESULT:    -6.209      0.000      0.000
REMARK INTER + INTRA:          -7.119
REMARK INTER:                  -6.935
REMARK INTRA:                  -0.184
REMARK UNBOUND:                -0.184
REMARK  Name = No_3306-gen_results/8p0m/2024-11-26-14-13-15/
REMARK  2 active torsions:
REMARK  status: ('A' for Active; 'I' for Inactive)
REMARK    1  A    between atoms: C_9  and  C_15
REMARK    2  A    between atoms: C_15  and  C_16
REMARK                            x       y       z     vdW  Elec       q    Type
REMARK                         _______ _______ _______ _____ _____    ______ ____
ROOT
ATOM      1  N   UNL A   1      -6.887  -0.364  10.370  0.00  0.00    -0.231 NA
ATOM      2  C   UNL A   1      -7.582   0.555   9.931  0.00  0.00    +0.099 A 
ATOM      3  C   UNL A   1      -7.631   0.786   8.567  0.00  0.00    +0.153 A 
ATOM      4  C   UNL A   1      -8.422   1.801   7.961  0.00  0.00    +0.038 A 
ATOM      5  C   UNL A   1      -9.172   2.656   8.816  0.00  0.00    +0.003 A 
ATOM      6  C   UNL A   1      -9.117   2.396  10.212  0.00  0.00    +0.001 A 
ATOM      7  C   UNL A   1      -8.386   1.387  10.728  0.00  0.00    +0.018 A 
ATOM      8  C   UNL A   1      -5.586  -0.504   9.885  0.00  0.00    +0.159 C 
ATOM      9  C   UNL A   1      -5.521  -0.680   8.445  0.00  0.00    +0.225 C 
ATOM     10  O   UNL A   1      -6.372   0.363   7.777  0.00  0.00    -0.473 OA
ATOM     11  C   UNL A   1      -8.531   1.151  12.133  0.00  0.00    +0.001 A 
ATOM     12  C   UNL A   1      -9.549   1.514  12.838  0.00  0.00    +0.000 A 
ATOM     13  C   UNL A   1     -10.368   2.648  12.311  0.00  0.00    +0.000 A 
ATOM     14  C   UNL A   1     -10.198   3.067  10.933  0.00  0.00    +0.000 A 
ENDROOT
BRANCH   9  15
ATOM     15  C   UNL A   1      -4.256  -0.517   7.790  0.00  0.00    +0.257 C 
ATOM     16  O   UNL A   1      -3.696   0.708   8.206  0.00  0.00    -0.211 OA
BRANCH  15  17
ATOM     17  C   UNL A   1      -3.334  -1.599   8.399  0.00  0.00    +0.244 C 
ATOM     18  O   UNL A   1      -3.594  -2.659   7.910  0.00  0.00    -0.285 OA
ENDBRANCH  15  17
ENDBRANCH   9  15
TORSDOF 2
ENDMDL
ENDMDL
