REMARK  Name = No_3307-gen_results/8p0m/2024-11-26-14-13-15/
REMARK  2 active torsions:
REMARK  status: ('A' for Active; 'I' for Inactive)
REMARK    1  A    between atoms: C_2  and  C_3
REMARK    2  A    between atoms: C_3  and  C_5
REMARK                            x       y       z     vdW  Elec       q    Type
REMARK                         _______ _______ _______ _____ _____    ______ ____
ROOT
ATOM      1  C   UNL A   1     -26.402  -0.062  28.622  0.00  0.00    +0.114 C 
ENDROOT
BRANCH   1   3
ATOM      2  O   UNL A   1     -28.123  -1.335  28.487  0.00  0.00    -0.271 OA
ATOM      3  C   UNL A   1     -27.064  -0.824  28.869  0.00  0.00    +0.265 C 
ATOM      4  N   UNL A   1     -26.572  -1.584  30.117  0.00  0.00    -0.087 NA
ENDBRANCH   1   3
BRANCH   1   5
ATOM      5  C   UNL A   1     -26.698   0.964  27.645  0.00  0.00    -0.021 C 
ATOM      6  C   UNL A   1     -27.586   1.295  27.271  0.00  0.00    -0.030 C 
ATOM      7  C   UNL A   1     -28.825   0.927  27.859  0.00  0.00    +0.030 C 
ENDBRANCH   1   5
TORSDOF 2
