MODEL 3307
MODEL 1
REMARK VINA RESULT:    -4.941      0.000      0.000
REMARK INTER + INTRA:          -5.545
REMARK INTER:                  -5.519
REMARK INTRA:                  -0.026
REMARK UNBOUND:                -0.026
REMARK  Name = No_3307-gen_results/8p0m/2024-11-26-14-13-15/
REMARK  2 active torsions:
REMARK  status: ('A' for Active; 'I' for Inactive)
REMARK    1  A    between atoms: C_2  and  C_3
REMARK    2  A    between atoms: C_3  and  C_5
REMARK                            x       y       z     vdW  Elec       q    Type
REMARK                         _______ _______ _______ _____ _____    ______ ____
ROOT
ATOM      1  C   UNL A   1      -9.650  -9.594  18.127  0.00  0.00    +0.114 C 
ENDROOT
BRANCH   1   3
ATOM      2  O   UNL A   1      -9.436 -11.657  17.580  0.00  0.00    -0.271 OA
ATOM      3  C   UNL A   1      -9.880 -10.508  17.690  0.00  0.00    +0.265 C 
ATOM      4  N   UNL A   1     -11.221 -10.424  16.934  0.00  0.00    -0.087 NA
ENDBRANCH   1   3
BRANCH   1   5
ATOM      5  C   UNL A   1      -9.716  -9.353  19.553  0.00  0.00    -0.021 C 
ATOM      6  C   UNL A   1      -8.984  -9.147  20.231  0.00  0.00    -0.030 C 
ATOM      7  C   UNL A   1      -7.667  -8.808  19.825  0.00  0.00    +0.030 C 
ENDBRANCH   1   5
TORSDOF 2
ENDMDL
ENDMDL
