MODEL 3308
MODEL 1
REMARK VINA RESULT:    -4.357      0.000      0.000
REMARK INTER + INTRA:          -4.357
REMARK INTER:                  -4.357
REMARK INTRA:                   0.000
REMARK UNBOUND:                 0.000
REMARK  Name = No_3308-gen_results/8p0m/2024-11-26-14-13-15/
REMARK  0 active torsions:
REMARK  status: ('A' for Active; 'I' for Inactive)
REMARK                            x       y       z     vdW  Elec       q    Type
REMARK                         _______ _______ _______ _____ _____    ______ ____
ROOT
ATOM      1  C   UNL A   1     -24.938  -5.416  29.003  0.00  0.00    +0.000 A 
ATOM      2  C   UNL A   1     -24.199  -4.746  28.666  0.00  0.00    +0.000 A 
ATOM      3  C   UNL A   1     -26.115  -4.750  29.574  0.00  0.00    +0.000 A 
ATOM      4  C   UNL A   1     -26.153  -3.437  29.806  0.00  0.00    +0.000 A 
ATOM      5  C   UNL A   1     -24.010  -3.324  28.820  0.00  0.00    +0.000 A 
ATOM      6  C   UNL A   1     -25.104  -2.726  29.374  0.00  0.00    +0.000 A 
ENDROOT
TORSDOF 0
ENDMDL
ENDMDL
