MODEL 3309
MODEL 1
REMARK VINA RESULT:    -6.277      0.000      0.000
REMARK INTER + INTRA:          -8.021
REMARK INTER:                  -7.745
REMARK INTRA:                  -0.276
REMARK UNBOUND:                -0.276
REMARK  Name = No_3309-gen_results/8p0m/2024-11-26-14-13-15/
REMARK  4 active torsions:
REMARK  status: ('A' for Active; 'I' for Inactive)
REMARK    1  A    between atoms: C_3  and  O_13
REMARK    2  A    between atoms: O_13  and  C_14
REMARK    3  A    between atoms: C_14  and  C_15
REMARK    4  A    between atoms: C_15  and  C_16
REMARK                            x       y       z     vdW  Elec       q    Type
REMARK                         _______ _______ _______ _____ _____    ______ ____
ROOT
ATOM      1  F   UNK     1      -7.588  -0.761  11.326  0.00  0.00    -0.199 F 
ATOM      2  C   UNK     1      -8.072   0.234  11.029  0.00  0.00    +0.202 A 
ATOM      3  C   UNK     1      -7.811   0.649   9.838  0.00  0.00    +0.168 A 
ATOM      4  C   UNK     1      -8.370   1.879   9.229  0.00  0.00    +0.040 A 
ATOM      5  C   UNK     1      -9.273   2.611  10.077  0.00  0.00    +0.055 A 
ATOM      6  C   UNK     1      -9.903   3.781   9.646  0.00  0.00    +0.197 A 
ATOM      7  C   UNK     1      -9.687   4.025   8.277  0.00  0.00    +0.042 A 
ATOM      8  C   UNK     1      -8.933   3.315   7.398  0.00  0.00    +0.003 A 
ATOM      9  C   UNK     1      -8.257   2.196   7.917  0.00  0.00    +0.003 A 
ATOM     10  C   UNK     1      -8.983   0.911  11.872  0.00  0.00    +0.181 A 
ATOM     11  C   UNK     1      -9.506   2.143  11.416  0.00  0.00    +0.091 A 
ATOM     12  F   UNK     1      -9.517   0.378  12.728  0.00  0.00    -0.201 F 
ATOM     13 CL   UNK     1     -10.536   3.071  12.421  0.00  0.00    -0.080 Cl
ATOM     14  O   UNK     1     -10.676   4.476  10.336  0.00  0.00    -0.286 OA
ENDROOT
BRANCH   3  15
ATOM     15  O   UNK     1      -7.025   0.021   8.955  0.00  0.00    -0.471 OA
BRANCH  15  16
ATOM     16  C   UNK     1      -5.692   0.172   8.973  0.00  0.00    +0.236 C 
BRANCH  16  17
ATOM     17  C   UNK     1      -5.075  -0.491   7.818  0.00  0.00    +0.237 C 
ATOM     18  N   UNK     1      -6.210  -1.253   7.065  0.00  0.00    -0.117 NA
BRANCH  17  19
ATOM     19  C   UNK     1      -4.165  -1.589   8.347  0.00  0.00    +0.386 C 
ATOM     20  O   UNK     1      -3.823  -1.598   9.551  0.00  0.00    -0.244 OA
ATOM     21  O   UNK     1      -3.880  -2.493   7.512  0.00  0.00    -0.244 OA
ENDBRANCH  17  19
ENDBRANCH  16  17
ENDBRANCH  15  16
ENDBRANCH   3  15
TORSDOF 4
ENDMDL
ENDMDL
