REMARK  Name = No_3309-gen_results/8p0m/2024-11-26-14-13-15/
REMARK  4 active torsions:
REMARK  status: ('A' for Active; 'I' for Inactive)
REMARK    1  A    between atoms: C_3  and  O_13
REMARK    2  A    between atoms: O_13  and  C_14
REMARK    3  A    between atoms: C_14  and  C_15
REMARK    4  A    between atoms: C_15  and  C_16
REMARK                            x       y       z     vdW  Elec       q    Type
REMARK                         _______ _______ _______ _____ _____    ______ ____
ROOT
ATOM      1  F   UNK     1     -28.073  -1.254  28.532  0.00  0.00    -0.199 F 
ATOM      2  C   UNK     1     -27.359  -0.379  28.722  0.00  0.00    +0.202 A 
ATOM      3  C   UNK     1     -26.332  -0.644  29.452  0.00  0.00    +0.168 A 
ATOM      4  C   UNK     1     -25.256   0.320  29.782  0.00  0.00    +0.040 A 
ATOM      5  C   UNK     1     -25.424   1.627  29.203  0.00  0.00    +0.055 A 
ATOM      6  C   UNK     1     -24.487   2.645  29.398  0.00  0.00    +0.197 A 
ATOM      7  C   UNK     1     -23.329   2.181  30.049  0.00  0.00    +0.042 A 
ATOM      8  C   UNK     1     -23.065   0.936  30.525  0.00  0.00    +0.003 A 
ATOM      9  C   UNK     1     -24.085  -0.020  30.371  0.00  0.00    +0.003 A 
ATOM     10  C   UNK     1     -27.533   0.884  28.110  0.00  0.00    +0.181 A 
ATOM     11  C   UNK     1     -26.605   1.901  28.430  0.00  0.00    +0.091 A 
ATOM     12  F   UNK     1     -28.182   1.015  27.180  0.00  0.00    -0.201 F 
ATOM     13 CL   UNK     1     -26.805   3.484  27.808  0.00  0.00    -0.080 Cl
ATOM     14  O   UNK     1     -24.582   3.804  28.947  0.00  0.00    -0.286 OA
ENDROOT
BRANCH   3  15
ATOM     15  O   UNK     1     -26.058  -1.835  29.998  0.00  0.00    -0.471 OA
BRANCH  15  16
ATOM     16  C   UNK     1     -25.802  -2.911  29.239  0.00  0.00    +0.236 C 
BRANCH  16  17
ATOM     17  C   UNK     1     -24.820  -3.788  29.888  0.00  0.00    +0.237 C 
ATOM     18  N   UNK     1     -23.454  -3.032  29.880  0.00  0.00    -0.117 NA
BRANCH  17  19
ATOM     19  C   UNK     1     -24.597  -4.986  28.978  0.00  0.00    +0.386 C 
ATOM     20  O   UNK     1     -23.642  -4.993  28.169  0.00  0.00    -0.244 OA
ATOM     21  O   UNK     1     -25.379  -5.958  29.176  0.00  0.00    -0.244 OA
ENDBRANCH  17  19
ENDBRANCH  16  17
ENDBRANCH  15  16
ENDBRANCH   3  15
TORSDOF 4
