MODEL 330
MODEL 1
REMARK VINA RESULT:    -4.360      0.000      0.000
REMARK INTER + INTRA:          -4.360
REMARK INTER:                  -4.360
REMARK INTRA:                   0.000
REMARK UNBOUND:                 0.000
REMARK  Name = No_330-gen_results/8p0m/2024-11-26-14-13-15/
REMARK  0 active torsions:
REMARK  status: ('A' for Active; 'I' for Inactive)
REMARK                            x       y       z     vdW  Elec       q    Type
REMARK                         _______ _______ _______ _____ _____    ______ ____
ROOT
ATOM      1  C   UNL A   1     -24.173  -4.906  28.592  0.00  0.00    +0.000 A 
ATOM      2  C   UNL A   1     -25.029  -5.304  29.059  0.00  0.00    +0.000 A 
ATOM      3  C   UNL A   1     -24.046  -3.452  28.745  0.00  0.00    +0.000 A 
ATOM      4  C   UNL A   1     -25.017  -2.698  29.262  0.00  0.00    +0.000 A 
ATOM      5  C   UNL A   1     -26.202  -4.704  29.648  0.00  0.00    +0.000 A 
ATOM      6  C   UNL A   1     -26.076  -3.351  29.758  0.00  0.00    +0.000 A 
ENDROOT
TORSDOF 0
ENDMDL
ENDMDL
