MODEL 3310
MODEL 1
REMARK VINA RESULT:    -7.111      0.000      0.000
REMARK INTER + INTRA:          -8.386
REMARK INTER:                  -7.942
REMARK INTRA:                  -0.444
REMARK UNBOUND:                -0.444
REMARK  Name = No_3310-gen_results/8p0m/2024-11-26-14-13-15/
REMARK  2 active torsions:
REMARK  status: ('A' for Active; 'I' for Inactive)
REMARK    1  A    between atoms: C_2  and  C_7
REMARK    2  A    between atoms: C_11  and  C_13
REMARK                            x       y       z     vdW  Elec       q    Type
REMARK                         _______ _______ _______ _____ _____    ______ ____
ROOT
ATOM      1  C   UNL A   1     -23.512  -1.605  28.901  0.00  0.00    +0.000 A 
ATOM      2  C   UNL A   1     -22.568  -1.447  29.258  0.00  0.00    +0.000 A 
ATOM      3  C   UNL A   1     -21.614  -0.297  29.039  0.00  0.00    +0.000 A 
ATOM      4  C   UNL A   1     -22.073   0.766  28.285  0.00  0.00    +0.005 A 
ATOM      5  C   UNL A   1     -23.380   0.727  27.794  0.00  0.00    +0.057 A 
ATOM      6  C   UNL A   1     -24.142  -0.379  28.027  0.00  0.00    +0.005 A 
ENDROOT
BRANCH   1   8
ATOM      7  C   UNL A   1     -25.610  -2.501  29.640  0.00  0.00    +0.000 A 
ATOM      8  C   UNL A   1     -24.511  -2.675  29.168  0.00  0.00    +0.000 A 
ATOM      9  C   UNL A   1     -24.079  -3.945  28.803  0.00  0.00    +0.000 A 
ATOM     10  C   UNL A   1     -24.910  -5.101  29.019  0.00  0.00    +0.000 A 
ATOM     11  C   UNL A   1     -26.156  -4.812  29.592  0.00  0.00    +0.000 A 
ATOM     12  C   UNL A   1     -26.510  -3.595  29.934  0.00  0.00    +0.000 A 
ENDBRANCH   1   8
BRANCH   5  13
ATOM     13  C   UNL A   1     -23.868   1.816  26.958  0.00  0.00    +0.284 C 
ATOM     14  N   UNL A   1     -24.294   1.661  25.900  0.00  0.00    -0.084 NA
ATOM     15  O   UNL A   1     -23.851   3.011  27.479  0.00  0.00    -0.267 OA
ENDBRANCH   5  13
TORSDOF 2
ENDMDL
ENDMDL
