REMARK  Name = No_3311-gen_results/8p0m/2024-11-26-14-13-15/
REMARK  1 active torsions:
REMARK  status: ('A' for Active; 'I' for Inactive)
REMARK    1  A    between atoms: C_5  and  C_7
REMARK                            x       y       z     vdW  Elec       q    Type
REMARK                         _______ _______ _______ _____ _____    ______ ____
ROOT
ATOM      1  C   UNL A   1     -28.016  -0.814  28.878  0.00  0.00    +0.030 A 
ATOM      2  C   UNL A   1     -27.064  -0.119  28.608  0.00  0.00    +0.140 A 
ATOM      3  C   UNL A   1     -26.876   1.133  28.913  0.00  0.00    +0.030 A 
ATOM      4  C   UNL A   1     -27.901   1.807  29.644  0.00  0.00    +0.002 A 
ATOM      5  C   UNL A   1     -29.046  -0.232  29.718  0.00  0.00    +0.002 A 
ATOM      6  C   UNL A   1     -28.940   1.052  30.060  0.00  0.00    +0.000 A 
ATOM      7  F   UNL A   1     -26.031  -0.698  27.848  0.00  0.00    -0.204 F 
ENDROOT
BRANCH   5   8
ATOM      8  C   UNL A   1     -30.163  -1.117  30.125  0.00  0.00    +0.000 A 
ATOM      9  C   UNL A   1     -31.317  -0.975  29.552  0.00  0.00    +0.000 A 
ATOM     10  C   UNL A   1     -32.391  -1.874  29.883  0.00  0.00    +0.000 A 
ATOM     11  C   UNL A   1     -29.899  -2.143  31.092  0.00  0.00    +0.000 A 
ATOM     12  C   UNL A   1     -30.957  -3.035  31.435  0.00  0.00    +0.000 A 
ATOM     13  C   UNL A   1     -32.160  -2.858  30.840  0.00  0.00    +0.000 A 
ENDBRANCH   5   8
TORSDOF 1
