MODEL 3311
MODEL 1
REMARK VINA RESULT:    -6.741      0.000      0.000
REMARK INTER + INTRA:          -7.465
REMARK INTER:                  -7.136
REMARK INTRA:                  -0.329
REMARK UNBOUND:                -0.329
REMARK  Name = No_3311-gen_results/8p0m/2024-11-26-14-13-15/
REMARK  1 active torsions:
REMARK  status: ('A' for Active; 'I' for Inactive)
REMARK    1  A    between atoms: C_5  and  C_7
REMARK                            x       y       z     vdW  Elec       q    Type
REMARK                         _______ _______ _______ _____ _____    ______ ____
ROOT
ATOM      1  C   UNL A   1     -24.277  -3.784  28.853  0.00  0.00    +0.030 A 
ATOM      2  C   UNL A   1     -25.043  -4.698  29.051  0.00  0.00    +0.140 A 
ATOM      3  C   UNL A   1     -26.225  -4.648  29.594  0.00  0.00    +0.030 A 
ATOM      4  C   UNL A   1     -26.709  -3.378  30.034  0.00  0.00    +0.002 A 
ATOM      5  C   UNL A   1     -24.745  -2.447  29.168  0.00  0.00    +0.002 A 
ATOM      6  C   UNL A   1     -25.938  -2.308  29.745  0.00  0.00    +0.000 A 
ATOM      7  F   UNL A   1     -24.620  -5.990  28.687  0.00  0.00    -0.204 F 
ENDROOT
BRANCH   5   8
ATOM      8  C   UNL A   1     -23.840  -1.321  28.835  0.00  0.00    +0.000 A 
ATOM      9  C   UNL A   1     -22.638  -1.316  29.321  0.00  0.00    +0.000 A 
ATOM     10  C   UNL A   1     -21.724  -0.269  28.949  0.00  0.00    +0.000 A 
ATOM     11  C   UNL A   1     -24.314  -0.314  27.930  0.00  0.00    +0.000 A 
ATOM     12  C   UNL A   1     -23.421   0.734  27.560  0.00  0.00    +0.000 A 
ATOM     13  C   UNL A   1     -22.176   0.731  28.093  0.00  0.00    +0.000 A 
ENDBRANCH   5   8
TORSDOF 1
ENDMDL
ENDMDL
