REMARK  Name = No_3312-gen_results/8p0m/2024-11-26-14-13-15/
REMARK  12 active torsions:
REMARK  status: ('A' for Active; 'I' for Inactive)
REMARK    1  A    between atoms: C_1  and  C_7
REMARK    2  A    between atoms: C_3  and  C_14
REMARK    3  A    between atoms: C_6  and  C_9
REMARK    4  A    between atoms: C_7  and  O_13
REMARK    5  A    between atoms: O_13  and  C_25
REMARK    6  A    between atoms: C_16  and  CA_20
REMARK    7  A    between atoms: CA_20  and  C_22
REMARK    8  A    between atoms: C_25  and  C_26
REMARK    9  A    between atoms: C_27  and  C_28
REMARK   10  A    between atoms: C_27  and  O_31
REMARK   11  A    between atoms: C_28  and  C_29
REMARK   12  A    between atoms: C_29  and  C_32
REMARK                            x       y       z     vdW  Elec       q    Type
REMARK                         _______ _______ _______ _____ _____    ______ ____
ROOT
ATOM      1  C   UNL A   1     -28.016  -0.814  28.878  0.00  0.00    +0.076 A 
ATOM      2  C   UNL A   1     -27.064  -0.119  28.608  0.00  0.00    +0.006 A 
ATOM      3  C   UNL A   1     -27.001   0.691  27.491  0.00  0.00    +0.000 A 
ATOM      4  C   UNL A   1     -28.142   0.828  26.799  0.00  0.00    +0.004 A 
ATOM      5  C   UNL A   1     -29.290  -0.487  28.366  0.00  0.00    +0.010 A 
ATOM      6  C   UNL A   1     -29.285   0.261  27.262  0.00  0.00    +0.072 A 
ENDROOT
BRANCH   3   7
ATOM      7  C   UNL A   1     -25.624   1.109  27.087  0.00  0.00    +0.000 A 
ATOM      8  C   UNL A   1     -24.564   0.783  27.726  0.00  0.00    +0.002 A 
ATOM      9  C   UNL A   1     -23.255   1.325  27.475  0.00  0.00    +0.026 A 
ATOM     10  C   UNL A   1     -23.121   2.073  26.299  0.00  0.00    +0.002 A 
ATOM     11  C   UNL A   1     -24.229   2.388  25.571  0.00  0.00    +0.000 A 
ATOM     12  C   UNL A   1     -25.485   1.939  25.937  0.00  0.00    +0.000 A 
BRANCH   9  13
ATOM     13  CA  UNL A   1     -22.068   0.981  28.235  0.00  0.00    +0.182 C 
ATOM     14  N   UNL A   1     -21.016   1.654  28.144  0.00  0.00    -0.141 NA
BRANCH  13  15
ATOM     15  C   UNL A   1     -22.204   0.222  29.458  0.00  0.00    +0.407 C 
ATOM     16  O   UNL A   1     -23.068   0.206  30.238  0.00  0.00    -0.239 OA
ATOM     17  OXT UNL A   1     -21.199  -0.685  29.625  0.00  0.00    -0.239 OA
ENDBRANCH  13  15
ENDBRANCH   9  13
ENDBRANCH   3   7
BRANCH   6  18
ATOM     18  C   UNL A   1     -30.521   0.461  26.450  0.00  0.00    +0.419 C 
ATOM     19  F   UNL A   1     -31.420  -0.152  26.832  0.00  0.00    -0.166 F 
ATOM     20  F   UNL A   1     -30.784   1.774  26.415  0.00  0.00    -0.166 F 
ATOM     21  F   UNL A   1     -30.300   0.090  25.134  0.00  0.00    -0.166 F 
ENDBRANCH   6  18
BRANCH   1  22
ATOM     22  C   UNL A   1     -28.133  -1.589  30.163  0.00  0.00    +0.342 C 
ATOM     23  O   UNL A   1     -27.394  -2.683  30.139  0.00  0.00    -0.245 OA
BRANCH  22  24
ATOM     24  O   UNL A   1     -28.499  -1.208  31.252  0.00  0.00    -0.437 OA
BRANCH  24  25
ATOM     25  C   UNL A   1     -29.368  -1.948  31.988  0.00  0.00    +0.280 C 
BRANCH  25  26
ATOM     26  C   UNL A   1     -29.948  -3.009  31.401  0.00  0.00    +0.249 C 
ATOM     27  C   UNL A   1     -30.647  -2.859  30.295  0.00  0.00    +0.184 C 
ATOM     28  O   UNL A   1     -30.822  -3.750  32.349  0.00  0.00    -0.284 OA
BRANCH  27  29
ATOM     29  C   UNL A   1     -31.848  -2.195  30.480  0.00  0.00    +0.213 C 
ATOM     30  O   UNL A   1     -32.248  -1.117  29.467  0.00  0.00    -0.215 OA
BRANCH  29  31
ATOM     31  C   UNL A   1     -32.897  -2.926  30.780  0.00  0.00    +0.076 C 
BRANCH  31  32
ATOM     32  C   UNL A   1     -32.821  -4.018  29.783  0.00  0.00    +0.185 C 
ATOM     33  O   UNL A   1     -32.840  -5.284  30.217  0.00  0.00    -0.220 OA
ENDBRANCH  31  32
ENDBRANCH  29  31
ENDBRANCH  27  29
BRANCH  27  34
ATOM     34  O   UNL A   1     -30.956  -4.045  29.547  0.00  0.00    -0.470 OA
ATOM     35  C   UNL A   1     -30.163  -4.824  29.756  0.00  0.00    +0.252 C 
ENDBRANCH  27  34
ENDBRANCH  25  26
ENDBRANCH  24  25
ENDBRANCH  22  24
ENDBRANCH   1  22
TORSDOF 12
