MODEL 3312
MODEL 1
REMARK VINA RESULT:    -7.022      0.000      0.000
REMARK INTER + INTRA:         -13.589
REMARK INTER:                 -11.948
REMARK INTRA:                  -1.642
REMARK UNBOUND:                -1.642
REMARK  Name = No_3312-gen_results/8p0m/2024-11-26-14-13-15/
REMARK  12 active torsions:
REMARK  status: ('A' for Active; 'I' for Inactive)
REMARK    1  A    between atoms: C_1  and  C_7
REMARK    2  A    between atoms: C_3  and  C_14
REMARK    3  A    between atoms: C_6  and  C_9
REMARK    4  A    between atoms: C_7  and  O_13
REMARK    5  A    between atoms: O_13  and  C_25
REMARK    6  A    between atoms: C_16  and  CA_20
REMARK    7  A    between atoms: CA_20  and  C_22
REMARK    8  A    between atoms: C_25  and  C_26
REMARK    9  A    between atoms: C_27  and  C_28
REMARK   10  A    between atoms: C_27  and  O_31
REMARK   11  A    between atoms: C_28  and  C_29
REMARK   12  A    between atoms: C_29  and  C_32
REMARK                            x       y       z     vdW  Elec       q    Type
REMARK                         _______ _______ _______ _____ _____    ______ ____
ROOT
ATOM      1  C   UNL A   1     -30.845  -7.746  10.060  0.00  0.00    +0.076 A 
ATOM      2  C   UNL A   1     -31.236  -6.649   9.734  0.00  0.00    +0.006 A 
ATOM      3  C   UNL A   1     -30.413  -5.662   9.228  0.00  0.00    +0.000 A 
ATOM      4  C   UNL A   1     -29.162  -6.040   8.924  0.00  0.00    +0.004 A 
ATOM      5  C   UNL A   1     -29.654  -8.259   9.503  0.00  0.00    +0.010 A 
ATOM      6  C   UNL A   1     -28.803  -7.344   9.036  0.00  0.00    +0.072 A 
ENDROOT
BRANCH   3   7
ATOM      7  C   UNL A   1     -30.961  -4.274   9.309  0.00  0.00    +0.000 A 
ATOM      8  C   UNL A   1     -30.458  -3.272   8.693  0.00  0.00    +0.002 A 
ATOM      9  C   UNL A   1     -30.843  -1.902   8.902  0.00  0.00    +0.026 A 
ATOM     10  C   UNL A   1     -32.006  -1.705   9.657  0.00  0.00    +0.002 A 
ATOM     11  C   UNL A   1     -32.593  -2.765  10.280  0.00  0.00    +0.000 A 
ATOM     12  C   UNL A   1     -32.097  -4.049  10.140  0.00  0.00    +0.000 A 
BRANCH   9  13
ATOM     13  CA  UNL A   1     -30.234  -0.769   8.230  0.00  0.00    +0.182 C 
ATOM     14  N   UNL A   1     -30.926   0.176   7.786  0.00  0.00    -0.141 NA
BRANCH  13  15
ATOM     15  C   UNL A   1     -28.853  -0.440   8.504  0.00  0.00    +0.407 C 
ATOM     16  O   UNL A   1     -28.381   0.113   9.413  0.00  0.00    -0.239 OA
ATOM     17  OXT UNL A   1     -27.996  -0.978   7.590  0.00  0.00    -0.239 OA
ENDBRANCH  13  15
ENDBRANCH   9  13
ENDBRANCH   3   7
BRANCH   6  18
ATOM     18  C   UNL A   1     -27.400  -7.698   8.672  0.00  0.00    +0.419 C 
ATOM     19  F   UNL A   1     -26.711  -6.779   8.572  0.00  0.00    -0.166 F 
ATOM     20  F   UNL A   1     -26.946  -8.573   9.579  0.00  0.00    -0.166 F 
ATOM     21  F   UNL A   1     -27.370  -8.368   7.460  0.00  0.00    -0.166 F 
ENDBRANCH   6  18
BRANCH   1  22
ATOM     22  C   UNL A   1     -31.767  -8.858  10.482  0.00  0.00    +0.342 C 
ATOM     23  O   UNL A   1     -32.694  -9.092   9.571  0.00  0.00    -0.245 OA
BRANCH  22  24
ATOM     24  O   UNL A   1     -31.585  -9.728  11.304  0.00  0.00    -0.437 OA
BRANCH  24  25
ATOM     25  C   UNL A   1     -31.571 -11.035  10.936  0.00  0.00    +0.280 C 
BRANCH  25  26
ATOM     26  C   UNL A   1     -30.382 -11.604  10.671  0.00  0.00    +0.249 C 
ATOM     27  C   UNL A   1     -30.323 -12.803  10.129  0.00  0.00    +0.184 C 
ATOM     28  O   UNL A   1     -29.516 -11.650  11.879  0.00  0.00    -0.284 OA
BRANCH  27  29
ATOM     29  C   UNL A   1     -30.719 -13.820  10.981  0.00  0.00    +0.213 C 
ATOM     30  O   UNL A   1     -32.175 -14.293  10.924  0.00  0.00    -0.215 OA
BRANCH  29  31
ATOM     31  C   UNL A   1     -29.923 -14.861  11.081  0.00  0.00    +0.076 C 
BRANCH  31  32
ATOM     32  C   UNL A   1     -29.830 -15.051  12.546  0.00  0.00    +0.185 C 
ATOM     33  O   UNL A   1     -28.808 -15.764  13.035  0.00  0.00    -0.220 OA
ENDBRANCH  31  32
ENDBRANCH  29  31
ENDBRANCH  27  29
BRANCH  27  34
ATOM     34  O   UNL A   1     -29.064 -13.211   9.574  0.00  0.00    -0.470 OA
ATOM     35  C   UNL A   1     -28.728 -12.435   8.823  0.00  0.00    +0.252 C 
ENDBRANCH  27  34
ENDBRANCH  25  26
ENDBRANCH  24  25
ENDBRANCH  22  24
ENDBRANCH   1  22
TORSDOF 12
ENDMDL
ENDMDL
