MODEL 3313
MODEL 1
REMARK VINA RESULT:    -3.787      0.000      0.000
REMARK INTER + INTRA:          -4.008
REMARK INTER:                  -4.008
REMARK INTRA:                   0.000
REMARK UNBOUND:                 0.000
REMARK  Name = No_3313-gen_results/8p0m/2024-11-26-14-13-15/
REMARK  1 active torsions:
REMARK  status: ('A' for Active; 'I' for Inactive)
REMARK    1  A    between atoms: P_1  and  O_2
REMARK                            x       y       z     vdW  Elec       q    Type
REMARK                         _______ _______ _______ _____ _____    ______ ____
ROOT
ATOM      1  P   UNL A   1      -9.148  -9.747  18.438  0.00  0.00    +0.562 P 
ATOM      2  O   UNL A   1      -8.427  -8.760  17.618  0.00  0.00    -0.220 OA
ATOM      3  O   UNL A   1      -9.730 -10.905  17.679  0.00  0.00    -0.113 OA
ATOM      4  O   UNL A   1     -10.668  -8.954  18.433  0.00  0.00    -0.113 OA
ENDROOT
BRANCH   1   5
ATOM      5  O   UNL A   1      -8.901  -9.760  19.546  0.00  0.00    -0.080 OA
ATOM      6  F   UNL A   1      -9.692  -9.321  20.459  0.00  0.00    -0.037 F 
ENDBRANCH   1   5
TORSDOF 1
ENDMDL
ENDMDL
