REMARK  Name = No_3313-gen_results/8p0m/2024-11-26-14-13-15/
REMARK  1 active torsions:
REMARK  status: ('A' for Active; 'I' for Inactive)
REMARK    1  A    between atoms: P_1  and  O_2
REMARK                            x       y       z     vdW  Elec       q    Type
REMARK                         _______ _______ _______ _____ _____    ______ ____
ROOT
ATOM      1  P   UNL A   1     -27.951  -0.579  29.040  0.00  0.00    +0.562 P 
ATOM      2  O   UNL A   1     -29.362  -0.577  28.619  0.00  0.00    -0.220 OA
ATOM      3  O   UNL A   1     -27.536  -1.755  29.877  0.00  0.00    -0.113 OA
ATOM      4  O   UNL A   1     -28.151   0.378  30.448  0.00  0.00    -0.113 OA
ENDROOT
BRANCH   1   5
ATOM      5  O   UNL A   1     -27.240   0.061  28.428  0.00  0.00    -0.080 OA
ATOM      6  F   UNL A   1     -25.982  -0.179  28.315  0.00  0.00    -0.037 F 
ENDBRANCH   1   5
TORSDOF 1
