MODEL 3314
MODEL 1
REMARK VINA RESULT:    -5.365      0.000      0.000
REMARK INTER + INTRA:          -5.732
REMARK INTER:                  -5.679
REMARK INTRA:                  -0.053
REMARK UNBOUND:                -0.053
REMARK  Name = No_3314-gen_results/8p0m/2024-11-26-14-13-15/
REMARK  1 active torsions:
REMARK  status: ('A' for Active; 'I' for Inactive)
REMARK    1  A    between atoms: C_6  and  C_7
REMARK                            x       y       z     vdW  Elec       q    Type
REMARK                         _______ _______ _______ _____ _____    ______ ____
ROOT
ATOM      1  C   UNL A   1     -24.017  -4.092  28.635  0.00  0.00    +0.005 A 
ATOM      2  C   UNL A   1     -24.640  -5.093  28.905  0.00  0.00    +0.000 A 
ATOM      3  C   UNL A   1     -25.878  -5.021  29.534  0.00  0.00    +0.000 A 
ATOM      4  C   UNL A   1     -26.437  -3.752  29.926  0.00  0.00    +0.000 A 
ATOM      5  C   UNL A   1     -25.639  -2.648  29.598  0.00  0.00    +0.005 A 
ATOM      6  C   UNL A   1     -24.468  -2.772  29.017  0.00  0.00    +0.055 A 
ENDROOT
BRANCH   6   7
ATOM      7  C   UNL A   1     -23.698  -1.530  28.773  0.00  0.00    +0.265 C 
ATOM      8  O   UNL A   1     -24.189  -0.579  28.220  0.00  0.00    -0.268 OA
ATOM      9  N   UNL A   1     -22.405  -1.499  29.169  0.00  0.00    -0.200 NA
ATOM     10  C   UNL A   1     -21.608  -0.319  28.906  0.00  0.00    +0.139 C 
ENDBRANCH   6   7
TORSDOF 1
ENDMDL
ENDMDL
