REMARK  Name = No_3315-gen_results/8p0m/2024-11-26-14-13-15/
REMARK  1 active torsions:
REMARK  status: ('A' for Active; 'I' for Inactive)
REMARK    1  A    between atoms: C_3  and  C_4
REMARK                            x       y       z     vdW  Elec       q    Type
REMARK                         _______ _______ _______ _____ _____    ______ ____
ROOT
ATOM      1  C   UNL A   1     -28.016  -0.814  28.878  0.00  0.00    +0.033 A 
ATOM      2  C   UNL A   1     -28.469  -0.785  29.829  0.00  0.00    +0.150 A 
ATOM      3  C   UNL A   1     -26.504  -0.778  28.877  0.00  0.00    +0.056 A 
ATOM      4  C   UNL A   1     -27.918  -0.937  31.182  0.00  0.00    +0.086 A 
ATOM      5  C   UNL A   1     -26.542  -0.940  31.261  0.00  0.00    +0.025 A 
ATOM      6  C   UNL A   1     -25.783  -0.893  30.120  0.00  0.00    +0.060 A 
ATOM      7  F   UNL A   1     -29.897  -0.824  29.871  0.00  0.00    -0.203 F 
ATOM      8 CL   UNL A   1     -28.882  -0.975  32.616  0.00  0.00    -0.080 Cl
ATOM      9 CL   UNL A   1     -24.123  -0.943  30.299  0.00  0.00    -0.082 Cl
ENDROOT
BRANCH   3  10
ATOM     10  C   UNL A   1     -25.654  -0.660  27.719  0.00  0.00    +0.342 C 
ATOM     11  F   UNL A   1     -26.151  -0.971  26.710  0.00  0.00    -0.193 F 
ATOM     12  F   UNL A   1     -24.393  -0.384  27.826  0.00  0.00    -0.193 F 
ENDBRANCH   3  10
TORSDOF 1
