MODEL 3315
MODEL 1
REMARK VINA RESULT:    -5.247      0.000      0.000
REMARK INTER + INTRA:          -5.759
REMARK INTER:                  -5.553
REMARK INTRA:                  -0.206
REMARK UNBOUND:                -0.206
REMARK  Name = No_3315-gen_results/8p0m/2024-11-26-14-13-15/
REMARK  1 active torsions:
REMARK  status: ('A' for Active; 'I' for Inactive)
REMARK    1  A    between atoms: C_3  and  C_4
REMARK                            x       y       z     vdW  Elec       q    Type
REMARK                         _______ _______ _______ _____ _____    ______ ____
ROOT
ATOM      1  C   UNL A   1     -22.330   1.343  27.743  0.00  0.00    +0.033 A 
ATOM      2  C   UNL A   1     -22.516   0.482  28.321  0.00  0.00    +0.150 A 
ATOM      3  C   UNL A   1     -23.278   1.566  26.585  0.00  0.00    +0.056 A 
ATOM      4  C   UNL A   1     -23.656  -0.443  28.363  0.00  0.00    +0.086 A 
ATOM      5  C   UNL A   1     -24.581  -0.285  27.353  0.00  0.00    +0.025 A 
ATOM      6  C   UNL A   1     -24.449   0.737  26.448  0.00  0.00    +0.060 A 
ATOM      7  F   UNL A   1     -21.645   0.241  29.428  0.00  0.00    -0.203 F 
ATOM      8 CL   UNL A   1     -23.803  -1.741  29.495  0.00  0.00    -0.080 Cl
ATOM      9 CL   UNL A   1     -25.634   0.885  25.280  0.00  0.00    -0.082 Cl
ENDROOT
BRANCH   3  10
ATOM     10  C   UNL A   1     -23.156   2.576  25.565  0.00  0.00    +0.342 C 
ATOM     11  F   UNL A   1     -22.307   2.389  24.786  0.00  0.00    -0.193 F 
ATOM     12  F   UNL A   1     -23.835   3.678  25.614  0.00  0.00    -0.193 F 
ENDBRANCH   3  10
TORSDOF 1
ENDMDL
ENDMDL
