MODEL 3316
MODEL 1
REMARK VINA RESULT:    -4.865      0.000      0.000
REMARK INTER + INTRA:          -5.639
REMARK INTER:                  -5.434
REMARK INTRA:                  -0.205
REMARK UNBOUND:                -0.205
REMARK  Name = No_3316-gen_results/8p0m/2024-11-26-14-13-15/
REMARK  2 active torsions:
REMARK  status: ('A' for Active; 'I' for Inactive)
REMARK    1  A    between atoms: C_2  and  C_7
REMARK    2  A    between atoms: C_7  and  C_8
REMARK                            x       y       z     vdW  Elec       q    Type
REMARK                         _______ _______ _______ _____ _____    ______ ____
ROOT
ATOM      1  C   UNL A   1     -23.941  -3.440  28.551  0.00  0.00    -0.004 A 
ATOM      2  C   UNL A   1     -24.707  -2.679  29.095  0.00  0.00    -0.018 A 
ATOM      3  C   UNL A   1     -25.860  -3.065  29.697  0.00  0.00    -0.004 A 
ATOM      4  C   UNL A   1     -26.192  -4.433  29.691  0.00  0.00    -0.000 A 
ATOM      5  C   UNL A   1     -24.169  -4.862  28.589  0.00  0.00    -0.000 A 
ATOM      6  C   UNL A   1     -25.328  -5.299  29.157  0.00  0.00    -0.000 A 
ENDROOT
BRANCH   2   7
ATOM      7  C   UNL A   1     -24.451  -1.183  29.174  0.00  0.00    +0.052 C 
BRANCH   7   8
ATOM      8  C   UNL A   1     -23.093  -0.738  28.935  0.00  0.00    -0.021 C 
ATOM      9  C   UNL A   1     -22.349  -0.388  30.068  0.00  0.00    -0.005 C 
ENDBRANCH   7   8
ENDBRANCH   2   7
TORSDOF 2
ENDMDL
ENDMDL
