MODEL 3317
MODEL 1
REMARK VINA RESULT:    -5.021      0.000      0.000
REMARK INTER + INTRA:          -5.352
REMARK INTER:                  -5.314
REMARK INTRA:                  -0.038
REMARK UNBOUND:                -0.038
REMARK  Name = No_3317-gen_results/8p0m/2024-11-26-14-13-15/
REMARK  1 active torsions:
REMARK  status: ('A' for Active; 'I' for Inactive)
REMARK    1  A    between atoms: C_2  and  C_7
REMARK                            x       y       z     vdW  Elec       q    Type
REMARK                         _______ _______ _______ _____ _____    ______ ____
ROOT
ATOM      1  C   UNL A   1     -28.940 -10.456  32.797  0.00  0.00    +0.007 A 
ATOM      2  C   UNL A   1     -28.195 -11.185  32.639  0.00  0.00    +0.080 A 
ATOM      3  C   UNL A   1     -29.747 -10.074  31.627  0.00  0.00    +0.000 A 
ATOM      4  C   UNL A   1     -29.605 -10.770  30.391  0.00  0.00    +0.000 A 
ATOM      5  C   UNL A   1     -27.886 -12.084  31.494  0.00  0.00    +0.007 A 
ATOM      6  C   UNL A   1     -28.608 -11.754  30.386  0.00  0.00    +0.000 A 
ENDROOT
BRANCH   2   7
ATOM      7  C   UNL A   1     -27.312 -11.639  33.886  0.00  0.00    +0.388 C 
ATOM      8  O   UNL A   1     -26.921 -10.748  34.707  0.00  0.00    -0.241 OA
ATOM      9  O   UNL A   1     -26.803 -12.802  33.813  0.00  0.00    -0.241 OA
ENDBRANCH   2   7
TORSDOF 1
ENDMDL
ENDMDL
