REMARK  Name = No_3318-gen_results/8p0m/2024-11-26-14-13-15/
REMARK  2 active torsions:
REMARK  status: ('A' for Active; 'I' for Inactive)
REMARK    1  A    between atoms: C_1  and  C_2
REMARK    2  A    between atoms: C_5  and  C_13
REMARK                            x       y       z     vdW  Elec       q    Type
REMARK                         _______ _______ _______ _____ _____    ______ ____
ROOT
ATOM      1  C   UNL A   1     -28.016  -0.814  28.878  0.00  0.00    +0.018 A 
ATOM      2  C   UNL A   1     -28.182   0.428  28.113  0.00  0.00    +0.001 A 
ATOM      3  C   UNL A   1     -27.450   0.643  26.850  0.00  0.00    +0.004 A 
ATOM      4  C   UNL A   1     -26.181   0.036  26.715  0.00  0.00    +0.071 A 
ATOM      5  C   UNL A   1     -25.780  -0.933  27.694  0.00  0.00    +0.004 A 
ATOM      6  C   UNL A   1     -26.557  -1.213  28.741  0.00  0.00    +0.001 A 
ENDROOT
BRANCH   1   7
ATOM      7  C   UNL A   1     -28.469  -0.785  29.829  0.00  0.00    +0.081 A 
ATOM      8  N   UNL A   1     -29.610  -0.278  30.194  0.00  0.00    -0.244 NA
ATOM      9  C   UNL A   1     -28.151  -2.073  30.811  0.00  0.00    +0.019 A 
ATOM     10  C   UNL A   1     -30.455  -0.610  31.273  0.00  0.00    +0.099 A 
ATOM     11  C   UNL A   1     -29.045  -2.386  31.890  0.00  0.00    +0.003 A 
ATOM     12  C   UNL A   1     -30.112  -1.597  32.136  0.00  0.00    +0.021 A 
ENDBRANCH   1   7
BRANCH   4  13
ATOM     13  C   UNL A   1     -25.272   0.351  25.617  0.00  0.00    +0.419 C 
ATOM     14  F   UNL A   1     -25.563  -0.154  24.613  0.00  0.00    -0.166 F 
ATOM     15  F   UNL A   1     -23.975   0.005  25.988  0.00  0.00    -0.166 F 
ATOM     16  F   UNL A   1     -25.292   1.717  25.427  0.00  0.00    -0.166 F 
ENDBRANCH   4  13
TORSDOF 2
