MODEL 3318
MODEL 1
REMARK VINA RESULT:    -7.210      0.000      0.000
REMARK INTER + INTRA:          -8.688
REMARK INTER:                  -8.053
REMARK INTRA:                  -0.635
REMARK UNBOUND:                -0.635
REMARK  Name = No_3318-gen_results/8p0m/2024-11-26-14-13-15/
REMARK  2 active torsions:
REMARK  status: ('A' for Active; 'I' for Inactive)
REMARK    1  A    between atoms: C_1  and  C_2
REMARK    2  A    between atoms: C_5  and  C_13
REMARK                            x       y       z     vdW  Elec       q    Type
REMARK                         _______ _______ _______ _____ _____    ______ ____
ROOT
ATOM      1  C   UNL A   1     -24.618  -1.395  29.138  0.00  0.00    +0.018 A 
ATOM      2  C   UNL A   1     -23.190  -1.054  29.149  0.00  0.00    +0.001 A 
ATOM      3  C   UNL A   1     -22.709   0.213  28.567  0.00  0.00    +0.004 A 
ATOM      4  C   UNL A   1     -23.432   0.752  27.479  0.00  0.00    +0.071 A 
ATOM      5  C   UNL A   1     -24.707   0.179  27.156  0.00  0.00    +0.004 A 
ATOM      6  C   UNL A   1     -25.175  -0.876  27.824  0.00  0.00    +0.001 A 
ENDROOT
BRANCH   1   7
ATOM      7  C   UNL A   1     -24.816  -2.384  29.443  0.00  0.00    +0.081 A 
ATOM      8  N   UNL A   1     -25.944  -2.951  29.754  0.00  0.00    -0.244 NA
ATOM      9  C   UNL A   1     -23.831  -3.541  28.796  0.00  0.00    +0.019 A 
ATOM     10  C   UNL A   1     -26.335  -4.305  29.697  0.00  0.00    +0.099 A 
ATOM     11  C   UNL A   1     -24.272  -4.906  28.744  0.00  0.00    +0.003 A 
ATOM     12  C   UNL A   1     -25.465  -5.253  29.272  0.00  0.00    +0.021 A 
ENDBRANCH   1   7
BRANCH   4  13
ATOM     13  C   UNL A   1     -22.937   1.870  26.683  0.00  0.00    +0.419 C 
ATOM     14  F   UNL A   1     -23.297   2.907  27.061  0.00  0.00    -0.166 F 
ATOM     15  F   UNL A   1     -23.298   1.675  25.352  0.00  0.00    -0.166 F 
ATOM     16  F   UNL A   1     -21.559   1.854  26.738  0.00  0.00    -0.166 F 
ENDBRANCH   4  13
TORSDOF 2
ENDMDL
ENDMDL
