MODEL 3319
MODEL 1
REMARK VINA RESULT:    -7.107      0.000      0.000
REMARK INTER + INTRA:         -10.659
REMARK INTER:                  -9.599
REMARK INTRA:                  -1.060
REMARK UNBOUND:                -1.060
REMARK  Name = No_3319-gen_results/8p0m/2024-11-26-14-13-15/
REMARK  6 active torsions:
REMARK  status: ('A' for Active; 'I' for Inactive)
REMARK    1  A    between atoms: C_1  and  C_2
REMARK    2  A    between atoms: C_1  and  N_8
REMARK    3  A    between atoms: C_4  and  C_27
REMARK    4  A    between atoms: C_9  and  C_10
REMARK    5  A    between atoms: C_10  and  N_11
REMARK    6  A    between atoms: C_18  and  N_20
REMARK                            x       y       z     vdW  Elec       q    Type
REMARK                         _______ _______ _______ _____ _____    ______ ____
ROOT
ATOM      1  C   UNL A   1     -30.910 -12.247  11.245  0.00  0.00    +0.184 C 
ENDROOT
BRANCH   1   2
ATOM      2  N   UNL A   1     -30.457 -11.321  10.448  0.00  0.00    -0.227 N 
ATOM      3  C   UNL A   1     -30.672 -10.017  10.592  0.00  0.00    +0.327 C 
ATOM      4  C   UNL A   1     -29.574 -11.588   9.304  0.00  0.00    +0.244 C 
ATOM      5  O   UNL A   1     -31.695  -9.564  11.041  0.00  0.00    -0.251 OA
ATOM      6  N   UNL A   1     -29.991  -9.078   9.742  0.00  0.00    -0.173 NA
ATOM      7  C   UNL A   1     -29.024  -9.360   8.879  0.00  0.00    +0.161 C 
ATOM      8  C   UNL A   1     -28.729 -10.721   8.704  0.00  0.00    +0.095 C 
ATOM      9  F   UNL A   1     -29.307 -12.886   9.158  0.00  0.00    -0.215 F 
BRANCH   7  10
ATOM     10  N   UNL A   1     -28.329  -8.342   8.355  0.00  0.00    -0.257 NA
ATOM     11  C   UNL A   1     -28.102  -7.146   8.912  0.00  0.00    +0.074 C 
ATOM     12  C   UNL A   1     -27.829  -8.536   7.040  0.00  0.00    +0.074 C 
ATOM     13  C   UNL A   1     -27.104  -7.456   6.419  0.00  0.00    +0.017 C 
ATOM     14  C   UNL A   1     -27.190  -6.458   8.525  0.00  0.00    +0.017 C 
ATOM     15  C   UNL A   1     -26.731  -6.399   7.204  0.00  0.00    +0.003 C 
ENDBRANCH   7  10
ENDBRANCH   1   2
BRANCH   1  17
ATOM     16  N   UNL A   1     -29.901 -14.099  12.153  0.00  0.00    -0.199 NA
ATOM     17  C   UNL A   1     -30.077 -12.733  12.074  0.00  0.00    +0.262 C 
ATOM     18  O   UNL A   1     -29.098 -11.996  12.489  0.00  0.00    -0.272 OA
BRANCH  16  19
ATOM     19  C   UNL A   1     -30.619 -15.071  11.464  0.00  0.00    +0.141 C 
BRANCH  19  20
ATOM     20  C   UNL A   1     -30.199 -15.529  10.427  0.00  0.00    -0.000 A 
ATOM     21  C   UNL A   1     -28.977 -16.104  10.291  0.00  0.00    +0.005 A 
ATOM     22  C   UNL A   1     -28.449 -16.670   9.030  0.00  0.00    +0.090 A 
ATOM     23  C   UNL A   1     -29.311 -16.621   7.885  0.00  0.00    +0.064 A 
ATOM     24  C   UNL A   1     -30.602 -16.081   8.085  0.00  0.00    +0.011 A 
ATOM     25  C   UNL A   1     -31.023 -15.573   9.287  0.00  0.00    -0.002 A 
ATOM     26 CL   UNL A   1     -28.836 -17.250   6.415  0.00  0.00    -0.082 Cl
BRANCH  22  27
ATOM     27  C   UNL A   1     -27.108 -17.273   8.865  0.00  0.00    +0.389 C 
ATOM     28  O   UNL A   1     -27.012 -18.463   8.946  0.00  0.00    -0.240 OA
ATOM     29  O   UNL A   1     -26.140 -16.460   8.650  0.00  0.00    -0.240 OA
ENDBRANCH  22  27
ENDBRANCH  19  20
ENDBRANCH  16  19
ENDBRANCH   1  17
TORSDOF 6
ENDMDL
ENDMDL
