REMARK  Name = No_3319-gen_results/8p0m/2024-11-26-14-13-15/
REMARK  6 active torsions:
REMARK  status: ('A' for Active; 'I' for Inactive)
REMARK    1  A    between atoms: C_1  and  C_2
REMARK    2  A    between atoms: C_1  and  N_8
REMARK    3  A    between atoms: C_4  and  C_27
REMARK    4  A    between atoms: C_9  and  C_10
REMARK    5  A    between atoms: C_10  and  N_11
REMARK    6  A    between atoms: C_18  and  N_20
REMARK                            x       y       z     vdW  Elec       q    Type
REMARK                         _______ _______ _______ _____ _____    ______ ____
ROOT
ATOM      1  C   UNL A   1     -30.329  -2.231  29.745  0.00  0.00    +0.184 C 
ENDROOT
BRANCH   1   2
ATOM      2  N   UNL A   1     -30.229  -3.473  30.126  0.00  0.00    -0.227 N 
ATOM      3  C   UNL A   1     -29.117  -4.048  30.572  0.00  0.00    +0.327 C 
ATOM      4  C   UNL A   1     -31.365  -4.403  30.185  0.00  0.00    +0.244 C 
ATOM      5  O   UNL A   1     -28.019  -3.761  30.164  0.00  0.00    -0.251 OA
ATOM      6  N   UNL A   1     -29.163  -5.379  31.114  0.00  0.00    -0.173 NA
ATOM      7  C   UNL A   1     -30.257  -6.087  31.360  0.00  0.00    +0.161 C 
ATOM      8  C   UNL A   1     -31.469  -5.520  30.939  0.00  0.00    +0.095 C 
ATOM      9  F   UNL A   1     -32.506  -3.842  29.782  0.00  0.00    -0.215 F 
BRANCH   7  10
ATOM     10  N   UNL A   1     -30.136  -7.201  32.095  0.00  0.00    -0.257 NA
ATOM     11  C   UNL A   1     -29.689  -7.295  33.353  0.00  0.00    +0.074 C 
ATOM     12  C   UNL A   1     -30.464  -8.420  31.444  0.00  0.00    +0.074 C 
ATOM     13  C   UNL A   1     -30.316  -9.649  32.182  0.00  0.00    +0.017 C 
ATOM     14  C   UNL A   1     -29.954  -8.263  34.023  0.00  0.00    +0.017 C 
ATOM     15  C   UNL A   1     -30.099  -9.565  33.531  0.00  0.00    +0.003 C 
ENDBRANCH   7  10
ENDBRANCH   1   2
BRANCH   1  17
ATOM     16  N   UNL A   1     -28.703  -0.643  30.075  0.00  0.00    -0.199 NA
ATOM     17  C   UNL A   1     -29.798  -1.363  30.508  0.00  0.00    +0.262 C 
ATOM     18  O   UNL A   1     -30.510  -0.830  31.447  0.00  0.00    -0.272 OA
BRANCH  16  19
ATOM     19  C   UNL A   1     -28.016  -0.814  28.878  0.00  0.00    +0.141 C 
BRANCH  19  20
ATOM     20  C   UNL A   1     -27.064  -0.119  28.608  0.00  0.00    -0.000 A 
ATOM     21  C   UNL A   1     -26.929   1.171  29.008  0.00  0.00    +0.005 A 
ATOM     22  C   UNL A   1     -25.770   2.034  28.688  0.00  0.00    +0.090 A 
ATOM     23  C   UNL A   1     -24.714   1.443  27.919  0.00  0.00    +0.064 A 
ATOM     24  C   UNL A   1     -24.859   0.078  27.584  0.00  0.00    +0.011 A 
ATOM     25  C   UNL A   1     -25.965  -0.661  27.916  0.00  0.00    -0.002 A 
ATOM     26 CL   UNL A   1     -23.346   2.310  27.517  0.00  0.00    -0.082 Cl
BRANCH  22  27
ATOM     27  C   UNL A   1     -25.627   3.449  29.095  0.00  0.00    +0.389 C 
ATOM     28  O   UNL A   1     -25.454   3.686  30.255  0.00  0.00    -0.240 OA
ATOM     29  O   UNL A   1     -25.705   4.322  28.160  0.00  0.00    -0.240 OA
ENDBRANCH  22  27
ENDBRANCH  19  20
ENDBRANCH  16  19
ENDBRANCH   1  17
TORSDOF 6
