MODEL 331
MODEL 1
REMARK VINA RESULT:    -4.736      0.000      0.000
REMARK INTER + INTRA:          -4.736
REMARK INTER:                  -4.736
REMARK INTRA:                   0.000
REMARK UNBOUND:                 0.000
REMARK  Name = No_331-gen_results/8p0m/2024-11-26-14-13-15/
REMARK  0 active torsions:
REMARK  status: ('A' for Active; 'I' for Inactive)
REMARK                            x       y       z     vdW  Elec       q    Type
REMARK                         _______ _______ _______ _____ _____    ______ ____
ROOT
ATOM      1  C   UNL A   1     -23.695  -1.491  28.898  0.00  0.00    +0.226 C 
ATOM      2  C   UNL A   1     -24.322  -2.497  29.135  0.00  0.00    -0.002 C 
ATOM      3  C   UNL A   1     -25.622  -2.495  29.639  0.00  0.00    +0.025 C 
ATOM      4  C   UNL A   1     -26.454  -3.670  29.968  0.00  0.00    +0.004 C 
ATOM      5  C   UNL A   1     -25.944  -4.932  29.535  0.00  0.00    +0.001 C 
ATOM      6  C   UNL A   1     -24.661  -4.974  28.981  0.00  0.00    +0.004 C 
ATOM      7  C   UNL A   1     -23.906  -3.872  28.777  0.00  0.00    +0.025 C 
ATOM      8  O   UNL A   1     -22.458  -1.609  28.868  0.00  0.00    -0.284 OA
ENDROOT
TORSDOF 0
ENDMDL
ENDMDL
