REMARK  Name = No_332-gen_results/8p0m/2024-11-26-14-13-15/
REMARK  12 active torsions:
REMARK  status: ('A' for Active; 'I' for Inactive)
REMARK    1  A    between atoms: C_5  and  C_14
REMARK    2  A    between atoms: C_9  and  C_11
REMARK    3  A    between atoms: C_11  and  C_12
REMARK    4  A    between atoms: C_14  and  O_16
REMARK    5  A    between atoms: O_16  and  C_17
REMARK    6  A    between atoms: C_17  and  C_18
REMARK    7  A    between atoms: C_18  and  O_20
REMARK    8  A    between atoms: O_20  and  C_22
REMARK    9  A    between atoms: C_22  and  C_23
REMARK   10  A    between atoms: C_26  and  C_29
REMARK   11  A    between atoms: N_31  and  C_32
REMARK   12  A    between atoms: C_33  and  C_34
REMARK                            x       y       z     vdW  Elec       q    Type
REMARK                         _______ _______ _______ _____ _____    ______ ____
ROOT
ATOM      1  C   UNL A   1     -32.384  -1.484  30.032  0.00  0.00    +0.317 C 
ENDROOT
BRANCH   1   2
ATOM      2  C   UNL A   1     -33.259  -1.160  28.922  0.00  0.00    +0.362 C 
ATOM      3  O   UNL A   1     -33.919  -1.892  28.421  0.00  0.00    -0.246 OA
BRANCH   2   4
ATOM      4  O   UNL A   1     -33.560   0.129  28.727  0.00  0.00    -0.441 OA
BRANCH   4   5
ATOM      5  C   UNL A   1     -33.736   0.999  29.334  0.00  0.00    +0.235 C 
BRANCH   5   6
ATOM      6  C   UNL A   1     -34.757   1.286  30.046  0.00  0.00    +0.021 A 
ATOM      7  C   UNL A   1     -34.842   2.450  30.902  0.00  0.00    -0.001 A 
ATOM      8  C   UNL A   1     -35.953   2.759  31.759  0.00  0.00    +0.004 A 
ATOM      9  C   UNL A   1     -37.008   1.797  31.649  0.00  0.00    +0.055 A 
ATOM     10  C   UNL A   1     -36.932   0.693  30.847  0.00  0.00    +0.004 A 
ATOM     11  C   UNL A   1     -35.828   0.419  30.119  0.00  0.00    -0.001 A 
BRANCH   9  12
ATOM     12  C   UNL A   1     -38.227   2.074  32.477  0.00  0.00    +0.269 C 
ATOM     13  O   UNL A   1     -38.220   2.856  33.351  0.00  0.00    -0.268 OA
ATOM     14  N   UNL A   1     -39.364   1.574  31.904  0.00  0.00    -0.174 NA
BRANCH  14  15
ATOM     15  C   UNL A   1     -40.616   1.799  32.546  0.00  0.00    +0.089 C 
ATOM     16  C   UNL A   1     -41.641   1.343  31.957  0.00  0.00    +0.018 C 
BRANCH  16  17
ATOM     17  C   UNL A   1     -42.942   1.508  32.505  0.00  0.00    +0.001 C 
ATOM     18  C   UNL A   1     -44.139   1.020  31.928  0.00  0.00    +0.000 C 
ENDBRANCH  16  17
ENDBRANCH  14  15
ENDBRANCH   9  12
ENDBRANCH   5   6
ENDBRANCH   4   5
ENDBRANCH   2   4
ENDBRANCH   1   2
BRANCH   1  19
ATOM     19  O   UNL A   1     -31.322  -0.667  30.113  0.00  0.00    -0.433 OA
BRANCH  19  20
ATOM     20  C   UNL A   1     -30.084  -1.163  30.289  0.00  0.00    +0.342 C 
ATOM     21  O   UNL A   1     -29.965  -2.089  30.751  0.00  0.00    -0.245 OA
BRANCH  20  26
ATOM     22  C   UNL A   1     -28.016  -0.814  28.878  0.00  0.00    +0.006 A 
ATOM     23  C   UNL A   1     -27.064  -0.119  28.608  0.00  0.00    +0.000 A 
ATOM     24  C   UNL A   1     -26.876   1.133  28.913  0.00  0.00    -0.000 A 
ATOM     25  C   UNL A   1     -27.901   1.807  29.644  0.00  0.00    +0.000 A 
ATOM     26  C   UNL A   1     -29.046  -0.232  29.718  0.00  0.00    +0.076 A 
ATOM     27  C   UNL A   1     -28.940   1.052  30.060  0.00  0.00    +0.006 A 
ATOM     28  C   UNL A   1     -25.873  -0.713  27.805  0.00  0.00    -0.000 A 
ATOM     29  C   UNL A   1     -25.286   0.051  26.800  0.00  0.00    -0.004 A 
ATOM     30  C   UNL A   1     -25.089   1.417  27.015  0.00  0.00    -0.022 A 
ATOM     31  C   UNL A   1     -26.093   2.016  27.980  0.00  0.00    -0.004 A 
BRANCH  30  32
ATOM     32  C   UNL A   1     -24.188   2.184  26.274  0.00  0.00    +0.034 C 
ATOM     33  C   UNL A   1     -23.466   1.588  25.215  0.00  0.00    +0.006 C 
BRANCH  32  34
ATOM     34  C   UNL A   1     -23.811   3.441  26.674  0.00  0.00    +0.072 C 
ATOM     35 BR   UNL A   1     -24.951   4.143  26.178  0.00  0.00    -0.080 Br
ENDBRANCH  32  34
ENDBRANCH  30  32
ENDBRANCH  20  26
ENDBRANCH  19  20
ENDBRANCH   1  19
TORSDOF 12
