REMARK  Name = No_3320-gen_results/8p0m/2024-11-26-14-13-15/
REMARK  0 active torsions:
REMARK  status: ('A' for Active; 'I' for Inactive)
REMARK                            x       y       z     vdW  Elec       q    Type
REMARK                         _______ _______ _______ _____ _____    ______ ____
ROOT
ATOM      1  C   UNL A   1     -28.016  -0.814  28.878  0.00  0.00    +0.006 A 
ATOM      2  C   UNL A   1     -27.064  -0.119  28.608  0.00  0.00    +0.030 A 
ATOM      3  C   UNL A   1     -26.972   0.714  27.506  0.00  0.00    +0.143 A 
ATOM      4  C   UNL A   1     -28.105   0.774  26.642  0.00  0.00    +0.072 A 
ATOM      5  C   UNL A   1     -29.204   0.118  27.048  0.00  0.00    +0.198 A 
ATOM      6  C   UNL A   1     -29.213  -0.609  28.128  0.00  0.00    +0.042 A 
ATOM      7  O   UNL A   1     -30.294   0.234  26.228  0.00  0.00    -0.286 OA
ATOM      8  F   UNL A   1     -25.852   1.389  27.174  0.00  0.00    -0.204 F 
ENDROOT
TORSDOF 0
