MODEL 3321
MODEL 1
REMARK VINA RESULT:    -7.596      0.000      0.000
REMARK INTER + INTRA:          -9.399
REMARK INTER:                  -8.928
REMARK INTRA:                  -0.471
REMARK UNBOUND:                -0.471
REMARK  Name = No_3321-gen_results/8p0m/2024-11-26-14-13-15/
REMARK  3 active torsions:
REMARK  status: ('A' for Active; 'I' for Inactive)
REMARK    1  A    between atoms: C_3  and  O_14
REMARK    2  A    between atoms: C_4  and  C_7
REMARK    3  A    between atoms: O_14  and  C_15
REMARK                            x       y       z     vdW  Elec       q    Type
REMARK                         _______ _______ _______ _____ _____    ______ ____
ROOT
ATOM      1  C   UNL A   1     -23.559   0.699  27.429  0.00  0.00    +0.067 A 
ATOM      2  C   UNL A   1     -22.641   0.806  27.936  0.00  0.00    +0.143 A 
ATOM      3  C   UNL A   1     -24.371  -0.520  27.805  0.00  0.00    +0.147 A 
ATOM      4  C   UNL A   1     -23.917  -1.313  28.592  0.00  0.00    +0.035 A 
ATOM      5  C   UNL A   1     -21.939   0.034  28.965  0.00  0.00    +0.030 A 
ATOM      6  C   UNL A   1     -22.657  -1.111  29.275  0.00  0.00    +0.005 A 
ATOM      7  F   UNL A   1     -21.842   2.007  27.597  0.00  0.00    -0.204 F 
ENDROOT
BRANCH   4   8
ATOM      8  C   UNL A   1     -24.629  -2.582  29.025  0.00  0.00    +0.003 A 
ATOM      9  C   UNL A   1     -25.651  -2.621  29.541  0.00  0.00    +0.000 A 
ATOM     10  C   UNL A   1     -23.949  -3.841  28.688  0.00  0.00    +0.000 A 
ATOM     11  C   UNL A   1     -24.614  -5.035  28.850  0.00  0.00    +0.000 A 
ATOM     12  C   UNL A   1     -26.393  -3.816  29.950  0.00  0.00    +0.000 A 
ATOM     13  C   UNL A   1     -25.851  -4.985  29.521  0.00  0.00    +0.000 A 
ENDBRANCH   4   8
BRANCH   3  14
ATOM     14  O   UNL A   1     -25.562  -0.756  27.161  0.00  0.00    -0.453 OA
BRANCH  14  15
ATOM     15  C   UNL A   1     -26.163   0.278  26.425  0.00  0.00    +0.145 A 
ATOM     16  C   UNL A   1     -26.210   0.185  25.090  0.00  0.00    +0.037 A 
ATOM     17  C   UNL A   1     -26.766   1.344  27.077  0.00  0.00    +0.037 A 
ATOM     18  C   UNL A   1     -27.482   2.275  26.364  0.00  0.00    +0.003 A 
ATOM     19  C   UNL A   1     -26.887   1.022  24.284  0.00  0.00    +0.003 A 
ATOM     20  C   UNL A   1     -27.500   2.153  24.927  0.00  0.00    +0.000 A 
ENDBRANCH  14  15
ENDBRANCH   3  14
TORSDOF 3
ENDMDL
ENDMDL
