REMARK  Name = No_3322-gen_results/8p0m/2024-11-26-14-13-15/
REMARK  4 active torsions:
REMARK  status: ('A' for Active; 'I' for Inactive)
REMARK    1  A    between atoms: C_3  and  C_4
REMARK    2  A    between atoms: C_4  and  C_5
REMARK    3  A    between atoms: C_11  and  C_16
REMARK    4  A    between atoms: C_16  and  C_17
REMARK                            x       y       z     vdW  Elec       q    Type
REMARK                         _______ _______ _______ _____ _____    ______ ____
ROOT
ATOM      1  C   UNL A   1     -28.016  -0.814  28.878  0.00  0.00    +0.003 A 
ATOM      2  C   UNL A   1     -28.469  -0.785  29.829  0.00  0.00    -0.000 A 
ATOM      3  C   UNL A   1     -28.196   0.348  28.055  0.00  0.00    +0.039 A 
ATOM      4  C   UNL A   1     -29.474   0.105  30.372  0.00  0.00    -0.004 A 
ATOM      5  C   UNL A   1     -29.104   1.301  28.420  0.00  0.00    -0.001 A 
ATOM      6  C   UNL A   1     -29.740   1.185  29.597  0.00  0.00    -0.018 A 
ENDROOT
BRANCH   3   7
ATOM      7  C   UNL A   1     -27.442   0.510  26.795  0.00  0.00    +0.196 C 
ATOM      8  O   UNL A   1     -28.219  -0.067  25.790  0.00  0.00    -0.287 OA
BRANCH   7   9
ATOM      9  C   UNL A   1     -26.439   0.833  26.614  0.00  0.00    +0.039 A 
ATOM     10  C   UNL A   1     -25.500   1.429  27.346  0.00  0.00    +0.003 A 
ATOM     11  C   UNL A   1     -24.106   1.763  27.026  0.00  0.00    -0.004 A 
ATOM     12  C   UNL A   1     -23.874   1.875  25.652  0.00  0.00    -0.022 A 
ATOM     13  C   UNL A   1     -25.799   0.762  25.115  0.00  0.00    +0.003 A 
ATOM     14  C   UNL A   1     -22.497   2.368  25.376  0.00  0.00    +0.031 C 
ATOM     15  C   UNL A   1     -24.637   1.252  24.734  0.00  0.00    -0.004 A 
ENDBRANCH   7   9
ENDBRANCH   3   7
BRANCH   6  16
ATOM     16  C   UNL A   1     -30.723   2.209  30.041  0.00  0.00    +0.053 C 
BRANCH  16  17
ATOM     17  C   UNL A   1     -30.208   3.263  30.620  0.00  0.00    -0.018 A 
ATOM     18  C   UNL A   1     -31.107   4.335  31.071  0.00  0.00    -0.004 A 
ATOM     19  C   UNL A   1     -30.606   5.508  31.723  0.00  0.00    -0.000 A 
ATOM     20  C   UNL A   1     -28.942   3.423  31.260  0.00  0.00    -0.004 A 
ATOM     21  C   UNL A   1     -28.455   4.543  31.891  0.00  0.00    -0.000 A 
ATOM     22  C   UNL A   1     -29.320   5.577  32.172  0.00  0.00    -0.000 A 
ENDBRANCH  16  17
ENDBRANCH   6  16
TORSDOF 4
