MODEL 3322
MODEL 1
REMARK VINA RESULT:    -7.803      0.000      0.000
REMARK INTER + INTRA:         -10.870
REMARK INTER:                  -9.628
REMARK INTRA:                  -1.242
REMARK UNBOUND:                -1.242
REMARK  Name = No_3322-gen_results/8p0m/2024-11-26-14-13-15/
REMARK  4 active torsions:
REMARK  status: ('A' for Active; 'I' for Inactive)
REMARK    1  A    between atoms: C_3  and  C_4
REMARK    2  A    between atoms: C_4  and  C_5
REMARK    3  A    between atoms: C_11  and  C_16
REMARK    4  A    between atoms: C_16  and  C_17
REMARK                            x       y       z     vdW  Elec       q    Type
REMARK                         _______ _______ _______ _____ _____    ______ ____
ROOT
ATOM      1  C   UNL A   1     -22.327   1.892  26.817  0.00  0.00    +0.003 A 
ATOM      2  C   UNL A   1     -21.538   1.506  27.400  0.00  0.00    -0.000 A 
ATOM      3  C   UNL A   1     -23.655   1.563  27.251  0.00  0.00    +0.039 A 
ATOM      4  C   UNL A   1     -21.529   0.473  28.415  0.00  0.00    -0.004 A 
ATOM      5  C   UNL A   1     -23.835   0.609  28.212  0.00  0.00    -0.001 A 
ATOM      6  C   UNL A   1     -22.762   0.068  28.810  0.00  0.00    -0.018 A 
ENDROOT
BRANCH   3   7
ATOM      7  C   UNL A   1     -24.834   2.212  26.642  0.00  0.00    +0.196 C 
ATOM      8  O   UNL A   1     -24.939   3.474  27.228  0.00  0.00    -0.287 OA
BRANCH   7   9
ATOM      9  C   UNL A   1     -25.602   1.821  26.009  0.00  0.00    +0.039 A 
ATOM     10  C   UNL A   1     -26.837   2.200  25.690  0.00  0.00    +0.003 A 
ATOM     11  C   UNL A   1     -27.796   1.631  24.734  0.00  0.00    -0.004 A 
ATOM     12  C   UNL A   1     -27.556   0.282  24.460  0.00  0.00    -0.022 A 
ATOM     13  C   UNL A   1     -25.425   0.369  25.286  0.00  0.00    +0.003 A 
ATOM     14  C   UNL A   1     -28.637  -0.298  23.616  0.00  0.00    +0.031 C 
ATOM     15  C   UNL A   1     -26.342  -0.283  24.601  0.00  0.00    -0.004 A 
ENDBRANCH   7   9
ENDBRANCH   3   7
BRANCH   6  16
ATOM     16  C   UNL A   1     -22.914  -0.960  29.873  0.00  0.00    +0.053 C 
BRANCH  16  17
ATOM     17  C   UNL A   1     -23.961  -1.736  29.754  0.00  0.00    -0.018 A 
ATOM     18  C   UNL A   1     -23.809  -3.034  29.082  0.00  0.00    -0.004 A 
ATOM     19  C   UNL A   1     -24.914  -3.934  28.932  0.00  0.00    -0.000 A 
ATOM     20  C   UNL A   1     -25.180  -1.741  30.498  0.00  0.00    -0.004 A 
ATOM     21  C   UNL A   1     -26.243  -2.601  30.363  0.00  0.00    -0.000 A 
ATOM     22  C   UNL A   1     -26.083  -3.743  29.609  0.00  0.00    -0.000 A 
ENDBRANCH  16  17
ENDBRANCH   6  16
TORSDOF 4
ENDMDL
ENDMDL
