MODEL 3323
MODEL 1
REMARK VINA RESULT:    -4.358      0.000      0.000
REMARK INTER + INTRA:          -4.358
REMARK INTER:                  -4.358
REMARK INTRA:                   0.000
REMARK UNBOUND:                 0.000
REMARK  Name = No_3323-gen_results/8p0m/2024-11-26-14-13-15/
REMARK  0 active torsions:
REMARK  status: ('A' for Active; 'I' for Inactive)
REMARK                            x       y       z     vdW  Elec       q    Type
REMARK                         _______ _______ _______ _____ _____    ______ ____
ROOT
ATOM      1  C   UNL A   1     -24.951  -5.397  29.035  0.00  0.00    +0.000 A 
ATOM      2  C   UNL A   1     -24.211  -4.731  28.690  0.00  0.00    +0.000 A 
ATOM      3  C   UNL A   1     -26.131  -4.723  29.590  0.00  0.00    +0.000 A 
ATOM      4  C   UNL A   1     -26.171  -3.407  29.801  0.00  0.00    +0.000 A 
ATOM      5  C   UNL A   1     -24.025  -3.307  28.823  0.00  0.00    +0.000 A 
ATOM      6  C   UNL A   1     -25.121  -2.702  29.363  0.00  0.00    +0.000 A 
ENDROOT
TORSDOF 0
ENDMDL
ENDMDL
