REMARK  Name = No_3324-gen_results/8p0m/2024-11-26-14-13-15/
REMARK  3 active torsions:
REMARK  status: ('A' for Active; 'I' for Inactive)
REMARK    1  A    between atoms: C_2  and  C_9
REMARK    2  A    between atoms: C_9  and  C_10
REMARK    3  A    between atoms: C_9  and  C_16
REMARK                            x       y       z     vdW  Elec       q    Type
REMARK                         _______ _______ _______ _____ _____    ______ ____
ROOT
ATOM      1  C   UNL A   1     -25.880  -0.288  29.609  0.00  0.00    +0.047 C 
ENDROOT
BRANCH   1   3
ATOM      2  C   UNL A   1     -28.016  -0.814  28.878  0.00  0.00    +0.137 A 
ATOM      3  C   UNL A   1     -27.064  -0.119  28.608  0.00  0.00    +0.009 A 
ATOM      4  C   UNL A   1     -27.001   0.691  27.491  0.00  0.00    -0.001 A 
ATOM      5  C   UNL A   1     -28.137   0.736  26.635  0.00  0.00    +0.011 A 
ATOM      6  C   UNL A   1     -29.236   0.076  27.069  0.00  0.00    +0.060 A 
ATOM      7  C   UNL A   1     -29.218  -0.643  28.175  0.00  0.00    +0.041 A 
ATOM      8  F   UNL A   1     -28.047  -1.548  30.009  0.00  0.00    -0.204 F 
ATOM      9 CL   UNL A   1     -30.619   0.164  26.068  0.00  0.00    -0.082 Cl
ENDBRANCH   1   3
BRANCH   1  10
ATOM     10  C   UNL A   1     -25.729   0.588  30.617  0.00  0.00    -0.018 A 
ATOM     11  C   UNL A   1     -26.330   1.819  30.661  0.00  0.00    -0.004 A 
ATOM     12  C   UNL A   1     -25.988   2.682  31.755  0.00  0.00    -0.000 A 
ATOM     13  C   UNL A   1     -25.171   2.252  32.757  0.00  0.00    -0.000 A 
ATOM     14  C   UNL A   1     -24.561   1.029  32.704  0.00  0.00    -0.000 A 
ATOM     15  C   UNL A   1     -24.792   0.206  31.649  0.00  0.00    -0.004 A 
ENDBRANCH   1  10
BRANCH   1  16
ATOM     16  C   UNL A   1     -25.677  -1.758  29.938  0.00  0.00    +0.009 C 
ATOM     17  C   UNL A   1     -26.399  -2.698  29.417  0.00  0.00    +0.001 C 
ENDBRANCH   1  16
TORSDOF 3
