MODEL 3324
MODEL 1
REMARK VINA RESULT:    -7.086      0.000      0.000
REMARK INTER + INTRA:          -9.176
REMARK INTER:                  -8.328
REMARK INTRA:                  -0.848
REMARK UNBOUND:                -0.848
REMARK  Name = No_3324-gen_results/8p0m/2024-11-26-14-13-15/
REMARK  3 active torsions:
REMARK  status: ('A' for Active; 'I' for Inactive)
REMARK    1  A    between atoms: C_2  and  C_9
REMARK    2  A    between atoms: C_9  and  C_10
REMARK    3  A    between atoms: C_9  and  C_16
REMARK                            x       y       z     vdW  Elec       q    Type
REMARK                         _______ _______ _______ _____ _____    ______ ____
ROOT
ATOM      1  C   UNL A   1     -24.718  -1.279  29.742  0.00  0.00    +0.047 C 
ENDROOT
BRANCH   1   3
ATOM      2  C   UNL A   1     -24.878  -0.138  27.731  0.00  0.00    +0.137 A 
ATOM      3  C   UNL A   1     -24.130  -0.318  28.664  0.00  0.00    +0.009 A 
ATOM      4  C   UNL A   1     -22.858   0.215  28.738  0.00  0.00    -0.001 A 
ATOM      5  C   UNL A   1     -22.424   1.053  27.673  0.00  0.00    +0.011 A 
ATOM      6  C   UNL A   1     -23.354   1.361  26.740  0.00  0.00    +0.060 A 
ATOM      7  C   UNL A   1     -24.564   0.835  26.771  0.00  0.00    +0.041 A 
ATOM      8  F   UNL A   1     -26.130  -0.640  27.732  0.00  0.00    -0.204 F 
ATOM      9 CL   UNL A   1     -22.852   2.405  25.483  0.00  0.00    -0.082 Cl
ENDBRANCH   1   3
BRANCH   1  10
ATOM     10  C   UNL A   1     -24.785  -2.599  29.495  0.00  0.00    -0.018 A 
ATOM     11  C   UNL A   1     -23.815  -3.305  28.833  0.00  0.00    -0.004 A 
ATOM     12  C   UNL A   1     -24.079  -4.688  28.555  0.00  0.00    -0.000 A 
ATOM     13  C   UNL A   1     -25.210  -5.291  29.018  0.00  0.00    -0.000 A 
ATOM     14  C   UNL A   1     -26.182  -4.581  29.666  0.00  0.00    -0.000 A 
ATOM     15  C   UNL A   1     -26.014  -3.252  29.885  0.00  0.00    -0.004 A 
ENDBRANCH   1  10
BRANCH   1  16
ATOM     16  C   UNL A   1     -24.252  -0.861  31.127  0.00  0.00    +0.009 C 
ATOM     17  C   UNL A   1     -24.811   0.099  31.793  0.00  0.00    +0.001 C 
ENDBRANCH   1  16
TORSDOF 3
ENDMDL
ENDMDL
