REMARK  Name = No_3325-gen_results/8p0m/2024-11-26-14-13-15/
REMARK  3 active torsions:
REMARK  status: ('A' for Active; 'I' for Inactive)
REMARK    1  A    between atoms: C_4  and  C_8
REMARK    2  A    between atoms: C_8  and  C_9
REMARK    3  A    between atoms: C_8  and  C_15
REMARK                            x       y       z     vdW  Elec       q    Type
REMARK                         _______ _______ _______ _____ _____    ______ ____
ROOT
ATOM      1  C   UNL A   1     -24.380  -0.802  30.142  0.00  0.00    +0.109 C 
ENDROOT
BRANCH   1   5
ATOM      2  C   UNL A   1     -28.016  -0.814  28.878  0.00  0.00    +0.029 A 
ATOM      3  C   UNL A   1     -28.469  -0.785  29.829  0.00  0.00    +0.140 A 
ATOM      4  C   UNL A   1     -26.504  -0.778  28.877  0.00  0.00    -0.001 A 
ATOM      5  C   UNL A   1     -25.810  -0.853  30.103  0.00  0.00    -0.011 A 
ATOM      6  C   UNL A   1     -27.991  -0.892  31.226  0.00  0.00    +0.029 A 
ATOM      7  C   UNL A   1     -26.604  -0.868  31.265  0.00  0.00    -0.001 A 
ATOM      8  F   UNL A   1     -29.920  -0.833  29.824  0.00  0.00    -0.204 F 
ENDBRANCH   1   5
BRANCH   1   9
ATOM      9  C   UNL A   1     -23.632  -0.317  29.120  0.00  0.00    -0.010 A 
ATOM     10  C   UNL A   1     -23.833   0.788  28.345  0.00  0.00    +0.008 A 
ATOM     11  C   UNL A   1     -22.884   1.275  27.454  0.00  0.00    +0.057 A 
ATOM     12  C   UNL A   1     -21.532   1.057  27.728  0.00  0.00    +0.011 A 
ATOM     13  C   UNL A   1     -21.213   0.044  28.617  0.00  0.00    +0.001 A 
ATOM     14  C   UNL A   1     -22.149  -0.570  29.390  0.00  0.00    -0.004 A 
ATOM     15 CL   UNL A   1     -23.294   2.525  26.337  0.00  0.00    -0.082 Cl
ENDBRANCH   1   9
BRANCH   1  16
ATOM     16  C   UNL A   1     -23.797  -1.292  31.421  0.00  0.00    +0.216 C 
ATOM     17  O   UNL A   1     -23.758  -0.471  32.421  0.00  0.00    -0.288 OA
ENDBRANCH   1  16
TORSDOF 3
