MODEL 3325
MODEL 1
REMARK VINA RESULT:    -6.846      0.000      0.000
REMARK INTER + INTRA:          -8.641
REMARK INTER:                  -8.046
REMARK INTRA:                  -0.595
REMARK UNBOUND:                -0.595
REMARK  Name = No_3325-gen_results/8p0m/2024-11-26-14-13-15/
REMARK  3 active torsions:
REMARK  status: ('A' for Active; 'I' for Inactive)
REMARK    1  A    between atoms: C_4  and  C_8
REMARK    2  A    between atoms: C_8  and  C_9
REMARK    3  A    between atoms: C_8  and  C_15
REMARK                            x       y       z     vdW  Elec       q    Type
REMARK                         _______ _______ _______ _____ _____    ______ ____
ROOT
ATOM      1  C   UNL A   1     -24.023  -0.597  29.174  0.00  0.00    +0.109 C 
ENDROOT
BRANCH   1   5
ATOM      2  C   UNL A   1     -22.185   1.909  26.903  0.00  0.00    +0.029 A 
ATOM      3  C   UNL A   1     -22.934   1.967  26.164  0.00  0.00    +0.140 A 
ATOM      4  C   UNL A   1     -22.505   1.023  28.085  0.00  0.00    -0.001 A 
ATOM      5  C   UNL A   1     -23.678   0.239  28.064  0.00  0.00    -0.011 A 
ATOM      6  C   UNL A   1     -24.198   1.246  25.888  0.00  0.00    +0.029 A 
ATOM      7  C   UNL A   1     -24.522   0.416  26.952  0.00  0.00    -0.001 A 
ATOM      8  F   UNL A   1     -22.616   2.809  25.025  0.00  0.00    -0.204 F 
ENDBRANCH   1   5
BRANCH   1   9
ATOM      9  C   UNL A   1     -24.672  -1.779  29.032  0.00  0.00    -0.010 A 
ATOM     10  C   UNL A   1     -24.164  -3.042  28.930  0.00  0.00    +0.008 A 
ATOM     11  C   UNL A   1     -24.952  -4.185  28.979  0.00  0.00    +0.057 A 
ATOM     12  C   UNL A   1     -26.143  -4.149  29.708  0.00  0.00    +0.011 A 
ATOM     13  C   UNL A   1     -26.682  -2.906  29.995  0.00  0.00    +0.001 A 
ATOM     14  C   UNL A   1     -25.991  -1.749  29.803  0.00  0.00    -0.004 A 
ATOM     15 CL   UNL A   1     -24.278  -5.729  28.603  0.00  0.00    -0.082 Cl
ENDBRANCH   1   9
BRANCH   1  16
ATOM     16  C   UNL A   1     -23.569  -0.067  30.488  0.00  0.00    +0.216 C 
ATOM     17  O   UNL A   1     -22.709  -0.766  31.158  0.00  0.00    -0.288 OA
ENDBRANCH   1  16
TORSDOF 3
ENDMDL
ENDMDL
