MODEL 3326
MODEL 1
REMARK VINA RESULT:    -5.125      0.000      0.000
REMARK INTER + INTRA:          -6.125
REMARK INTER:                  -6.023
REMARK INTRA:                  -0.102
REMARK UNBOUND:                -0.102
REMARK  Name = No_3326-gen_results/8p0m/2024-11-26-14-13-15/
REMARK  3 active torsions:
REMARK  status: ('A' for Active; 'I' for Inactive)
REMARK    1  A    between atoms: P_1  and  O_2
REMARK    2  A    between atoms: O_2  and  C_6
REMARK    3  A    between atoms: C_6  and  C_7
REMARK                            x       y       z     vdW  Elec       q    Type
REMARK                         _______ _______ _______ _____ _____    ______ ____
ROOT
ATOM      1  O   UNL A   1     -10.209 -10.049  18.926  0.00  0.00    -0.265 OA
ENDROOT
BRANCH   1   2
ATOM      2  P   UNL A   1      -9.985 -10.129  17.815  0.00  0.00    +0.533 P 
ATOM      3  O   UNL A   1      -9.211 -11.508  17.529  0.00  0.00    -0.115 OA
ATOM      4  O   UNL A   1     -11.288 -10.356  16.921  0.00  0.00    -0.222 OA
ATOM      5  O   UNL A   1      -9.249  -9.023  17.233  0.00  0.00    -0.115 OA
ENDBRANCH   1   2
BRANCH   1   6
ATOM      6  C   UNL A   1      -9.580  -9.230  19.790  0.00  0.00    +0.180 C 
BRANCH   6   7
ATOM      7  C   UNL A   1      -8.273  -9.660  20.312  0.00  0.00    +0.002 C 
ATOM      8  C   UNL A   1      -7.243  -9.333  20.320  0.00  0.00    -0.028 C 
ATOM      9  C   UNL A   1      -6.968  -8.055  19.638  0.00  0.00    +0.030 C 
ENDBRANCH   6   7
ENDBRANCH   1   6
TORSDOF 3
ENDMDL
ENDMDL
