MODEL 3327
MODEL 1
REMARK VINA RESULT:    -4.995      0.000      0.000
REMARK INTER + INTRA:          -5.718
REMARK INTER:                  -5.579
REMARK INTRA:                  -0.139
REMARK UNBOUND:                -0.139
REMARK  Name = No_3327-gen_results/8p0m/2024-11-26-14-13-15/
REMARK  2 active torsions:
REMARK  status: ('A' for Active; 'I' for Inactive)
REMARK    1  A    between atoms: C_1  and  C_2
REMARK    2  A    between atoms: C_1  and  N_8
REMARK                            x       y       z     vdW  Elec       q    Type
REMARK                         _______ _______ _______ _____ _____    ______ ____
ROOT
ATOM      1  C   UNL A   1     -23.081  -0.409  28.583  0.00  0.00    +0.002 A 
ATOM      2  C   UNL A   1     -21.928   0.351  28.538  0.00  0.00    -0.002 A 
ATOM      3  C   UNL A   1     -21.702   1.497  27.677  0.00  0.00    -0.000 A 
ATOM      4  C   UNL A   1     -22.726   1.891  26.788  0.00  0.00    -0.000 A 
ATOM      5  C   UNL A   1     -23.940   1.115  26.835  0.00  0.00    -0.000 A 
ATOM      6  C   UNL A   1     -24.145   0.055  27.686  0.00  0.00    -0.002 A 
ENDROOT
BRANCH   1   7
ATOM      7  C   UNL A   1     -23.254  -1.317  29.362  0.00  0.00    +0.151 C 
BRANCH   7   8
ATOM      8  N   UNL A   1     -23.434  -2.606  28.883  0.00  0.00    -0.269 NA
ATOM      9  C   UNL A   1     -24.135  -3.348  29.199  0.00  0.00    +0.068 C 
ATOM     10  C   UNL A   1     -24.149  -4.764  28.533  0.00  0.00    +0.053 C 
ENDBRANCH   7   8
ENDBRANCH   1   7
TORSDOF 2
ENDMDL
ENDMDL
