REMARK  Name = No_3328-gen_results/8p0m/2024-11-26-14-13-15/
REMARK  0 active torsions:
REMARK  status: ('A' for Active; 'I' for Inactive)
REMARK                            x       y       z     vdW  Elec       q    Type
REMARK                         _______ _______ _______ _____ _____    ______ ____
ROOT
ATOM      1  C   UNL A   1     -28.016  -0.814  28.878  0.00  0.00    +0.038 A 
ATOM      2  C   UNL A   1     -28.469  -0.785  29.829  0.00  0.00    +0.148 A 
ATOM      3  C   UNL A   1     -27.087   0.290  28.638  0.00  0.00    +0.003 A 
ATOM      4  C   UNL A   1     -26.832   1.249  29.587  0.00  0.00    +0.003 A 
ATOM      5  C   UNL A   1     -28.391   0.080  31.006  0.00  0.00    +0.073 A 
ATOM      6  C   UNL A   1     -27.494   1.152  30.784  0.00  0.00    +0.006 A 
ATOM      7  C   UNL A   1     -26.260   0.604  27.415  0.00  0.00    +0.002 A 
ATOM      8  C   UNL A   1     -25.197   1.046  27.345  0.00  0.00    +0.030 A 
ATOM      9  C   UNL A   1     -24.844   2.044  28.464  0.00  0.00    +0.140 A 
ATOM     10  C   UNL A   1     -25.597   2.013  29.612  0.00  0.00    +0.030 A 
ATOM     11  F   UNL A   1     -23.749   2.790  28.258  0.00  0.00    -0.204 F 
ATOM     12  O   UNL A   1     -29.501  -1.835  30.100  0.00  0.00    -0.453 OA
ATOM     13  C   UNL A   1     -29.940  -2.100  31.369  0.00  0.00    +0.148 A 
ATOM     14  C   UNL A   1     -30.243  -3.227  31.649  0.00  0.00    +0.038 A 
ATOM     15  C   UNL A   1     -30.733  -3.664  32.969  0.00  0.00    +0.003 A 
ATOM     16  C   UNL A   1     -30.806  -2.676  33.968  0.00  0.00    +0.000 A 
ATOM     17  C   UNL A   1     -30.416  -1.416  33.635  0.00  0.00    +0.006 A 
ATOM     18  C   UNL A   1     -29.948  -1.103  32.392  0.00  0.00    +0.073 A 
ATOM     19  C   UNL A   1     -29.096  -0.114  32.228  0.00  0.00    +0.201 A 
ATOM     20  O   UNL A   1     -28.790   0.671  33.242  0.00  0.00    -0.286 OA
ENDROOT
TORSDOF 0
