MODEL 3328
MODEL 1
REMARK VINA RESULT:    -6.948      0.000      0.000
REMARK INTER + INTRA:          -6.948
REMARK INTER:                  -6.948
REMARK INTRA:                   0.000
REMARK UNBOUND:                 0.000
REMARK  Name = No_3328-gen_results/8p0m/2024-11-26-14-13-15/
REMARK  0 active torsions:
REMARK  status: ('A' for Active; 'I' for Inactive)
REMARK                            x       y       z     vdW  Elec       q    Type
REMARK                         _______ _______ _______ _____ _____    ______ ____
ROOT
ATOM      1  C   UNL A   1     -24.016  -1.612  28.184  0.00  0.00    +0.038 A 
ATOM      2  C   UNL A   1     -24.317  -0.602  28.205  0.00  0.00    +0.148 A 
ATOM      3  C   UNL A   1     -24.852  -2.489  29.004  0.00  0.00    +0.003 A 
ATOM      4  C   UNL A   1     -25.933  -2.018  29.708  0.00  0.00    +0.003 A 
ATOM      5  C   UNL A   1     -25.391   0.163  28.837  0.00  0.00    +0.073 A 
ATOM      6  C   UNL A   1     -26.206  -0.676  29.633  0.00  0.00    +0.006 A 
ATOM      7  C   UNL A   1     -24.744  -3.975  29.242  0.00  0.00    +0.002 A 
ATOM      8  C   UNL A   1     -25.581  -4.757  29.372  0.00  0.00    +0.030 A 
ATOM      9  C   UNL A   1     -26.852  -4.226  30.061  0.00  0.00    +0.140 A 
ATOM     10  C   UNL A   1     -27.050  -2.867  30.081  0.00  0.00    +0.030 A 
ATOM     11  F   UNL A   1     -27.717  -5.156  30.490  0.00  0.00    -0.204 F 
ATOM     12  O   UNL A   1     -23.445   0.361  27.461  0.00  0.00    -0.453 OA
ATOM     13  C   UNL A   1     -23.870   1.625  27.154  0.00  0.00    +0.148 A 
ATOM     14  C   UNL A   1     -23.493   2.125  26.130  0.00  0.00    +0.038 A 
ATOM     15  C   UNL A   1     -23.863   3.475  25.666  0.00  0.00    +0.003 A 
ATOM     16  C   UNL A   1     -24.754   4.195  26.483  0.00  0.00    +0.000 A 
ATOM     17  C   UNL A   1     -25.199   3.587  27.616  0.00  0.00    +0.006 A 
ATOM     18  C   UNL A   1     -24.825   2.320  27.957  0.00  0.00    +0.073 A 
ATOM     19  C   UNL A   1     -25.621   1.560  28.679  0.00  0.00    +0.201 A 
ATOM     20  O   UNL A   1     -26.726   2.060  29.194  0.00  0.00    -0.286 OA
ENDROOT
TORSDOF 0
ENDMDL
ENDMDL
