MODEL 3329
MODEL 1
REMARK VINA RESULT:    -5.065      0.000      0.000
REMARK INTER + INTRA:          -5.389
REMARK INTER:                  -5.361
REMARK INTRA:                  -0.028
REMARK UNBOUND:                -0.028
REMARK  Name = No_3329-gen_results/8p0m/2024-11-26-14-13-15/
REMARK  1 active torsions:
REMARK  status: ('A' for Active; 'I' for Inactive)
REMARK    1  A    between atoms: C_1  and  C_2
REMARK                            x       y       z     vdW  Elec       q    Type
REMARK                         _______ _______ _______ _____ _____    ______ ____
ROOT
ATOM      1  C   UNL A   1      -9.553  -9.938  17.956  0.00  0.00    +0.042 A 
ATOM      2  C   UNL A   1     -10.421  -9.526  19.022  0.00  0.00    +0.003 A 
ATOM      3  C   UNL A   1      -9.872  -8.977  20.279  0.00  0.00    +0.000 A 
ATOM      4  C   UNL A   1      -8.599  -9.394  20.710  0.00  0.00    +0.000 A 
ATOM      5  C   UNL A   1      -7.807 -10.173  19.842  0.00  0.00    +0.000 A 
ATOM      6  C   UNL A   1      -8.264 -10.533  18.628  0.00  0.00    +0.003 A 
ENDROOT
BRANCH   1   7
ATOM      7  C   UNL A   1     -10.008 -10.459  17.161  0.00  0.00    +0.234 C 
ATOM      8  O   UNL A   1     -11.160 -10.457  16.847  0.00  0.00    -0.283 OA
ENDBRANCH   1   7
TORSDOF 1
ENDMDL
ENDMDL
