MODEL 332
MODEL 1
REMARK VINA RESULT:    -6.021      0.000      0.000
REMARK INTER + INTRA:         -14.543
REMARK INTER:                 -10.244
REMARK INTRA:                  -4.298
REMARK UNBOUND:                -4.298
REMARK  Name = No_332-gen_results/8p0m/2024-11-26-14-13-15/
REMARK  12 active torsions:
REMARK  status: ('A' for Active; 'I' for Inactive)
REMARK    1  A    between atoms: C_5  and  C_14
REMARK    2  A    between atoms: C_9  and  C_11
REMARK    3  A    between atoms: C_11  and  C_12
REMARK    4  A    between atoms: C_14  and  O_16
REMARK    5  A    between atoms: O_16  and  C_17
REMARK    6  A    between atoms: C_17  and  C_18
REMARK    7  A    between atoms: C_18  and  O_20
REMARK    8  A    between atoms: O_20  and  C_22
REMARK    9  A    between atoms: C_22  and  C_23
REMARK   10  A    between atoms: C_26  and  C_29
REMARK   11  A    between atoms: N_31  and  C_32
REMARK   12  A    between atoms: C_33  and  C_34
REMARK                            x       y       z     vdW  Elec       q    Type
REMARK                         _______ _______ _______ _____ _____    ______ ____
ROOT
ATOM      1  C   UNL A   1     -23.134  -1.525  30.813  0.00  0.00    +0.317 C 
ENDROOT
BRANCH   1   2
ATOM      2  C   UNL A   1     -23.928  -1.246  31.994  0.00  0.00    +0.362 C 
ATOM      3  O   UNL A   1     -23.499  -1.001  32.984  0.00  0.00    -0.246 OA
BRANCH   2   4
ATOM      4  O   UNL A   1     -25.211  -0.913  31.813  0.00  0.00    -0.441 OA
BRANCH   4   5
ATOM      5  C   UNL A   1     -25.832  -0.579  31.001  0.00  0.00    +0.235 C 
BRANCH   5   6
ATOM      6  C   UNL A   1     -25.947   0.594  30.510  0.00  0.00    +0.021 A 
ATOM      7  C   UNL A   1     -25.129   1.719  30.908  0.00  0.00    -0.001 A 
ATOM      8  C   UNL A   1     -25.283   3.061  30.416  0.00  0.00    +0.004 A 
ATOM      9  C   UNL A   1     -26.325   3.165  29.441  0.00  0.00    +0.055 A 
ATOM     10  C   UNL A   1     -27.105   2.108  29.064  0.00  0.00    +0.004 A 
ATOM     11  C   UNL A   1     -26.959   0.885  29.618  0.00  0.00    -0.001 A 
BRANCH   9  12
ATOM     12  C   UNL A   1     -26.518   4.526  28.841  0.00  0.00    +0.269 C 
ATOM     13  O   UNL A   1     -27.583   4.963  28.619  0.00  0.00    -0.268 OA
ATOM     14  N   UNL A   1     -25.376   5.278  28.891  0.00  0.00    -0.174 NA
BRANCH  14  15
ATOM     15  C   UNL A   1     -25.410   6.617  28.405  0.00  0.00    +0.089 C 
ATOM     16  C   UNL A   1     -25.023   6.792  27.211  0.00  0.00    +0.018 C 
BRANCH  16  17
ATOM     17  C   UNL A   1     -25.014   8.084  26.620  0.00  0.00    +0.001 C 
ATOM     18  C   UNL A   1     -25.802   8.482  25.513  0.00  0.00    +0.000 C 
ENDBRANCH  16  17
ENDBRANCH  14  15
ENDBRANCH   9  12
ENDBRANCH   5   6
ENDBRANCH   4   5
ENDBRANCH   2   4
ENDBRANCH   1   2
BRANCH   1  19
ATOM     19  O   UNL A   1     -22.447  -0.455  30.384  0.00  0.00    -0.433 OA
BRANCH  19  20
ATOM     20  C   UNL A   1     -21.999  -0.387  29.117  0.00  0.00    +0.342 C 
ATOM     21  O   UNL A   1     -21.133  -0.902  28.853  0.00  0.00    -0.245 OA
BRANCH  20  26
ATOM     22  C   UNL A   1     -24.029  -0.220  27.620  0.00  0.00    +0.006 A 
ATOM     23  C   UNL A   1     -24.626   0.395  26.767  0.00  0.00    +0.000 A 
ATOM     24  C   UNL A   1     -24.448   1.632  26.400  0.00  0.00    -0.000 A 
ATOM     25  C   UNL A   1     -23.444   2.393  27.073  0.00  0.00    +0.000 A 
ATOM     26  C   UNL A   1     -22.917   0.452  28.267  0.00  0.00    +0.076 A 
ATOM     27  C   UNL A   1     -22.679   1.728  27.963  0.00  0.00    +0.006 A 
ATOM     28  C   UNL A   1     -25.755  -0.301  25.957  0.00  0.00    -0.000 A 
ATOM     29  C   UNL A   1     -26.926   0.401  25.687  0.00  0.00    -0.004 A 
ATOM     30  C   UNL A   1     -26.841   1.750  25.334  0.00  0.00    -0.022 A 
ATOM     31  C   UNL A   1     -25.621   2.438  25.914  0.00  0.00    -0.004 A 
BRANCH  30  32
ATOM     32  C   UNL A   1     -27.868   2.435  24.681  0.00  0.00    +0.034 C 
ATOM     33  C   UNL A   1     -28.203   2.092  23.352  0.00  0.00    +0.006 C 
BRANCH  32  34
ATOM     34  C   UNL A   1     -28.419   3.578  25.203  0.00  0.00    +0.072 C 
ATOM     35 BR   UNL A   1     -29.690   3.480  24.561  0.00  0.00    -0.080 Br
ENDBRANCH  32  34
ENDBRANCH  30  32
ENDBRANCH  20  26
ENDBRANCH  19  20
ENDBRANCH   1  19
TORSDOF 12
ENDMDL
ENDMDL
