MODEL 3330
MODEL 1
REMARK VINA RESULT:    -5.420      0.000      0.000
REMARK INTER + INTRA:          -8.087
REMARK INTER:                  -7.321
REMARK INTRA:                  -0.766
REMARK UNBOUND:                -0.766
REMARK  Name = No_3330-gen_results/8p0m/2024-11-26-14-13-15/
REMARK  6 active torsions:
REMARK  status: ('A' for Active; 'I' for Inactive)
REMARK    1  A    between atoms: C_3  and  O_12
REMARK    2  A    between atoms: C_4  and  C_7
REMARK    3  A    between atoms: O_12  and  C_13
REMARK    4  A    between atoms: C_13  and  C_14
REMARK    5  A    between atoms: C_14  and  C_15
REMARK    6  A    between atoms: C_15  and  C_16
REMARK                            x       y       z     vdW  Elec       q    Type
REMARK                         _______ _______ _______ _____ _____    ______ ____
ROOT
ATOM      1  C   UNL A   1     -23.833  -3.669  28.592  0.00  0.00    +0.006 C 
ATOM      2  C   UNL A   1     -24.197  -4.658  28.606  0.00  0.00    -0.002 C 
ATOM      3  C   UNL A   1     -24.724  -2.631  29.133  0.00  0.00    +0.179 C 
ATOM      4  C   UNL A   1     -25.950  -2.986  29.767  0.00  0.00    +0.267 C 
ATOM      5  C   UNL A   1     -26.264  -4.322  29.764  0.00  0.00    +0.017 C 
ATOM      6  C   UNL A   1     -25.420  -5.231  29.229  0.00  0.00    -0.002 C 
ATOM      7  F   UNL A   1     -25.562  -2.677  30.766  0.00  0.00    -0.224 F 
ENDROOT
BRANCH   4   8
ATOM      8  C   UNL A   1     -26.826  -1.986  30.319  0.00  0.00    +0.431 C 
ATOM      9  F   UNL A   1     -27.636  -2.509  31.178  0.00  0.00    -0.167 F 
ATOM     10  F   UNL A   1     -26.146  -1.049  31.020  0.00  0.00    -0.167 F 
ATOM     11  F   UNL A   1     -27.574  -1.321  29.431  0.00  0.00    -0.167 F 
ENDBRANCH   4   8
BRANCH   3  12
ATOM     12  O   UNL A   1     -25.146  -1.779  28.178  0.00  0.00    -0.348 OA
BRANCH  12  13
ATOM     13  C   UNL A   1     -24.442  -0.573  27.841  0.00  0.00    +0.143 C 
BRANCH  13  14
ATOM     14  C   UNL A   1     -23.723  -0.034  28.919  0.00  0.00    +0.040 C 
BRANCH  14  15
ATOM     15  C   UNL A   1     -22.518   0.297  28.480  0.00  0.00    +0.075 C 
BRANCH  15  16
ATOM     16  C   UNL A   1     -22.288   1.468  27.778  0.00  0.00    +0.207 C 
ATOM     17  O   UNL A   1     -22.692   2.459  27.955  0.00  0.00    -0.288 OA
ENDBRANCH  15  16
ENDBRANCH  14  15
ENDBRANCH  13  14
ENDBRANCH  12  13
ENDBRANCH   3  12
TORSDOF 6
ENDMDL
ENDMDL
