MODEL 3331
MODEL 1
REMARK VINA RESULT:    -6.612      0.000      0.000
REMARK INTER + INTRA:         -11.066
REMARK INTER:                  -9.317
REMARK INTRA:                  -1.749
REMARK UNBOUND:                -1.749
REMARK  Name = No_3331-gen_results/8p0m/2024-11-26-14-13-15/
REMARK  7 active torsions:
REMARK  status: ('A' for Active; 'I' for Inactive)
REMARK    1  A    between atoms: C_2  and  C_14
REMARK    2  A    between atoms: C_3  and  C_7
REMARK    3  A    between atoms: C_6  and  C_11
REMARK    4  A    between atoms: C_14  and  O_16
REMARK    5  A    between atoms: O_16  and  C_17
REMARK    6  A    between atoms: C_17  and  C_18
REMARK    7  A    between atoms: N_20  and  C_21
REMARK                            x       y       z     vdW  Elec       q    Type
REMARK                         _______ _______ _______ _____ _____    ______ ____
ROOT
ATOM      1  C   UNL A   1     -27.844  -1.409  30.942  0.00  0.00    +0.342 C 
ATOM      2  O   UNL A   1     -28.438  -1.569  31.799  0.00  0.00    -0.245 OA
ENDROOT
BRANCH   1   4
ATOM      3  C   UNL A   1     -25.552  -1.107  31.083  0.00  0.00    +0.010 A 
ATOM      4  C   UNL A   1     -26.248  -1.745  30.615  0.00  0.00    +0.076 A 
ATOM      5  C   UNL A   1     -24.158  -1.405  30.730  0.00  0.00    +0.072 A 
ATOM      6  C   UNL A   1     -23.811  -2.490  30.037  0.00  0.00    +0.010 A 
ATOM      7  C   UNL A   1     -26.117  -2.966  29.860  0.00  0.00    +0.013 A 
ATOM      8  C   UNL A   1     -24.814  -3.240  29.563  0.00  0.00    +0.080 A 
BRANCH   5   9
ATOM      9  C   UNL A   1     -23.110  -0.437  31.286  0.00  0.00    +0.419 C 
ATOM     10  F   UNL A   1     -23.531   0.621  31.649  0.00  0.00    -0.166 F 
ATOM     11  F   UNL A   1     -22.113  -0.258  30.358  0.00  0.00    -0.166 F 
ATOM     12  F   UNL A   1     -22.453  -0.986  32.392  0.00  0.00    -0.166 F 
ENDBRANCH   5   9
BRANCH   8  13
ATOM     13  C   UNL A   1     -24.483  -4.484  28.786  0.00  0.00    +0.388 C 
ATOM     14  O   UNL A   1     -23.694  -4.620  28.043  0.00  0.00    -0.241 OA
ATOM     15  O   UNL A   1     -25.381  -5.492  29.085  0.00  0.00    -0.241 OA
ENDBRANCH   8  13
ENDBRANCH   1   4
BRANCH   1  16
ATOM     16  O   UNL A   1     -28.479  -1.224  29.774  0.00  0.00    -0.435 OA
BRANCH  16  17
ATOM     17  C   UNL A   1     -28.560   0.147  29.326  0.00  0.00    +0.295 C 
BRANCH  17  18
ATOM     18  C   UNL A   1     -27.572   0.477  28.298  0.00  0.00    +0.290 C 
ATOM     19  O   UNL A   1     -27.510  -0.200  27.328  0.00  0.00    -0.269 OA
ATOM     20  N   UNL A   1     -26.593   1.286  28.653  0.00  0.00    -0.176 NA
BRANCH  20  21
ATOM     21  C   UNL A   1     -25.532   1.662  27.702  0.00  0.00    +0.074 A 
ATOM     22  C   UNL A   1     -25.647   2.482  26.972  0.00  0.00    +0.019 A 
ATOM     23  C   UNL A   1     -24.601   2.920  26.030  0.00  0.00    +0.031 A 
ATOM     24  C   UNL A   1     -23.410   2.185  26.104  0.00  0.00    +0.140 A 
ATOM     25  C   UNL A   1     -23.306   1.140  27.004  0.00  0.00    +0.031 A 
ATOM     26  C   UNL A   1     -24.328   0.860  27.841  0.00  0.00    +0.019 A 
ATOM     27  F   UNL A   1     -22.372   2.460  25.315  0.00  0.00    -0.204 F 
ENDBRANCH  20  21
ENDBRANCH  17  18
ENDBRANCH  16  17
ENDBRANCH   1  16
TORSDOF 7
ENDMDL
ENDMDL
