REMARK  Name = No_3331-gen_results/8p0m/2024-11-26-14-13-15/
REMARK  7 active torsions:
REMARK  status: ('A' for Active; 'I' for Inactive)
REMARK    1  A    between atoms: C_2  and  C_14
REMARK    2  A    between atoms: C_3  and  C_7
REMARK    3  A    between atoms: C_6  and  C_11
REMARK    4  A    between atoms: C_14  and  O_16
REMARK    5  A    between atoms: O_16  and  C_17
REMARK    6  A    between atoms: C_17  and  C_18
REMARK    7  A    between atoms: N_20  and  C_21
REMARK                            x       y       z     vdW  Elec       q    Type
REMARK                         _______ _______ _______ _____ _____    ______ ____
ROOT
ATOM      1  C   UNL A   1     -28.259  -2.151  30.754  0.00  0.00    +0.342 C 
ATOM      2  O   UNL A   1     -28.230  -2.299  31.798  0.00  0.00    -0.245 OA
ENDROOT
BRANCH   1   4
ATOM      3  C   UNL A   1     -28.016  -0.814  28.878  0.00  0.00    +0.010 A 
ATOM      4  C   UNL A   1     -28.469  -0.785  29.829  0.00  0.00    +0.076 A 
ATOM      5  C   UNL A   1     -28.182   0.428  28.113  0.00  0.00    +0.072 A 
ATOM      6  C   UNL A   1     -28.984   1.415  28.515  0.00  0.00    +0.010 A 
ATOM      7  C   UNL A   1     -29.380   0.138  30.461  0.00  0.00    +0.013 A 
ATOM      8  C   UNL A   1     -29.541   1.274  29.724  0.00  0.00    +0.080 A 
BRANCH   5   9
ATOM      9  C   UNL A   1     -27.445   0.487  26.773  0.00  0.00    +0.419 C 
ATOM     10  F   UNL A   1     -28.110   0.241  25.811  0.00  0.00    -0.166 F 
ATOM     11  F   UNL A   1     -26.348  -0.339  26.815  0.00  0.00    -0.166 F 
ATOM     12  F   UNL A   1     -26.906   1.758  26.549  0.00  0.00    -0.166 F 
ENDBRANCH   5   9
BRANCH   8  13
ATOM     13  C   UNL A   1     -30.466   2.349  30.225  0.00  0.00    +0.388 C 
ATOM     14  O   UNL A   1     -31.243   2.878  29.668  0.00  0.00    -0.241 OA
ATOM     15  O   UNL A   1     -30.173   2.663  31.539  0.00  0.00    -0.241 OA
ENDBRANCH   8  13
ENDBRANCH   1   4
BRANCH   1  16
ATOM     16  O   UNL A   1     -27.710  -3.099  29.979  0.00  0.00    -0.435 OA
BRANCH  16  17
ATOM     17  C   UNL A   1     -27.971  -4.459  30.390  0.00  0.00    +0.295 C 
BRANCH  17  18
ATOM     18  C   UNL A   1     -29.381  -4.835  30.279  0.00  0.00    +0.290 C 
ATOM     19  O   UNL A   1     -29.948  -4.628  29.259  0.00  0.00    -0.269 OA
ATOM     20  N   UNL A   1     -30.025  -5.065  31.406  0.00  0.00    -0.176 NA
BRANCH  20  21
ATOM     21  C   UNL A   1     -31.454  -5.425  31.408  0.00  0.00    +0.074 A 
ATOM     22  C   UNL A   1     -32.012  -5.653  32.333  0.00  0.00    +0.019 A 
ATOM     23  C   UNL A   1     -33.448  -5.979  32.389  0.00  0.00    +0.031 A 
ATOM     24  C   UNL A   1     -34.085  -6.006  31.141  0.00  0.00    +0.140 A 
ATOM     25  C   UNL A   1     -33.354  -5.751  29.994  0.00  0.00    +0.031 A 
ATOM     26  C   UNL A   1     -32.046  -5.429  30.081  0.00  0.00    +0.019 A 
ATOM     27  F   UNL A   1     -35.383  -6.286  31.027  0.00  0.00    -0.204 F 
ENDBRANCH  20  21
ENDBRANCH  17  18
ENDBRANCH  16  17
ENDBRANCH   1  16
TORSDOF 7
