MODEL 3332
MODEL 1
REMARK VINA RESULT:    -6.874      0.000      0.000
REMARK INTER + INTRA:         -14.187
REMARK INTER:                 -11.295
REMARK INTRA:                  -2.892
REMARK UNBOUND:                -2.892
REMARK  Name = No_3332-gen_results/8p0m/2024-11-26-14-13-15/
REMARK  11 active torsions:
REMARK  status: ('A' for Active; 'I' for Inactive)
REMARK    1  A    between atoms: C_2  and  C_20
REMARK    2  A    between atoms: C_4  and  C_11
REMARK    3  A    between atoms: C_11  and  C_12
REMARK    4  A    between atoms: C_20  and  N_21
REMARK    5  A    between atoms: N_21  and  C_22
REMARK    6  A    between atoms: N_21  and  C_23
REMARK    7  A    between atoms: C_22  and  N_25
REMARK    8  A    between atoms: N_25  and  C_30
REMARK    9  A    between atoms: C_30  and  C_31
REMARK   10  A    between atoms: C_31  and  C_32
REMARK   11  A    between atoms: C_31  and  C_33
REMARK                            x       y       z     vdW  Elec       q    Type
REMARK                         _______ _______ _______ _____ _____    ______ ____
ROOT
ATOM      1  C   UNL A   1     -12.294   2.630  38.052  0.00  0.00    -0.003 A 
ATOM      2  C   UNL A   1     -11.753   2.119  37.306  0.00  0.00    -0.002 A 
ATOM      3  C   UNL A   1     -13.671   2.952  37.661  0.00  0.00    -0.004 A 
ATOM      4  C   UNL A   1     -14.634   3.485  38.644  0.00  0.00    -0.022 A 
ATOM      5  C   UNL A   1     -15.678   4.205  38.315  0.00  0.00    -0.025 A 
ATOM      6  C   UNL A   1     -12.000   1.908  35.906  0.00  0.00    -0.003 A 
ATOM      7  C   UNL A   1     -13.219   2.221  35.517  0.00  0.00    -0.000 A 
ATOM      8  C   UNL A   1     -14.142   2.725  36.405  0.00  0.00    -0.000 A 
ATOM      9  C   UNL A   1     -16.183   4.061  36.922  0.00  0.00    -0.005 A 
ATOM     10  C   UNL A   1     -15.332   3.462  35.976  0.00  0.00    -0.000 A 
ATOM     11  C   UNL A   1     -16.614   4.847  39.172  0.00  0.00    +0.031 C 
ENDROOT
BRANCH   4  12
ATOM     12  C   UNL A   1     -14.274   3.586  40.087  0.00  0.00    +0.052 C 
BRANCH  12  13
ATOM     13  C   UNL A   1     -14.806   2.292  40.738  0.00  0.00    -0.017 A 
ATOM     14  C   UNL A   1     -15.920   2.037  41.322  0.00  0.00    +0.007 A 
ATOM     15  C   UNL A   1     -16.231   0.840  41.841  0.00  0.00    +0.057 A 
ATOM     16  C   UNL A   1     -15.210   0.029  42.337  0.00  0.00    +0.011 A 
ATOM     17  C   UNL A   1     -13.882   0.433  42.062  0.00  0.00    +0.001 A 
ATOM     18  C   UNL A   1     -13.625   1.561  41.324  0.00  0.00    -0.004 A 
ATOM     19 CL   UNL A   1     -17.848   0.492  42.197  0.00  0.00    -0.082 Cl
ENDBRANCH  12  13
ENDBRANCH   4  12
BRANCH   2  20
ATOM     20  C   UNL A   1     -10.228   1.649  37.715  0.00  0.00    +0.119 C 
BRANCH  20  21
ATOM     21  N   UNL A   1      -9.964   0.493  37.646  0.00  0.00    -0.289 N 
BRANCH  21  22
ATOM     22  C   UNL A   1     -10.654  -0.591  38.354  0.00  0.00    +0.049 A 
ATOM     23  C   UNL A   1     -10.910  -0.641  39.675  0.00  0.00    +0.015 A 
ATOM     24  C   UNL A   1     -11.675  -1.664  40.174  0.00  0.00    +0.001 A 
ATOM     25  C   UNL A   1     -12.294  -2.631  39.356  0.00  0.00    +0.000 A 
ATOM     26  C   UNL A   1     -11.873  -2.737  38.020  0.00  0.00    +0.001 A 
ATOM     27  C   UNL A   1     -11.145  -1.692  37.491  0.00  0.00    +0.015 A 
ENDBRANCH  21  22
BRANCH  21  28
ATOM     28  C   UNL A   1      -9.066  -0.065  36.725  0.00  0.00    +0.184 C 
BRANCH  28  29
ATOM     29  N   UNL A   1      -8.402   0.817  35.924  0.00  0.00    -0.197 NA
BRANCH  29  30
ATOM     30  C   UNL A   1      -7.841   0.542  34.729  0.00  0.00    +0.096 C 
BRANCH  30  31
ATOM     31  C   UNL A   1      -6.522   0.064  34.952  0.00  0.00    +0.056 C 
BRANCH  31  32
ATOM     32  C   UNL A   1      -6.097  -1.065  34.642  0.00  0.00    +0.101 C 
ATOM     33 CL   UNL A   1      -6.713  -1.977  34.628  0.00  0.00    -0.113 Cl
ENDBRANCH  31  32
BRANCH  31  34
ATOM     34  C   UNL A   1      -5.546   1.061  35.443  0.00  0.00    -0.024 C 
ATOM     35  C   UNL A   1      -5.066   2.027  34.759  0.00  0.00    -0.005 C 
ENDBRANCH  31  34
ENDBRANCH  30  31
ENDBRANCH  29  30
ENDBRANCH  28  29
ENDBRANCH  21  28
ENDBRANCH  20  21
ENDBRANCH   2  20
TORSDOF 11
ENDMDL
ENDMDL
