REMARK  Name = No_3332-gen_results/8p0m/2024-11-26-14-13-15/
REMARK  11 active torsions:
REMARK  status: ('A' for Active; 'I' for Inactive)
REMARK    1  A    between atoms: C_2  and  C_20
REMARK    2  A    between atoms: C_4  and  C_11
REMARK    3  A    between atoms: C_11  and  C_12
REMARK    4  A    between atoms: C_20  and  N_21
REMARK    5  A    between atoms: N_21  and  C_22
REMARK    6  A    between atoms: N_21  and  C_23
REMARK    7  A    between atoms: C_22  and  N_25
REMARK    8  A    between atoms: N_25  and  C_30
REMARK    9  A    between atoms: C_30  and  C_31
REMARK   10  A    between atoms: C_31  and  C_32
REMARK   11  A    between atoms: C_31  and  C_33
REMARK                            x       y       z     vdW  Elec       q    Type
REMARK                         _______ _______ _______ _____ _____    ______ ____
ROOT
ATOM      1  C   UNL A   1     -28.016  -0.814  28.878  0.00  0.00    -0.003 A 
ATOM      2  C   UNL A   1     -28.469  -0.785  29.829  0.00  0.00    -0.002 A 
ATOM      3  C   UNL A   1     -28.182   0.428  28.113  0.00  0.00    -0.004 A 
ATOM      4  C   UNL A   1     -27.450   0.643  26.850  0.00  0.00    -0.022 A 
ATOM      5  C   UNL A   1     -27.860   1.457  25.908  0.00  0.00    -0.025 A 
ATOM      6  C   UNL A   1     -29.426   0.110  30.418  0.00  0.00    -0.003 A 
ATOM      7  C   UNL A   1     -29.623   1.220  29.735  0.00  0.00    -0.000 A 
ATOM      8  C   UNL A   1     -28.961   1.453  28.551  0.00  0.00    -0.000 A 
ATOM      9  C   UNL A   1     -28.787   2.547  26.317  0.00  0.00    -0.005 A 
ATOM     10  C   UNL A   1     -29.427   2.429  27.564  0.00  0.00    -0.000 A 
ATOM     11  C   UNL A   1     -27.295   1.674  24.621  0.00  0.00    +0.031 C 
ENDROOT
BRANCH   4  12
ATOM     12  C   UNL A   1     -26.425  -0.334  26.385  0.00  0.00    +0.052 C 
BRANCH  12  13
ATOM     13  C   UNL A   1     -25.063   0.281  26.769  0.00  0.00    -0.017 A 
ATOM     14  C   UNL A   1     -24.667   0.847  27.851  0.00  0.00    +0.007 A 
ATOM     15  C   UNL A   1     -23.430   1.335  28.026  0.00  0.00    +0.057 A 
ATOM     16  C   UNL A   1     -22.730   1.823  26.923  0.00  0.00    +0.011 A 
ATOM     17  C   UNL A   1     -23.291   1.572  25.648  0.00  0.00    +0.001 A 
ATOM     18  C   UNL A   1     -24.458   0.863  25.517  0.00  0.00    -0.004 A 
ATOM     19 CL   UNL A   1     -22.890   1.666  29.595  0.00  0.00    -0.082 Cl
ENDBRANCH  12  13
ENDBRANCH   4  12
BRANCH   2  20
ATOM     20  C   UNL A   1     -28.243  -2.115  30.775  0.00  0.00    +0.119 C 
BRANCH  20  21
ATOM     21  N   UNL A   1     -27.663  -3.040  30.307  0.00  0.00    -0.289 N 
BRANCH  21  22
ATOM     22  C   UNL A   1     -26.257  -3.050  29.887  0.00  0.00    +0.049 A 
ATOM     23  C   UNL A   1     -25.591  -4.096  29.364  0.00  0.00    +0.015 A 
ATOM     24  C   UNL A   1     -24.312  -3.918  28.904  0.00  0.00    +0.001 A 
ATOM     25  C   UNL A   1     -23.677  -2.660  28.864  0.00  0.00    +0.000 A 
ATOM     26  C   UNL A   1     -24.250  -1.605  29.595  0.00  0.00    +0.001 A 
ATOM     27  C   UNL A   1     -25.553  -1.752  30.020  0.00  0.00    +0.015 A 
ENDBRANCH  21  22
BRANCH  21  28
ATOM     28  C   UNL A   1     -28.165  -4.348  30.249  0.00  0.00    +0.184 C 
BRANCH  28  29
ATOM     29  N   UNL A   1     -29.435  -4.525  30.712  0.00  0.00    -0.197 NA
BRANCH  29  30
ATOM     30  C   UNL A   1     -30.238  -5.577  30.453  0.00  0.00    +0.096 C 
BRANCH  30  31
ATOM     31  C   UNL A   1     -30.945  -5.315  29.249  0.00  0.00    +0.056 C 
BRANCH  31  32
ATOM     32  C   UNL A   1     -31.286  -4.189  28.838  0.00  0.00    +0.101 C 
ATOM     33 CL   UNL A   1     -32.291  -3.946  28.460  0.00  0.00    -0.113 Cl
ENDBRANCH  31  32
BRANCH  31  34
ATOM     34  C   UNL A   1     -31.136  -6.469  28.344  0.00  0.00    -0.024 C 
ATOM     35  C   UNL A   1     -31.048  -6.434  27.070  0.00  0.00    -0.005 C 
ENDBRANCH  31  34
ENDBRANCH  30  31
ENDBRANCH  29  30
ENDBRANCH  28  29
ENDBRANCH  21  28
ENDBRANCH  20  21
ENDBRANCH   2  20
TORSDOF 11
