REMARK  Name = No_3333-gen_results/8p0m/2024-11-26-14-13-15/
REMARK  8 active torsions:
REMARK  status: ('A' for Active; 'I' for Inactive)
REMARK    1  A    between atoms: C_1  and  C_2
REMARK    2  A    between atoms: C_3  and  C_25
REMARK    3  A    between atoms: C_5  and  C_10
REMARK    4  A    between atoms: N_8  and  C_9
REMARK    5  A    between atoms: N_16  and  C_20
REMARK    6  A    between atoms: C_20  and  C_21
REMARK    7  A    between atoms: C_29  and  C_31
REMARK    8  A    between atoms: N_32  and  C_34
REMARK                            x       y       z     vdW  Elec       q    Type
REMARK                         _______ _______ _______ _____ _____    ______ ____
ROOT
ATOM      1  C   UNL A   1     -27.064  -0.119  28.608  0.00  0.00    +0.055 A 
ATOM      2  C   UNL A   1     -27.001   0.691  27.491  0.00  0.00    +0.004 A 
ATOM      3  C   UNL A   1     -25.855   1.482  27.083  0.00  0.00    +0.004 A 
ATOM      4  C   UNL A   1     -24.690   1.453  27.881  0.00  0.00    +0.071 A 
ATOM      5  C   UNL A   1     -24.738   0.601  29.042  0.00  0.00    +0.004 A 
ATOM      6  C   UNL A   1     -25.823  -0.169  29.389  0.00  0.00    +0.004 A 
ENDROOT
BRANCH   2   7
ATOM      7  C   UNL A   1     -28.146   0.878  26.614  0.00  0.00    +0.000 A 
ATOM      8  C   UNL A   1     -28.429   0.126  25.500  0.00  0.00    +0.000 A 
ATOM      9  C   UNL A   1     -29.569   0.281  24.748  0.00  0.00    +0.000 A 
ATOM     10  C   UNL A   1     -30.558   1.178  25.149  0.00  0.00    +0.005 A 
ATOM     11  C   UNL A   1     -30.365   1.986  26.267  0.00  0.00    +0.055 A 
ATOM     12  C   UNL A   1     -29.186   1.843  27.052  0.00  0.00    +0.005 A 
BRANCH  11  13
ATOM     13  C   UNL A   1     -31.407   2.939  26.673  0.00  0.00    +0.269 C 
ATOM     14  N   UNL A   1     -31.310   3.633  27.732  0.00  0.00    -0.174 NA
ATOM     15  O   UNL A   1     -32.237   3.314  25.830  0.00  0.00    -0.268 OA
BRANCH  14  16
ATOM     16  C   UNL A   1     -32.275   4.594  28.206  0.00  0.00    +0.089 C 
ATOM     17  C   UNL A   1     -32.397   4.950  29.177  0.00  0.00    +0.019 C 
ENDBRANCH  14  16
ENDBRANCH  11  13
ENDBRANCH   2   7
BRANCH   4  18
ATOM     18  C   UNL A   1     -23.417   1.910  27.591  0.00  0.00    +0.419 C 
ATOM     19  F   UNL A   1     -22.755   1.445  26.996  0.00  0.00    -0.166 F 
ATOM     20  F   UNL A   1     -22.820   2.372  28.839  0.00  0.00    -0.166 F 
ATOM     21  F   UNL A   1     -23.717   3.260  27.058  0.00  0.00    -0.166 F 
ENDBRANCH   4  18
BRANCH   1  22
ATOM     22  C   UNL A   1     -28.016  -0.814  28.878  0.00  0.00    +0.265 C 
ATOM     23  N   UNL A   1     -29.207  -0.151  29.066  0.00  0.00    -0.202 NA
ATOM     24  O   UNL A   1     -27.926  -1.947  29.314  0.00  0.00    -0.268 OA
BRANCH  23  25
ATOM     25  C   UNL A   1     -30.232  -0.761  29.696  0.00  0.00    +0.112 C 
ATOM     26  C   UNL A   1     -31.526  -0.509  29.317  0.00  0.00    +0.025 C 
ATOM     27  C   UNL A   1     -30.010  -1.678  30.810  0.00  0.00    +0.094 C 
ATOM     28  N   UNL A   1     -31.055  -2.333  31.392  0.00  0.00    -0.264 NA
ATOM     29  C   UNL A   1     -32.607  -1.216  29.967  0.00  0.00    +0.019 C 
ATOM     30  C   UNL A   1     -32.319  -2.041  31.029  0.00  0.00    +0.072 C 
BRANCH  28  31
ATOM     31  C   UNL A   1     -30.778  -3.213  32.538  0.00  0.00    +0.177 C 
BRANCH  31  32
ATOM     32  C   UNL A   1     -29.857  -4.202  32.245  0.00  0.00    +0.412 C 
ATOM     33  F   UNL A   1     -28.733  -3.775  31.895  0.00  0.00    -0.169 F 
ATOM     34  F   UNL A   1     -29.633  -5.055  33.249  0.00  0.00    -0.169 F 
ATOM     35  F   UNL A   1     -30.347  -4.951  31.156  0.00  0.00    -0.169 F 
ENDBRANCH  31  32
ENDBRANCH  28  31
ENDBRANCH  23  25
ENDBRANCH   1  22
TORSDOF 8
