MODEL 3334
MODEL 1
REMARK VINA RESULT:    -4.389      0.000      0.000
REMARK INTER + INTRA:          -4.389
REMARK INTER:                  -4.389
REMARK INTRA:                   0.000
REMARK UNBOUND:                 0.000
REMARK  Name = No_3334-gen_results/8p0m/2024-11-26-14-13-15/
REMARK  0 active torsions:
REMARK  status: ('A' for Active; 'I' for Inactive)
REMARK                            x       y       z     vdW  Elec       q    Type
REMARK                         _______ _______ _______ _____ _____    ______ ____
ROOT
ATOM      1  C   UNL A   1     -25.412  -2.580  29.649  0.00  0.00    +0.011 A 
ATOM      2  C   UNL A   1     -24.331  -2.865  29.189  0.00  0.00    +0.058 A 
ATOM      3  C   UNL A   1     -24.031  -4.171  28.815  0.00  0.00    +0.011 A 
ATOM      4  C   UNL A   1     -24.984  -5.234  29.007  0.00  0.00    +0.001 A 
ATOM      5  C   UNL A   1     -26.200  -4.819  29.567  0.00  0.00    +0.000 A 
ATOM      6  C   UNL A   1     -26.427  -3.575  29.919  0.00  0.00    +0.001 A 
ATOM      7 CL   UNL A   1     -23.065  -1.740  28.938  0.00  0.00    -0.082 Cl
ENDROOT
TORSDOF 0
ENDMDL
ENDMDL
