REMARK  Name = No_3335-gen_results/8p0m/2024-11-26-14-13-15/
REMARK  0 active torsions:
REMARK  status: ('A' for Active; 'I' for Inactive)
REMARK                            x       y       z     vdW  Elec       q    Type
REMARK                         _______ _______ _______ _____ _____    ______ ____
ROOT
ATOM      1  C   UNL A   1     -28.016  -0.814  28.878  0.00  0.00    +0.016 A 
ATOM      2  C   UNL A   1     -28.469  -0.785  29.829  0.00  0.00    +0.051 A 
ATOM      3  C   UNL A   1     -26.504  -0.778  28.877  0.00  0.00    +0.058 A 
ATOM      4  C   UNL A   1     -25.810  -0.853  30.103  0.00  0.00    +0.011 A 
ATOM      5  C   UNL A   1     -27.991  -0.892  31.226  0.00  0.00    -0.016 A 
ATOM      6  C   UNL A   1     -26.604  -0.868  31.265  0.00  0.00    -0.003 A 
ATOM      7  C   UNL A   1     -30.077  -0.886  30.024  0.00  0.00    +0.249 C 
ATOM      8  O   UNL A   1     -30.682  -0.316  29.253  0.00  0.00    -0.270 OA
ATOM      9  N   UNL A   1     -30.627  -1.734  30.965  0.00  0.00    -0.277 N 
ATOM     10  C   UNL A   1     -32.048  -1.884  30.992  0.00  0.00    +0.094 C 
ATOM     11 CL   UNL A   1     -25.686  -0.601  27.389  0.00  0.00    -0.082 Cl
ATOM     12  C   UNL A   1     -32.443  -2.879  31.576  0.00  0.00    +0.022 C 
ATOM     13  C   UNL A   1     -31.594  -3.768  32.403  0.00  0.00    +0.004 C 
ATOM     14  C   UNL A   1     -30.196  -3.578  32.315  0.00  0.00    +0.020 C 
ATOM     15  C   UNL A   1     -29.716  -2.653  31.548  0.00  0.00    +0.080 C 
ATOM     16  C   UNL A   1     -28.326  -2.289  31.725  0.00  0.00    +0.046 C 
ENDROOT
TORSDOF 0
