REMARK  Name = No_3336-gen_results/8p0m/2024-11-26-14-13-15/
REMARK  1 active torsions:
REMARK  status: ('A' for Active; 'I' for Inactive)
REMARK    1  A    between atoms: C_2  and  C_5
REMARK                            x       y       z     vdW  Elec       q    Type
REMARK                         _______ _______ _______ _____ _____    ______ ____
ROOT
ATOM      1  C   UNL A   1     -28.016  -0.814  28.878  0.00  0.00    +0.037 C 
ATOM      2  C   UNL A   1     -28.469  -0.785  29.829  0.00  0.00    +0.102 C 
ATOM      3  C   UNL A   1     -27.087   0.290  28.638  0.00  0.00    -0.026 A 
ATOM      4  C   UNL A   1     -26.024   0.364  29.253  0.00  0.00    -0.026 A 
ATOM      5  C   UNL A   1     -26.233   0.142  30.773  0.00  0.00    +0.027 C 
ATOM      6  C   UNL A   1     -27.391  -0.753  31.013  0.00  0.00    +0.019 C 
ATOM      7  C   UNL A   1     -29.279   0.503  30.203  0.00  0.00    +0.037 C 
ATOM      8  C   UNL A   1     -29.432   0.787  31.359  0.00  0.00    -0.026 A 
ATOM      9  C   UNL A   1     -29.698   1.729  31.852  0.00  0.00    -0.005 A 
ATOM     10  C   UNL A   1     -29.996   2.081  33.301  0.00  0.00    -0.000 A 
ATOM     11  C   UNL A   1     -29.956   0.983  34.182  0.00  0.00    -0.000 A 
ATOM     12  C   UNL A   1     -29.683  -0.264  33.667  0.00  0.00    -0.005 A 
ATOM     13  C   UNL A   1     -29.412  -0.401  32.372  0.00  0.00    -0.026 A 
ATOM     14  C   UNL A   1     -28.050  -0.532  32.420  0.00  0.00    +0.027 C 
ATOM     15  C   UNL A   1     -26.681   0.452  27.001  0.00  0.00    -0.005 A 
ATOM     16  C   UNL A   1     -25.503   0.908  26.686  0.00  0.00    -0.000 A 
ATOM     17  C   UNL A   1     -24.451   1.110  27.615  0.00  0.00    -0.000 A 
ATOM     18  C   UNL A   1     -24.724   0.837  28.936  0.00  0.00    -0.005 A 
ENDROOT
BRANCH   2  19
ATOM     19  C   UNL A   1     -29.416  -1.928  30.175  0.00  0.00    +0.364 C 
ATOM     20  O   UNL A   1     -29.163  -3.001  30.389  0.00  0.00    -0.246 OA
ATOM     21  O   UNL A   1     -30.697  -1.532  30.244  0.00  0.00    -0.246 OA
ENDBRANCH   2  19
TORSDOF 1
