MODEL 3336
MODEL 1
REMARK VINA RESULT:    -8.756      0.000      0.000
REMARK INTER + INTRA:          -8.805
REMARK INTER:                  -9.267
REMARK INTRA:                   0.462
REMARK UNBOUND:                 0.462
REMARK  Name = No_3336-gen_results/8p0m/2024-11-26-14-13-15/
REMARK  1 active torsions:
REMARK  status: ('A' for Active; 'I' for Inactive)
REMARK    1  A    between atoms: C_2  and  C_5
REMARK                            x       y       z     vdW  Elec       q    Type
REMARK                         _______ _______ _______ _____ _____    ______ ____
ROOT
ATOM      1  C   UNL A   1     -23.508   0.524  29.234  0.00  0.00    +0.037 C 
ATOM      2  C   UNL A   1     -24.034  -0.334  29.547  0.00  0.00    +0.102 C 
ATOM      3  C   UNL A   1     -23.188   0.526  27.807  0.00  0.00    -0.026 A 
ATOM      4  C   UNL A   1     -24.075   0.639  26.962  0.00  0.00    -0.026 A 
ATOM      5  C   UNL A   1     -25.262  -0.314  27.257  0.00  0.00    +0.027 C 
ATOM      6  C   UNL A   1     -25.386  -0.553  28.716  0.00  0.00    +0.019 C 
ATOM      7  C   UNL A   1     -23.363  -1.726  29.290  0.00  0.00    +0.037 C 
ATOM      8  C   UNL A   1     -24.051  -2.705  29.208  0.00  0.00    -0.026 A 
ATOM      9  C   UNL A   1     -23.867  -3.695  28.776  0.00  0.00    -0.005 A 
ATOM     10  C   UNL A   1     -24.687  -4.976  28.755  0.00  0.00    -0.000 A 
ATOM     11  C   UNL A   1     -25.907  -4.891  29.453  0.00  0.00    -0.000 A 
ATOM     12  C   UNL A   1     -26.224  -3.709  30.083  0.00  0.00    -0.005 A 
ATOM     13  C   UNL A   1     -25.408  -2.664  29.980  0.00  0.00    -0.026 A 
ATOM     14  C   UNL A   1     -26.084  -1.918  29.052  0.00  0.00    +0.027 C 
ATOM     15  C   UNL A   1     -22.022   1.688  27.405  0.00  0.00    -0.005 A 
ATOM     16  C   UNL A   1     -22.060   2.237  26.225  0.00  0.00    -0.000 A 
ATOM     17  C   UNL A   1     -23.122   2.070  25.301  0.00  0.00    -0.000 A 
ATOM     18  C   UNL A   1     -24.154   1.241  25.679  0.00  0.00    -0.005 A 
ENDROOT
BRANCH   2  19
ATOM     19  C   UNL A   1     -24.448  -0.390  31.013  0.00  0.00    +0.364 C 
ATOM     20  O   UNL A   1     -23.950  -0.941  31.856  0.00  0.00    -0.246 OA
ATOM     21  O   UNL A   1     -25.535   0.355  31.270  0.00  0.00    -0.246 OA
ENDBRANCH   2  19
TORSDOF 1
ENDMDL
ENDMDL
