MODEL 3337
MODEL 1
REMARK VINA RESULT:    -7.378      0.000      0.000
REMARK INTER + INTRA:         -13.674
REMARK INTER:                 -10.829
REMARK INTRA:                  -2.845
REMARK UNBOUND:                -2.845
REMARK  Name = No_3337-gen_results/8p0m/2024-11-26-14-13-15/
REMARK  8 active torsions:
REMARK  status: ('A' for Active; 'I' for Inactive)
REMARK    1  A    between atoms: C_2  and  N_10
REMARK    2  A    between atoms: C_4  and  C_5
REMARK    3  A    between atoms: C_5  and  O_8
REMARK    4  A    between atoms: O_8  and  C_19
REMARK    5  A    between atoms: N_10  and  C_11
REMARK    6  A    between atoms: C_24  and  C_25
REMARK    7  A    between atoms: N_27  and  C_28
REMARK    8  A    between atoms: C_28  and  C_29
REMARK                            x       y       z     vdW  Elec       q    Type
REMARK                         _______ _______ _______ _____ _____    ______ ____
ROOT
ATOM      1  C   UNL A   1      -6.156   2.307  36.703  0.00  0.00    +0.322 C 
ATOM      2  O   UNL A   1      -5.007   2.517  37.201  0.00  0.00    -0.250 OA
ENDROOT
BRANCH   1   6
ATOM      3  C   UNL A   1      -7.464   1.133  38.424  0.00  0.00    +0.056 C 
ATOM      4  C   UNL A   1      -8.465   1.080  39.101  0.00  0.00    +0.187 C 
ATOM      5  N   UNL A   1      -9.408   1.976  39.079  0.00  0.00    -0.185 NA
ATOM      6  C   UNL A   1      -7.302   2.279  37.537  0.00  0.00    +0.112 C 
ATOM      7  C   UNL A   1      -8.242   3.272  37.498  0.00  0.00    +0.098 C 
ATOM      8  C   UNL A   1      -9.342   3.090  38.346  0.00  0.00    +0.243 C 
ATOM      9  O   UNL A   1     -10.291   3.977  38.396  0.00  0.00    -0.273 OA
BRANCH   4  10
ATOM     10  N   UNL A   1      -8.797  -0.031  39.950  0.00  0.00    -0.218 NA
BRANCH  10  11
ATOM     11  C   UNL A   1      -9.913  -0.866  39.737  0.00  0.00    +0.067 A 
ATOM     12  C   UNL A   1     -10.515  -1.426  40.664  0.00  0.00    +0.018 A 
ATOM     13  C   UNL A   1     -11.724  -2.255  40.361  0.00  0.00    +0.031 A 
ATOM     14  C   UNL A   1     -12.128  -2.332  39.050  0.00  0.00    +0.140 A 
ATOM     15  C   UNL A   1     -11.363  -1.824  38.037  0.00  0.00    +0.031 A 
ATOM     16  C   UNL A   1     -10.373  -1.177  38.439  0.00  0.00    +0.018 A 
ATOM     17  F   UNL A   1     -13.207  -3.029  38.738  0.00  0.00    -0.204 F 
ENDBRANCH  10  11
ENDBRANCH   4  10
ENDBRANCH   1   6
BRANCH   1  18
ATOM     18  O   UNL A   1      -6.325   2.045  35.502  0.00  0.00    -0.424 OA
BRANCH  18  19
ATOM     19  C   UNL A   1      -6.300   0.811  34.961  0.00  0.00    +0.153 A 
ATOM     20  C   UNL A   1      -5.186   0.099  35.046  0.00  0.00    +0.038 A 
ATOM     21  C   UNL A   1      -5.201  -1.154  34.971  0.00  0.00    +0.003 A 
ATOM     22  C   UNL A   1      -6.368  -1.868  34.444  0.00  0.00    +0.000 A 
ATOM     23  C   UNL A   1      -7.545  -1.127  34.322  0.00  0.00    +0.008 A 
ATOM     24  C   UNL A   1      -7.590   0.289  34.647  0.00  0.00    +0.090 A 
BRANCH  24  25
ATOM     25  C   UNL A   1      -8.807   1.017  34.551  0.00  0.00    +0.268 C 
ATOM     26  O   UNL A   1      -8.960   1.821  33.598  0.00  0.00    -0.268 OA
ATOM     27  N   UNL A   1      -9.830   0.748  35.420  0.00  0.00    -0.197 NA
BRANCH  27  28
ATOM     28  C   UNL A   1     -10.880   0.939  35.675  0.00  0.00    +0.142 C 
BRANCH  28  29
ATOM     29  C   UNL A   1     -11.745   1.721  35.517  0.00  0.00    -0.001 A 
ATOM     30  C   UNL A   1     -12.286   2.100  34.514  0.00  0.00    -0.003 A 
ATOM     31  C   UNL A   1     -13.555   2.682  34.292  0.00  0.00    -0.000 A 
ATOM     32  C   UNL A   1     -14.221   3.042  35.312  0.00  0.00    -0.000 A 
ATOM     33  C   UNL A   1     -13.784   2.780  36.590  0.00  0.00    -0.000 A 
ATOM     34  C   UNL A   1     -12.584   2.075  36.735  0.00  0.00    -0.003 A 
ENDBRANCH  28  29
ENDBRANCH  27  28
ENDBRANCH  24  25
ENDBRANCH  18  19
ENDBRANCH   1  18
TORSDOF 8
ENDMDL
ENDMDL
