REMARK  Name = No_3337-gen_results/8p0m/2024-11-26-14-13-15/
REMARK  8 active torsions:
REMARK  status: ('A' for Active; 'I' for Inactive)
REMARK    1  A    between atoms: C_2  and  N_10
REMARK    2  A    between atoms: C_4  and  C_5
REMARK    3  A    between atoms: C_5  and  O_8
REMARK    4  A    between atoms: O_8  and  C_19
REMARK    5  A    between atoms: N_10  and  C_11
REMARK    6  A    between atoms: C_24  and  C_25
REMARK    7  A    between atoms: N_27  and  C_28
REMARK    8  A    between atoms: C_28  and  C_29
REMARK                            x       y       z     vdW  Elec       q    Type
REMARK                         _______ _______ _______ _____ _____    ______ ____
ROOT
ATOM      1  C   UNL A   1     -30.196  -1.043  29.996  0.00  0.00    +0.322 C 
ATOM      2  O   UNL A   1     -30.440  -2.101  29.338  0.00  0.00    -0.250 OA
ENDROOT
BRANCH   1   6
ATOM      3  C   UNL A   1     -28.016  -0.814  28.878  0.00  0.00    +0.056 C 
ATOM      4  C   UNL A   1     -27.064  -0.119  28.608  0.00  0.00    +0.187 C 
ATOM      5  N   UNL A   1     -26.951   1.129  28.957  0.00  0.00    -0.185 NA
ATOM      6  C   UNL A   1     -29.109  -0.210  29.632  0.00  0.00    +0.112 C 
ATOM      7  C   UNL A   1     -29.064   1.109  29.994  0.00  0.00    +0.098 C 
ATOM      8  C   UNL A   1     -27.909   1.799  29.602  0.00  0.00    +0.243 C 
ATOM      9  O   UNL A   1     -27.765   3.060  29.886  0.00  0.00    -0.273 OA
BRANCH   4  10
ATOM     10  N   UNL A   1     -25.882  -0.604  27.951  0.00  0.00    -0.218 NA
BRANCH  10  11
ATOM     11  C   UNL A   1     -24.574  -0.287  28.370  0.00  0.00    +0.067 A 
ATOM     12  C   UNL A   1     -24.316   0.108  29.516  0.00  0.00    +0.018 A 
ATOM     13  C   UNL A   1     -22.894   0.373  29.901  0.00  0.00    +0.031 A 
ATOM     14  C   UNL A   1     -21.926   0.135  28.955  0.00  0.00    +0.140 A 
ATOM     15  C   UNL A   1     -22.252  -0.160  27.660  0.00  0.00    +0.031 A 
ATOM     16  C   UNL A   1     -23.477  -0.330  27.483  0.00  0.00    +0.018 A 
ATOM     17  F   UNL A   1     -20.654   0.328  29.259  0.00  0.00    -0.204 F 
ENDBRANCH  10  11
ENDBRANCH   4  10
ENDBRANCH   1   6
BRANCH   1  18
ATOM     18  O   UNL A   1     -30.831  -0.729  31.015  0.00  0.00    -0.424 OA
BRANCH  18  19
ATOM     19  C   UNL A   1     -31.655  -1.543  31.703  0.00  0.00    +0.153 A 
ATOM     20  C   UNL A   1     -32.944  -1.555  31.396  0.00  0.00    +0.038 A 
ATOM     21  C   UNL A   1     -33.672  -2.543  31.661  0.00  0.00    +0.003 A 
ATOM     22  C   UNL A   1     -33.241  -3.569  32.616  0.00  0.00    +0.000 A 
ATOM     23  C   UNL A   1     -31.891  -3.555  32.972  0.00  0.00    +0.008 A 
ATOM     24  C   UNL A   1     -30.980  -2.542  32.465  0.00  0.00    +0.090 A 
BRANCH  24  25
ATOM     25  C   UNL A   1     -29.602  -2.568  32.811  0.00  0.00    +0.268 C 
ATOM     26  O   UNL A   1     -28.881  -3.495  32.365  0.00  0.00    -0.268 OA
ATOM     27  N   UNL A   1     -29.059  -1.530  33.520  0.00  0.00    -0.197 NA
BRANCH  27  28
ATOM     28  C   UNL A   1     -28.138  -1.078  33.910  0.00  0.00    +0.142 C 
BRANCH  28  29
ATOM     29  C   UNL A   1     -27.725  -0.091  34.399  0.00  0.00    -0.001 A 
ATOM     30  C   UNL A   1     -28.089   1.049  34.294  0.00  0.00    -0.003 A 
ATOM     31  C   UNL A   1     -27.926   2.170  35.139  0.00  0.00    -0.000 A 
ATOM     32  C   UNL A   1     -27.124   2.055  36.117  0.00  0.00    -0.000 A 
ATOM     33  C   UNL A   1     -26.518   0.857  36.417  0.00  0.00    -0.000 A 
ATOM     34  C   UNL A   1     -26.833  -0.249  35.620  0.00  0.00    -0.003 A 
ENDBRANCH  28  29
ENDBRANCH  27  28
ENDBRANCH  24  25
ENDBRANCH  18  19
ENDBRANCH   1  18
TORSDOF 8
