MODEL 3338
MODEL 1
REMARK VINA RESULT:    -6.255      0.000      0.000
REMARK INTER + INTRA:          -7.387
REMARK INTER:                  -6.986
REMARK INTRA:                  -0.401
REMARK UNBOUND:                -0.401
REMARK  Name = No_3338-gen_results/8p0m/2024-11-26-14-13-15/
REMARK  2 active torsions:
REMARK  status: ('A' for Active; 'I' for Inactive)
REMARK    1  A    between atoms: C_2  and  C_8
REMARK    2  A    between atoms: C_5  and  O_7
REMARK                            x       y       z     vdW  Elec       q    Type
REMARK                         _______ _______ _______ _____ _____    ______ ____
ROOT
ATOM      1  C   UNL A   1     -23.060  -0.726  29.092  0.00  0.00    +0.003 A 
ATOM      2  C   UNL A   1     -23.972  -1.297  28.540  0.00  0.00    +0.000 A 
ATOM      3  C   UNL A   1     -24.697  -0.795  27.473  0.00  0.00    +0.003 A 
ATOM      4  C   UNL A   1     -24.313   0.483  26.971  0.00  0.00    +0.037 A 
ATOM      5  C   UNL A   1     -23.200   1.022  27.510  0.00  0.00    +0.139 A 
ATOM      6  C   UNL A   1     -22.521   0.409  28.482  0.00  0.00    +0.037 A 
ENDROOT
BRANCH   2   7
ATOM      7  C   UNL A   1     -24.755  -2.580  28.987  0.00  0.00    +0.000 A 
ATOM      8  C   UNL A   1     -24.214  -3.759  28.768  0.00  0.00    +0.000 A 
ATOM      9  C   UNL A   1     -24.883  -4.978  29.114  0.00  0.00    +0.000 A 
ATOM     10  C   UNL A   1     -26.146  -4.923  29.722  0.00  0.00    +0.000 A 
ATOM     11  C   UNL A   1     -26.718  -3.646  29.968  0.00  0.00    +0.000 A 
ATOM     12  C   UNL A   1     -26.006  -2.493  29.614  0.00  0.00    +0.000 A 
ENDBRANCH   2   7
BRANCH   5  13
ATOM     13  O   UNL A   1     -22.801   2.208  26.972  0.00  0.00    -0.471 OA
ATOM     14  C   UNL A   1     -23.005   2.435  25.680  0.00  0.00    +0.253 C 
ENDBRANCH   5  13
TORSDOF 2
ENDMDL
ENDMDL
