REMARK  Name = No_3338-gen_results/8p0m/2024-11-26-14-13-15/
REMARK  2 active torsions:
REMARK  status: ('A' for Active; 'I' for Inactive)
REMARK    1  A    between atoms: C_2  and  C_8
REMARK    2  A    between atoms: C_5  and  O_7
REMARK                            x       y       z     vdW  Elec       q    Type
REMARK                         _______ _______ _______ _____ _____    ______ ____
ROOT
ATOM      1  C   UNL A   1     -28.016  -0.814  28.878  0.00  0.00    +0.003 A 
ATOM      2  C   UNL A   1     -27.064  -0.119  28.608  0.00  0.00    +0.000 A 
ATOM      3  C   UNL A   1     -26.972   0.714  27.506  0.00  0.00    +0.003 A 
ATOM      4  C   UNL A   1     -28.105   0.774  26.642  0.00  0.00    +0.037 A 
ATOM      5  C   UNL A   1     -29.201   0.104  27.053  0.00  0.00    +0.139 A 
ATOM      6  C   UNL A   1     -29.210  -0.603  28.185  0.00  0.00    +0.037 A 
ENDROOT
BRANCH   2   7
ATOM      7  C   UNL A   1     -25.621  -0.131  29.221  0.00  0.00    +0.000 A 
ATOM      8  C   UNL A   1     -25.305  -1.078  30.078  0.00  0.00    +0.000 A 
ATOM      9  C   UNL A   1     -24.020  -1.135  30.709  0.00  0.00    +0.000 A 
ATOM     10  C   UNL A   1     -23.055  -0.167  30.395  0.00  0.00    +0.000 A 
ATOM     11  C   UNL A   1     -23.397   0.845  29.459  0.00  0.00    +0.000 A 
ATOM     12  C   UNL A   1     -24.669   0.837  28.871  0.00  0.00    +0.000 A 
ENDBRANCH   2   7
BRANCH   5  13
ATOM     13  O   UNL A   1     -30.299   0.228  26.257  0.00  0.00    -0.471 OA
ATOM     14  C   UNL A   1     -30.251  -0.229  25.011  0.00  0.00    +0.253 C 
ENDBRANCH   5  13
TORSDOF 2
