MODEL 3339
MODEL 1
REMARK VINA RESULT:    -6.423      0.000      0.000
REMARK INTER + INTRA:          -8.637
REMARK INTER:                  -7.925
REMARK INTRA:                  -0.712
REMARK UNBOUND:                -0.712
REMARK  Name = No_3339-gen_results/8p0m/2024-11-26-14-13-15/
REMARK  4 active torsions:
REMARK  status: ('A' for Active; 'I' for Inactive)
REMARK    1  A    between atoms: C_3  and  C_7
REMARK    2  A    between atoms: C_6  and  C_13
REMARK    3  A    between atoms: C_13  and  O_14
REMARK    4  A    between atoms: O_14  and  C_19
REMARK                            x       y       z     vdW  Elec       q    Type
REMARK                         _______ _______ _______ _____ _____    ______ ____
ROOT
ATOM      1  C   UNL A   1     -27.095   2.254  25.654  0.00  0.00    +0.006 A 
ATOM      2  C   UNL A   1     -26.069   2.135  26.284  0.00  0.00    +0.000 A 
ATOM      3  C   UNL A   1     -25.138   1.123  26.056  0.00  0.00    +0.000 A 
ATOM      4  C   UNL A   1     -25.422   0.114  25.054  0.00  0.00    +0.000 A 
ATOM      5  C   UNL A   1     -26.623   0.278  24.366  0.00  0.00    +0.006 A 
ATOM      6  C   UNL A   1     -27.454   1.262  24.654  0.00  0.00    +0.076 A 
ENDROOT
BRANCH   3   7
ATOM      7  C   UNL A   1     -23.852   0.917  26.784  0.00  0.00    +0.003 A 
ATOM      8  C   UNL A   1     -23.737   0.055  27.750  0.00  0.00    +0.038 A 
ATOM      9  C   UNL A   1     -22.515  -0.075  28.493  0.00  0.00    +0.145 A 
ATOM     10  C   UNL A   1     -21.459   0.755  28.335  0.00  0.00    +0.037 A 
ATOM     11  C   UNL A   1     -22.735   1.849  26.571  0.00  0.00    +0.000 A 
ATOM     12  C   UNL A   1     -21.555   1.729  27.363  0.00  0.00    +0.003 A 
ATOM     13  O   UNL A   1     -22.470  -1.073  29.441  0.00  0.00    -0.450 OA
ATOM     14  C   UNL A   1     -23.737  -1.562  29.720  0.00  0.00    +0.180 A 
ATOM     15  C   UNL A   1     -24.678  -0.824  28.269  0.00  0.00    +0.044 A 
ENDBRANCH   3   7
BRANCH   6  16
ATOM     16  C   UNL A   1     -28.749   1.332  23.907  0.00  0.00    +0.346 C 
ATOM     17  O   UNL A   1     -29.208   2.567  23.691  0.00  0.00    -0.244 OA
BRANCH  16  18
ATOM     18  O   UNL A   1     -29.119   0.484  23.302  0.00  0.00    -0.418 OA
BRANCH  18  19
ATOM     19  C   UNL A   1     -30.145  -0.439  23.787  0.00  0.00    +0.183 C 
ATOM     20  C   UNL A   1     -30.129  -1.509  23.748  0.00  0.00    +0.044 C 
ENDBRANCH  18  19
ENDBRANCH  16  18
ENDBRANCH   6  16
TORSDOF 4
ENDMDL
ENDMDL
