REMARK  Name = No_3339-gen_results/8p0m/2024-11-26-14-13-15/
REMARK  4 active torsions:
REMARK  status: ('A' for Active; 'I' for Inactive)
REMARK    1  A    between atoms: C_3  and  C_7
REMARK    2  A    between atoms: C_6  and  C_13
REMARK    3  A    between atoms: C_13  and  O_14
REMARK    4  A    between atoms: O_14  and  C_19
REMARK                            x       y       z     vdW  Elec       q    Type
REMARK                         _______ _______ _______ _____ _____    ______ ____
ROOT
ATOM      1  C   UNL A   1     -28.016  -0.814  28.878  0.00  0.00    +0.006 A 
ATOM      2  C   UNL A   1     -27.064  -0.119  28.608  0.00  0.00    +0.000 A 
ATOM      3  C   UNL A   1     -25.765  -0.390  29.036  0.00  0.00    +0.000 A 
ATOM      4  C   UNL A   1     -25.530  -1.530  29.901  0.00  0.00    +0.000 A 
ATOM      5  C   UNL A   1     -26.658  -2.292  30.203  0.00  0.00    +0.006 A 
ATOM      6  C   UNL A   1     -27.855  -1.956  29.763  0.00  0.00    +0.076 A 
ENDROOT
BRANCH   3   7
ATOM      7  C   UNL A   1     -24.544   0.413  28.738  0.00  0.00    +0.003 A 
ATOM      8  C   UNL A   1     -24.473   1.206  27.711  0.00  0.00    +0.038 A 
ATOM      9  C   UNL A   1     -23.263   1.911  27.393  0.00  0.00    +0.145 A 
ATOM     10  C   UNL A   1     -22.096   1.712  28.046  0.00  0.00    +0.037 A 
ATOM     11  C   UNL A   1     -23.301   0.156  29.482  0.00  0.00    +0.000 A 
ATOM     12  C   UNL A   1     -22.102   0.831  29.108  0.00  0.00    +0.003 A 
ATOM     13  O   UNL A   1     -23.318   2.788  26.333  0.00  0.00    -0.450 OA
ATOM     14  C   UNL A   1     -24.456   2.584  25.567  0.00  0.00    +0.180 A 
ATOM     15  C   UNL A   1     -25.433   1.499  26.752  0.00  0.00    +0.044 A 
ENDBRANCH   3   7
BRANCH   6  16
ATOM     16  C   UNL A   1     -29.021  -2.795  30.182  0.00  0.00    +0.346 C 
ATOM     17  O   UNL A   1     -28.750  -3.711  31.116  0.00  0.00    -0.244 OA
BRANCH  16  18
ATOM     18  O   UNL A   1     -30.064  -2.477  29.997  0.00  0.00    -0.418 OA
BRANCH  18  19
ATOM     19  C   UNL A   1     -31.199  -3.390  30.126  0.00  0.00    +0.183 C 
ATOM     20  C   UNL A   1     -32.191  -3.153  30.453  0.00  0.00    +0.044 C 
ENDBRANCH  18  19
ENDBRANCH  16  18
ENDBRANCH   6  16
TORSDOF 4
