MODEL 333
MODEL 1
REMARK VINA RESULT:    -4.863      0.000      0.000
REMARK INTER + INTRA:          -5.201
REMARK INTER:                  -5.147
REMARK INTRA:                  -0.054
REMARK UNBOUND:                -0.054
REMARK  Name = No_333-gen_results/8p0m/2024-11-26-14-13-15/
REMARK  1 active torsions:
REMARK  status: ('A' for Active; 'I' for Inactive)
REMARK    1  A    between atoms: C_3  and  C_8
REMARK                            x       y       z     vdW  Elec       q    Type
REMARK                         _______ _______ _______ _____ _____    ______ ____
ROOT
ATOM      1  C   UNL A   1     -29.273 -11.568  28.834  0.00  0.00    +0.042 A 
ATOM      2  C   UNL A   1     -28.671 -11.831  29.849  0.00  0.00    +0.003 A 
ATOM      3  C   UNL A   1     -28.964 -11.184  31.045  0.00  0.00    +0.002 A 
ATOM      4  C   UNL A   1     -29.962 -10.147  31.101  0.00  0.00    +0.003 A 
ATOM      5  C   UNL A   1     -30.592  -9.891  29.877  0.00  0.00    +0.042 A 
ATOM      6  C   UNL A   1     -30.266 -10.519  28.770  0.00  0.00    +0.196 A 
ATOM      7  O   UNL A   1     -30.901 -10.183  27.614  0.00  0.00    -0.287 OA
ENDROOT
BRANCH   3   8
ATOM      8  C   UNL A   1     -28.294 -11.430  32.375  0.00  0.00    +0.019 C 
ATOM      9  C   UNL A   1     -27.266 -12.339  32.480  0.00  0.00    +0.106 C 
ATOM     10  N   UNL A   1     -26.777 -12.497  33.743  0.00  0.00    -0.127 NA
ENDBRANCH   3   8
TORSDOF 1
ENDMDL
ENDMDL
