REMARK  Name = No_334-gen_results/8p0m/2024-11-26-14-13-15/
REMARK  5 active torsions:
REMARK  status: ('A' for Active; 'I' for Inactive)
REMARK    1  A    between atoms: C_2  and  C_13
REMARK    2  A    between atoms: C_4  and  C_7
REMARK    3  A    between atoms: N_15  and  C_16
REMARK    4  A    between atoms: C_20  and  C_22
REMARK    5  A    between atoms: C_22  and  N_23
REMARK                            x       y       z     vdW  Elec       q    Type
REMARK                         _______ _______ _______ _____ _____    ______ ____
ROOT
ATOM      1  C   UNL A   1     -30.084  -0.783  29.837  0.00  0.00    +0.269 C 
ATOM      2  O   UNL A   1     -30.765  -1.597  30.297  0.00  0.00    -0.268 OA
ATOM      3  N   UNL A   1     -30.602   0.250  29.141  0.00  0.00    -0.175 NA
ENDROOT
BRANCH   1   5
ATOM      4  C   UNL A   1     -28.016  -0.814  28.878  0.00  0.00    +0.005 A 
ATOM      5  C   UNL A   1     -28.469  -0.785  29.829  0.00  0.00    +0.055 A 
ATOM      6  C   UNL A   1     -26.504  -0.778  28.877  0.00  0.00    +0.002 A 
ATOM      7  C   UNL A   1     -25.810  -0.853  30.103  0.00  0.00    +0.018 A 
ATOM      8  C   UNL A   1     -27.991  -0.892  31.226  0.00  0.00    +0.005 A 
ATOM      9  C   UNL A   1     -26.604  -0.868  31.265  0.00  0.00    +0.002 A 
BRANCH   7  10
ATOM     10  C   UNL A   1     -24.389  -0.805  30.164  0.00  0.00    +0.085 A 
ATOM     11  N   UNL A   1     -23.673  -1.059  29.251  0.00  0.00    -0.224 NA
ATOM     12  C   UNL A   1     -22.299  -0.732  29.207  0.00  0.00    +0.199 A 
ATOM     13  C   UNL A   1     -23.719  -0.576  31.454  0.00  0.00    +0.040 A 
ATOM     14  C   UNL A   1     -22.307  -0.427  31.533  0.00  0.00    +0.102 A 
ATOM     15  N   UNL A   1     -21.637  -0.532  30.285  0.00  0.00    -0.222 NA
ENDBRANCH   7  10
ENDBRANCH   1   5
BRANCH   3  16
ATOM     16  C   UNL A   1     -29.909   1.333  28.576  0.00  0.00    +0.073 A 
ATOM     17  C   UNL A   1     -29.993   1.848  27.550  0.00  0.00    +0.017 A 
ATOM     18  C   UNL A   1     -29.174   2.942  27.031  0.00  0.00    +0.001 A 
ATOM     19  C   UNL A   1     -28.077   3.350  27.784  0.00  0.00    -0.001 A 
ATOM     20  C   UNL A   1     -27.867   2.717  29.031  0.00  0.00    +0.019 A 
ATOM     21  C   UNL A   1     -28.693   1.748  29.431  0.00  0.00    +0.016 A 
BRANCH  20  22
ATOM     22  C   UNL A   1     -26.749   3.191  29.868  0.00  0.00    +0.215 C 
ATOM     23  N   UNL A   1     -25.961   4.179  29.490  0.00  0.00    -0.101 NA
BRANCH  22  24
ATOM     24  N   UNL A   1     -26.483   2.576  30.978  0.00  0.00    -0.252 NA
ATOM     25  C   UNL A   1     -25.352   2.927  31.712  0.00  0.00    +0.069 C 
ATOM     26  C   UNL A   1     -25.107   2.376  32.908  0.00  0.00    +0.053 C 
ENDBRANCH  22  24
ENDBRANCH  20  22
ENDBRANCH   3  16
TORSDOF 5
