MODEL 3340
MODEL 1
REMARK VINA RESULT:    -8.108      0.000      0.000
REMARK INTER + INTRA:         -13.963
REMARK INTER:                 -11.900
REMARK INTRA:                  -2.063
REMARK UNBOUND:                -2.063
REMARK  Name = No_3340-gen_results/8p0m/2024-11-26-14-13-15/
REMARK  8 active torsions:
REMARK  status: ('A' for Active; 'I' for Inactive)
REMARK    1  A    between atoms: C_2  and  C_14
REMARK    2  A    between atoms: C_3  and  C_7
REMARK    3  A    between atoms: C_10  and  O_19
REMARK    4  A    between atoms: O_19  and  C_20
REMARK    5  A    between atoms: C_20  and  C_21
REMARK    6  A    between atoms: C_20  and  N_24
REMARK    7  A    between atoms: C_21  and  C_22
REMARK    8  A    between atoms: C_21  and  C_23
REMARK                            x       y       z     vdW  Elec       q    Type
REMARK                         _______ _______ _______ _____ _____    ______ ____
ROOT
ATOM      1  C   UNL A   1     -22.891   1.103  27.462  0.00  0.00    +0.061 A 
ATOM      2  C   UNL A   1     -21.838   1.424  27.161  0.00  0.00    +0.143 A 
ATOM      3  C   UNL A   1     -20.611   0.819  27.743  0.00  0.00    +0.030 A 
ATOM      4  C   UNL A   1     -23.020   0.097  28.505  0.00  0.00    +0.142 A 
ATOM      5  C   UNL A   1     -21.981  -0.441  29.212  0.00  0.00    +0.037 A 
ATOM      6  C   UNL A   1     -20.752  -0.087  28.768  0.00  0.00    +0.005 A 
ATOM      7  F   UNL A   1     -21.514   2.261  26.168  0.00  0.00    -0.204 F 
ENDROOT
BRANCH   1  10
ATOM      8  C   UNL A   1     -24.905   0.692  25.967  0.00  0.00    +0.004 A 
ATOM      9  C   UNL A   1     -25.845   1.049  25.650  0.00  0.00    +0.074 A 
ATOM     10  C   UNL A   1     -24.209   1.607  26.880  0.00  0.00    +0.007 A 
ATOM     11  C   UNL A   1     -24.647   2.842  27.127  0.00  0.00    +0.030 A 
ATOM     12  C   UNL A   1     -26.505   2.326  25.766  0.00  0.00    +0.034 A 
ATOM     13  C   UNL A   1     -25.831   3.171  26.597  0.00  0.00    +0.140 A 
ATOM     14  F   UNL A   1     -26.331   4.414  26.784  0.00  0.00    -0.204 F 
BRANCH   9  15
ATOM     15  C   UNL A   1     -26.704   0.065  24.664  0.00  0.00    +0.419 C 
ATOM     16  F   UNL A   1     -26.941   0.841  23.676  0.00  0.00    -0.166 F 
ATOM     17  F   UNL A   1     -26.223  -1.077  24.486  0.00  0.00    -0.166 F 
ATOM     18  F   UNL A   1     -27.953  -0.213  25.231  0.00  0.00    -0.166 F 
ENDBRANCH   9  15
ENDBRANCH   1  10
BRANCH   4  19
ATOM     19  O   UNL A   1     -24.301  -0.302  29.015  0.00  0.00    -0.463 OA
BRANCH  19  20
ATOM     20  C   UNL A   1     -24.441  -1.177  30.078  0.00  0.00    +0.241 C 
BRANCH  20  21
ATOM     21  N   UNL A   1     -24.778  -2.498  29.711  0.00  0.00    -0.240 NA
ATOM     22  C   UNL A   1     -26.010  -3.124  30.101  0.00  0.00    +0.075 C 
ATOM     23  C   UNL A   1     -26.203  -4.454  29.621  0.00  0.00    +0.018 C 
ATOM     24  C   UNL A   1     -24.014  -3.375  29.028  0.00  0.00    +0.075 C 
ATOM     25  C   UNL A   1     -24.237  -4.716  28.750  0.00  0.00    +0.018 C 
ATOM     26  C   UNL A   1     -25.400  -5.237  29.031  0.00  0.00    +0.003 C 
ENDBRANCH  20  21
BRANCH  20  27
ATOM     27  C   UNL A   1     -25.073  -0.561  31.089  0.00  0.00    +0.192 C 
BRANCH  27  28
ATOM     28  C   UNL A   1     -25.396   0.792  31.104  0.00  0.00    +0.372 C 
ATOM     29  O   UNL A   1     -26.369   1.197  30.858  0.00  0.00    -0.245 OA
ATOM     30  O   UNL A   1     -24.440   1.591  31.633  0.00  0.00    -0.245 OA
ENDBRANCH  27  28
BRANCH  27  31
ATOM     31  C   UNL A   1     -24.352  -0.857  32.510  0.00  0.00    +0.199 C 
ATOM     32  O   UNL A   1     -22.990  -1.302  32.332  0.00  0.00    -0.220 OA
ENDBRANCH  27  31
ENDBRANCH  20  27
ENDBRANCH  19  20
ENDBRANCH   4  19
TORSDOF 8
ENDMDL
ENDMDL
