REMARK  Name = No_3340-gen_results/8p0m/2024-11-26-14-13-15/
REMARK  8 active torsions:
REMARK  status: ('A' for Active; 'I' for Inactive)
REMARK    1  A    between atoms: C_2  and  C_14
REMARK    2  A    between atoms: C_3  and  C_7
REMARK    3  A    between atoms: C_10  and  O_19
REMARK    4  A    between atoms: O_19  and  C_20
REMARK    5  A    between atoms: C_20  and  C_21
REMARK    6  A    between atoms: C_20  and  N_24
REMARK    7  A    between atoms: C_21  and  C_22
REMARK    8  A    between atoms: C_21  and  C_23
REMARK                            x       y       z     vdW  Elec       q    Type
REMARK                         _______ _______ _______ _____ _____    ______ ____
ROOT
ATOM      1  C   UNL A   1     -27.459   0.493  26.770  0.00  0.00    +0.061 A 
ATOM      2  C   UNL A   1     -27.920   0.718  25.751  0.00  0.00    +0.143 A 
ATOM      3  C   UNL A   1     -27.138   0.689  24.486  0.00  0.00    +0.030 A 
ATOM      4  C   UNL A   1     -26.030   0.224  26.823  0.00  0.00    +0.142 A 
ATOM      5  C   UNL A   1     -25.176   0.296  25.759  0.00  0.00    +0.037 A 
ATOM      6  C   UNL A   1     -25.779   0.491  24.562  0.00  0.00    +0.005 A 
ATOM      7  F   UNL A   1     -29.219   0.899  25.486  0.00  0.00    -0.204 F 
ENDROOT
BRANCH   1  10
ATOM      8  C   UNL A   1     -28.016  -0.814  28.878  0.00  0.00    +0.004 A 
ATOM      9  C   UNL A   1     -28.469  -0.785  29.829  0.00  0.00    +0.074 A 
ATOM     10  C   UNL A   1     -28.182   0.428  28.113  0.00  0.00    +0.007 A 
ATOM     11  C   UNL A   1     -28.984   1.415  28.515  0.00  0.00    +0.030 A 
ATOM     12  C   UNL A   1     -29.380   0.138  30.461  0.00  0.00    +0.034 A 
ATOM     13  C   UNL A   1     -29.541   1.274  29.724  0.00  0.00    +0.140 A 
ATOM     14  F   UNL A   1     -30.385   2.222  30.192  0.00  0.00    -0.204 F 
BRANCH   9  15
ATOM     15  C   UNL A   1     -28.290  -2.118  30.762  0.00  0.00    +0.419 C 
ATOM     16  F   UNL A   1     -28.848  -3.012  30.036  0.00  0.00    -0.166 F 
ATOM     17  F   UNL A   1     -27.147  -2.296  31.239  0.00  0.00    -0.166 F 
ATOM     18  F   UNL A   1     -29.088  -2.014  31.907  0.00  0.00    -0.166 F 
ENDBRANCH   9  15
ENDBRANCH   1  10
BRANCH   4  19
ATOM     19  O   UNL A   1     -25.346   0.022  28.069  0.00  0.00    -0.463 OA
BRANCH  19  20
ATOM     20  C   UNL A   1     -24.570   1.003  28.661  0.00  0.00    +0.241 C 
BRANCH  20  21
ATOM     21  N   UNL A   1     -24.661   2.272  28.050  0.00  0.00    -0.240 NA
ATOM     22  C   UNL A   1     -25.506   3.319  28.553  0.00  0.00    +0.075 C 
ATOM     23  C   UNL A   1     -25.458   4.549  27.831  0.00  0.00    +0.018 C 
ATOM     24  C   UNL A   1     -24.058   2.676  26.913  0.00  0.00    +0.075 C 
ATOM     25  C   UNL A   1     -24.208   3.858  26.202  0.00  0.00    +0.018 C 
ATOM     26  C   UNL A   1     -24.906   4.828  26.725  0.00  0.00    +0.003 C 
ENDBRANCH  20  21
BRANCH  20  27
ATOM     27  C   UNL A   1     -23.380   0.489  29.008  0.00  0.00    +0.192 C 
BRANCH  27  28
ATOM     28  C   UNL A   1     -23.104  -0.086  30.245  0.00  0.00    +0.372 C 
ATOM     29  O   UNL A   1     -23.241   0.407  31.199  0.00  0.00    -0.245 OA
ATOM     30  O   UNL A   1     -22.810  -1.406  30.197  0.00  0.00    -0.245 OA
ENDBRANCH  27  28
BRANCH  27  31
ATOM     31  C   UNL A   1     -22.175   1.536  28.732  0.00  0.00    +0.199 C 
ATOM     32  O   UNL A   1     -21.545   1.296  27.455  0.00  0.00    -0.220 OA
ENDBRANCH  27  31
ENDBRANCH  20  27
ENDBRANCH  19  20
ENDBRANCH   4  19
TORSDOF 8
