MODEL 3341
MODEL 1
REMARK VINA RESULT:    -8.755      0.000      0.000
REMARK INTER + INTRA:         -11.020
REMARK INTER:                 -10.803
REMARK INTRA:                  -0.217
REMARK UNBOUND:                -0.217
REMARK  Name = No_3341-gen_results/8p0m/2024-11-26-14-13-15/
REMARK  4 active torsions:
REMARK  status: ('A' for Active; 'I' for Inactive)
REMARK    1  A    between atoms: C_3  and  C_8
REMARK    2  A    between atoms: C_6  and  O_7
REMARK    3  A    between atoms: O_7  and  C_14
REMARK    4  A    between atoms: C_21  and  C_22
REMARK                            x       y       z     vdW  Elec       q    Type
REMARK                         _______ _______ _______ _____ _____    ______ ____
ROOT
ATOM      1  C   UNL A   1     -22.974   1.772  28.019  0.00  0.00    +0.242 C 
ATOM      2  C   UNL A   1     -23.598   1.006  28.999  0.00  0.00    +0.272 C 
ATOM      3  O   UNL A   1     -24.691   1.042  29.227  0.00  0.00    -0.271 OA
ATOM      4  N   UNL A   1     -22.864  -0.157  29.439  0.00  0.00    -0.224 N 
ATOM      5  C   UNL A   1     -21.463  -0.370  29.151  0.00  0.00    +0.101 C 
ATOM      6  C   UNL A   1     -21.114   0.334  28.213  0.00  0.00    +0.026 C 
ATOM      7  C   UNL A   1     -21.730   1.447  27.594  0.00  0.00    +0.055 C 
ATOM      8  C   UNL A   1     -23.469  -0.887  30.587  0.00  0.00    +0.255 C 
ATOM      9  O   UNL A   1     -23.160  -0.527  31.702  0.00  0.00    -0.270 OA
ENDROOT
BRANCH   8  10
ATOM     10  C   UNL A   1     -24.183  -1.935  30.138  0.00  0.00    +0.054 A 
ATOM     11  C   UNL A   1     -25.212  -2.125  30.488  0.00  0.00    +0.004 A 
ATOM     12  C   UNL A   1     -26.055  -3.297  30.083  0.00  0.00    +0.000 A 
ATOM     13  C   UNL A   1     -25.494  -4.122  29.110  0.00  0.00    +0.000 A 
ATOM     14  C   UNL A   1     -24.223  -3.849  28.629  0.00  0.00    +0.000 A 
ATOM     15  C   UNL A   1     -23.517  -2.745  29.139  0.00  0.00    +0.004 A 
ENDBRANCH   8  10
BRANCH   1  16
ATOM     16  O   UNL A   1     -23.861   2.548  27.285  0.00  0.00    -0.470 OA
BRANCH  16  22
ATOM     17  C   UNL A   1     -24.723   0.738  25.865  0.00  0.00    +0.037 A 
ATOM     18  C   UNL A   1     -25.669   0.201  25.337  0.00  0.00    +0.003 A 
ATOM     19  C   UNL A   1     -26.962   0.723  25.359  0.00  0.00    +0.000 A 
ATOM     20  C   UNL A   1     -27.219   1.944  26.098  0.00  0.00    +0.003 A 
ATOM     21  C   UNL A   1     -26.068   2.508  26.695  0.00  0.00    +0.037 A 
ATOM     22  C   UNL A   1     -24.891   1.940  26.625  0.00  0.00    +0.139 A 
BRANCH  19  23
ATOM     23  C   UNL A   1     -28.181   0.118  24.730  0.00  0.00    +0.000 A 
ATOM     24  C   UNL A   1     -29.375   0.285  25.282  0.00  0.00    +0.000 A 
ATOM     25  C   UNL A   1     -30.526  -0.369  24.716  0.00  0.00    +0.000 A 
ATOM     26  C   UNL A   1     -30.418  -1.254  23.671  0.00  0.00    +0.000 A 
ATOM     27  C   UNL A   1     -28.072  -0.833  23.677  0.00  0.00    +0.000 A 
ATOM     28  C   UNL A   1     -29.202  -1.497  23.136  0.00  0.00    +0.000 A 
ENDBRANCH  19  23
ENDBRANCH  16  22
ENDBRANCH   1  16
TORSDOF 4
ENDMDL
ENDMDL
