REMARK  Name = No_3341-gen_results/8p0m/2024-11-26-14-13-15/
REMARK  4 active torsions:
REMARK  status: ('A' for Active; 'I' for Inactive)
REMARK    1  A    between atoms: C_3  and  C_8
REMARK    2  A    between atoms: C_6  and  O_7
REMARK    3  A    between atoms: O_7  and  C_14
REMARK    4  A    between atoms: C_21  and  C_22
REMARK                            x       y       z     vdW  Elec       q    Type
REMARK                         _______ _______ _______ _____ _____    ______ ____
ROOT
ATOM      1  C   UNL A   1     -29.312  -2.752  31.450  0.00  0.00    +0.242 C 
ATOM      2  C   UNL A   1     -30.685  -2.617  31.629  0.00  0.00    +0.272 C 
ATOM      3  O   UNL A   1     -31.416  -2.448  30.801  0.00  0.00    -0.271 OA
ATOM      4  N   UNL A   1     -31.201  -3.123  32.879  0.00  0.00    -0.224 N 
ATOM      5  C   UNL A   1     -30.363  -3.455  34.010  0.00  0.00    +0.101 C 
ATOM      6  C   UNL A   1     -29.205  -3.608  33.646  0.00  0.00    +0.026 C 
ATOM      7  C   UNL A   1     -28.545  -3.262  32.443  0.00  0.00    +0.055 C 
ATOM      8  C   UNL A   1     -32.643  -2.844  33.125  0.00  0.00    +0.255 C 
ATOM      9  O   UNL A   1     -32.924  -1.799  33.671  0.00  0.00    -0.270 OA
ENDROOT
BRANCH   8  10
ATOM     10  C   UNL A   1     -33.380  -3.916  32.785  0.00  0.00    +0.054 A 
ATOM     11  C   UNL A   1     -34.341  -4.137  33.282  0.00  0.00    +0.004 A 
ATOM     12  C   UNL A   1     -35.196  -5.337  33.005  0.00  0.00    +0.000 A 
ATOM     13  C   UNL A   1     -34.756  -6.149  31.961  0.00  0.00    +0.000 A 
ATOM     14  C   UNL A   1     -33.578  -5.839  31.300  0.00  0.00    +0.000 A 
ATOM     15  C   UNL A   1     -32.841  -4.710  31.701  0.00  0.00    +0.004 A 
ENDBRANCH   8  10
BRANCH   1  16
ATOM     16  O   UNL A   1     -28.930  -2.730  30.115  0.00  0.00    -0.470 OA
BRANCH  16  22
ATOM     17  C   UNL A   1     -28.016  -0.814  28.878  0.00  0.00    +0.037 A 
ATOM     18  C   UNL A   1     -27.064  -0.119  28.608  0.00  0.00    +0.003 A 
ATOM     19  C   UNL A   1     -25.765  -0.390  29.036  0.00  0.00    +0.000 A 
ATOM     20  C   UNL A   1     -25.530  -1.530  29.901  0.00  0.00    +0.003 A 
ATOM     21  C   UNL A   1     -26.689  -2.289  30.181  0.00  0.00    +0.037 A 
ATOM     22  C   UNL A   1     -27.873  -1.951  29.737  0.00  0.00    +0.139 A 
BRANCH  19  23
ATOM     23  C   UNL A   1     -24.539   0.421  28.742  0.00  0.00    +0.000 A 
ATOM     24  C   UNL A   1     -24.526   1.274  27.727  0.00  0.00    +0.000 A 
ATOM     25  C   UNL A   1     -23.317   1.986  27.403  0.00  0.00    +0.000 A 
ATOM     26  C   UNL A   1     -22.131   1.737  28.050  0.00  0.00    +0.000 A 
ATOM     27  C   UNL A   1     -23.298   0.137  29.377  0.00  0.00    +0.000 A 
ATOM     28  C   UNL A   1     -22.101   0.819  29.041  0.00  0.00    +0.000 A 
ENDBRANCH  19  23
ENDBRANCH  16  22
ENDBRANCH   1  16
TORSDOF 4
