REMARK  Name = No_3342-gen_results/8p0m/2024-11-26-14-13-15/
REMARK  3 active torsions:
REMARK  status: ('A' for Active; 'I' for Inactive)
REMARK    1  A    between atoms: C_1  and  C_2
REMARK    2  A    between atoms: C_1  and  C_4
REMARK    3  A    between atoms: C_5  and  C_8
REMARK                            x       y       z     vdW  Elec       q    Type
REMARK                         _______ _______ _______ _____ _____    ______ ____
ROOT
ATOM      1  C   UNL A   1     -28.016  -0.814  28.878  0.00  0.00    +0.285 C 
ATOM      2  F   UNL A   1     -26.916  -1.564  28.737  0.00  0.00    -0.220 F 
ENDROOT
BRANCH   1   3
ATOM      3  C   UNL A   1     -28.469  -0.785  29.829  0.00  0.00    +0.401 C 
ATOM      4  O   UNL A   1     -29.502  -0.193  30.068  0.00  0.00    -0.242 OA
ATOM      5  O   UNL A   1     -28.084  -1.657  30.871  0.00  0.00    -0.242 OA
ENDBRANCH   1   3
BRANCH   1   6
ATOM      6  C   UNL A   1     -28.165   0.026  27.758  0.00  0.00    +0.020 C 
ATOM      7  C   UNL A   1     -27.185   0.312  26.807  0.00  0.00    -0.002 C 
BRANCH   7   8
ATOM      8  C   UNL A   1     -27.387   1.047  25.653  0.00  0.00    -0.005 C 
ATOM      9  C   UNL A   1     -28.539   1.617  25.598  0.00  0.00    -0.026 C 
ATOM     10  C   UNL A   1     -29.568   1.497  26.466  0.00  0.00    +0.031 C 
ENDBRANCH   7   8
ENDBRANCH   1   6
TORSDOF 3
