MODEL 3342
MODEL 1
REMARK VINA RESULT:    -4.962      0.000      0.000
REMARK INTER + INTRA:          -6.002
REMARK INTER:                  -5.832
REMARK INTRA:                  -0.170
REMARK UNBOUND:                -0.170
REMARK  Name = No_3342-gen_results/8p0m/2024-11-26-14-13-15/
REMARK  3 active torsions:
REMARK  status: ('A' for Active; 'I' for Inactive)
REMARK    1  A    between atoms: C_1  and  C_2
REMARK    2  A    between atoms: C_1  and  C_4
REMARK    3  A    between atoms: C_5  and  C_8
REMARK                            x       y       z     vdW  Elec       q    Type
REMARK                         _______ _______ _______ _____ _____    ______ ____
ROOT
ATOM      1  C   UNL A   1     -27.610 -11.974  32.858  0.00  0.00    +0.285 C 
ATOM      2  F   UNL A   1     -26.648 -12.540  32.117  0.00  0.00    -0.220 F 
ENDROOT
BRANCH   1   3
ATOM      3  C   UNL A   1     -27.484 -11.975  33.904  0.00  0.00    +0.401 C 
ATOM      4  O   UNL A   1     -26.794 -11.175  34.503  0.00  0.00    -0.242 OA
ATOM      5  O   UNL A   1     -28.321 -12.725  34.760  0.00  0.00    -0.242 OA
ENDBRANCH   1   3
BRANCH   1   6
ATOM      6  C   UNL A   1     -28.467 -11.224  32.031  0.00  0.00    +0.020 C 
ATOM      7  C   UNL A   1     -28.769 -11.495  30.696  0.00  0.00    -0.002 C 
BRANCH   7   8
ATOM      8  C   UNL A   1     -29.702 -10.813  29.937  0.00  0.00    -0.005 C 
ATOM      9  C   UNL A   1     -29.785 -11.229  28.722  0.00  0.00    -0.026 C 
ATOM     10  C   UNL A   1     -29.018 -12.156  28.107  0.00  0.00    +0.031 C 
ENDBRANCH   7   8
ENDBRANCH   1   6
TORSDOF 3
ENDMDL
ENDMDL
