MODEL 3343
MODEL 1
REMARK VINA RESULT:    -4.560      0.000      0.000
REMARK INTER + INTRA:          -4.871
REMARK INTER:                  -4.827
REMARK INTRA:                  -0.044
REMARK UNBOUND:                -0.044
REMARK  Name = No_3343-gen_results/8p0m/2024-11-26-14-13-15/
REMARK  1 active torsions:
REMARK  status: ('A' for Active; 'I' for Inactive)
REMARK    1  A    between atoms: C_6  and  O_8
REMARK                            x       y       z     vdW  Elec       q    Type
REMARK                         _______ _______ _______ _____ _____    ______ ____
ROOT
ATOM      1  C   UNL A   1     -25.093  -2.188  29.684  0.00  0.00    +0.038 A 
ATOM      2  C   UNL A   1     -26.097  -2.769  30.026  0.00  0.00    +0.015 A 
ATOM      3  C   UNL A   1     -26.379  -4.032  29.878  0.00  0.00    +0.058 A 
ATOM      4  C   UNL A   1     -25.418  -4.863  29.227  0.00  0.00    +0.015 A 
ATOM      5  C   UNL A   1     -24.247  -4.265  28.904  0.00  0.00    +0.038 A 
ATOM      6  C   UNL A   1     -24.026  -2.934  29.147  0.00  0.00    +0.139 A 
ATOM      7 CL   UNL A   1     -27.868  -4.757  30.331  0.00  0.00    -0.082 Cl
ENDROOT
BRANCH   6   8
ATOM      8  O   UNL A   1     -22.865  -2.260  28.874  0.00  0.00    -0.471 OA
ATOM      9  C   UNL A   1     -22.677  -0.999  29.228  0.00  0.00    +0.253 C 
ENDBRANCH   6   8
TORSDOF 1
ENDMDL
ENDMDL
