REMARK  Name = No_3343-gen_results/8p0m/2024-11-26-14-13-15/
REMARK  1 active torsions:
REMARK  status: ('A' for Active; 'I' for Inactive)
REMARK    1  A    between atoms: C_6  and  O_8
REMARK                            x       y       z     vdW  Elec       q    Type
REMARK                         _______ _______ _______ _____ _____    ______ ____
ROOT
ATOM      1  C   UNL A   1     -28.016  -0.814  28.878  0.00  0.00    +0.038 A 
ATOM      2  C   UNL A   1     -27.064  -0.119  28.608  0.00  0.00    +0.015 A 
ATOM      3  C   UNL A   1     -26.876   1.133  28.913  0.00  0.00    +0.058 A 
ATOM      4  C   UNL A   1     -27.901   1.807  29.644  0.00  0.00    +0.015 A 
ATOM      5  C   UNL A   1     -28.945   1.039  30.036  0.00  0.00    +0.038 A 
ATOM      6  C   UNL A   1     -29.027  -0.289  29.705  0.00  0.00    +0.139 A 
ATOM      7 CL   UNL A   1     -25.520   2.064  28.421  0.00  0.00    -0.082 Cl
ENDROOT
BRANCH   6   8
ATOM      8  O   UNL A   1     -30.034  -1.139  30.080  0.00  0.00    -0.471 OA
ATOM      9  C   UNL A   1     -29.805  -2.265  30.735  0.00  0.00    +0.253 C 
ENDBRANCH   6   8
TORSDOF 1
