REMARK  Name = No_3344-gen_results/8p0m/2024-11-26-14-13-15/
REMARK  3 active torsions:
REMARK  status: ('A' for Active; 'I' for Inactive)
REMARK    1  A    between atoms: C_1  and  C_6
REMARK    2  A    between atoms: N_8  and  C_11
REMARK    3  A    between atoms: C_11  and  C_12
REMARK                            x       y       z     vdW  Elec       q    Type
REMARK                         _______ _______ _______ _____ _____    ______ ____
ROOT
ATOM      1  C   UNL A   1     -28.022  -1.590  30.088  0.00  0.00    +0.265 C 
ATOM      2  N   UNL A   1     -27.067  -2.454  30.304  0.00  0.00    -0.197 NA
ATOM      3  O   UNL A   1     -29.015  -1.659  30.876  0.00  0.00    -0.268 OA
ENDROOT
BRANCH   1   4
ATOM      4  C   UNL A   1     -28.016  -0.814  28.878  0.00  0.00    +0.052 A 
ATOM      5  C   UNL A   1     -27.064  -0.119  28.608  0.00  0.00    -0.017 A 
ATOM      6  C   UNL A   1     -26.972   0.714  27.506  0.00  0.00    -0.003 A 
ATOM      7  C   UNL A   1     -28.105   0.774  26.642  0.00  0.00    +0.011 A 
ATOM      8  C   UNL A   1     -29.201   0.104  27.053  0.00  0.00    +0.058 A 
ATOM      9  C   UNL A   1     -29.164  -0.639  28.148  0.00  0.00    +0.016 A 
ATOM     10 CL   UNL A   1     -30.586   0.216  26.064  0.00  0.00    -0.082 Cl
ATOM     11  C   UNL A   1     -27.004   1.063  29.864  0.00  0.00    +0.031 C 
ENDBRANCH   1   4
BRANCH   2  12
ATOM     12  C   UNL A   1     -25.850  -2.523  29.517  0.00  0.00    +0.144 C 
BRANCH  12  13
ATOM     13  C   UNL A   1     -24.847  -1.636  29.750  0.00  0.00    +0.027 A 
ATOM     14  C   UNL A   1     -23.771  -1.990  30.225  0.00  0.00    -0.000 A 
ATOM     15  C   UNL A   1     -22.816  -0.923  30.447  0.00  0.00    -0.000 A 
ATOM     16  C   UNL A   1     -23.013   0.364  30.012  0.00  0.00    +0.002 A 
ATOM     17  C   UNL A   1     -24.194   0.690  29.474  0.00  0.00    +0.029 A 
ATOM     18  C   UNL A   1     -25.099  -0.287  29.345  0.00  0.00    +0.138 A 
ATOM     19  F   UNL A   1     -25.773  -0.424  28.543  0.00  0.00    -0.204 F 
ENDBRANCH  12  13
ENDBRANCH   2  12
TORSDOF 3
