MODEL 3344
MODEL 1
REMARK VINA RESULT:    -6.944      0.000      0.000
REMARK INTER + INTRA:          -8.490
REMARK INTER:                  -8.161
REMARK INTRA:                  -0.329
REMARK UNBOUND:                -0.329
REMARK  Name = No_3344-gen_results/8p0m/2024-11-26-14-13-15/
REMARK  3 active torsions:
REMARK  status: ('A' for Active; 'I' for Inactive)
REMARK    1  A    between atoms: C_1  and  C_6
REMARK    2  A    between atoms: N_8  and  C_11
REMARK    3  A    between atoms: C_11  and  C_12
REMARK                            x       y       z     vdW  Elec       q    Type
REMARK                         _______ _______ _______ _____ _____    ______ ____
ROOT
ATOM      1  C   UNL A   1     -23.546   0.363  29.351  0.00  0.00    +0.265 C 
ATOM      2  N   UNL A   1     -23.279  -0.851  29.751  0.00  0.00    -0.197 NA
ATOM      3  O   UNL A   1     -23.307   1.285  30.190  0.00  0.00    -0.268 OA
ENDROOT
BRANCH   1   4
ATOM      4  C   UNL A   1     -24.295   0.561  28.140  0.00  0.00    +0.052 A 
ATOM      5  C   UNL A   1     -23.726   0.598  27.074  0.00  0.00    -0.017 A 
ATOM      6  C   UNL A   1     -24.333   0.842  25.854  0.00  0.00    -0.003 A 
ATOM      7  C   UNL A   1     -25.736   1.099  25.867  0.00  0.00    +0.011 A 
ATOM      8  C   UNL A   1     -26.309   1.199  27.084  0.00  0.00    +0.058 A 
ATOM      9  C   UNL A   1     -25.605   0.967  28.180  0.00  0.00    +0.016 A 
ATOM     10 CL   UNL A   1     -27.974   1.569  27.121  0.00  0.00    -0.082 Cl
ATOM     11  C   UNL A   1     -22.700   1.983  27.163  0.00  0.00    +0.031 C 
ENDBRANCH   1   4
BRANCH   2  12
ATOM     12  C   UNL A   1     -23.475  -2.031  28.931  0.00  0.00    +0.144 C 
BRANCH  12  13
ATOM     13  C   UNL A   1     -24.478  -2.899  29.229  0.00  0.00    +0.027 A 
ATOM     14  C   UNL A   1     -25.572  -2.507  29.625  0.00  0.00    -0.000 A 
ATOM     15  C   UNL A   1     -26.525  -3.554  29.935  0.00  0.00    -0.000 A 
ATOM     16  C   UNL A   1     -26.303  -4.879  29.654  0.00  0.00    +0.002 A 
ATOM     17  C   UNL A   1     -25.101  -5.249  29.196  0.00  0.00    +0.029 A 
ATOM     18  C   UNL A   1     -24.201  -4.282  28.987  0.00  0.00    +0.138 A 
ATOM     19  F   UNL A   1     -23.501  -4.227  28.198  0.00  0.00    -0.204 F 
ENDBRANCH  12  13
ENDBRANCH   2  12
TORSDOF 3
ENDMDL
ENDMDL
