MODEL 3345
MODEL 1
REMARK VINA RESULT:    -7.063      0.000      0.000
REMARK INTER + INTRA:          -8.488
REMARK INTER:                  -7.889
REMARK INTRA:                  -0.600
REMARK UNBOUND:                -0.600
REMARK  Name = No_3345-gen_results/8p0m/2024-11-26-14-13-15/
REMARK  2 active torsions:
REMARK  status: ('A' for Active; 'I' for Inactive)
REMARK    1  A    between atoms: C_3  and  C_4
REMARK    2  A    between atoms: C_4  and  C_5
REMARK                            x       y       z     vdW  Elec       q    Type
REMARK                         _______ _______ _______ _____ _____    ______ ____
ROOT
ATOM      1  C   UNL A   1     -23.866  -1.554  29.792  0.00  0.00    +0.045 C 
ATOM      2  C   UNL A   1     -25.022  -1.048  30.587  0.00  0.00    +0.009 C 
ENDROOT
BRANCH   1   5
ATOM      3  C   UNL A   1     -20.976   0.211  28.480  0.00  0.00    -0.000 A 
ATOM      4  C   UNL A   1     -21.659  -0.578  29.091  0.00  0.00    -0.004 A 
ATOM      5  C   UNL A   1     -23.016  -0.595  29.053  0.00  0.00    -0.018 A 
ATOM      6  C   UNL A   1     -21.620   1.197  27.593  0.00  0.00    -0.000 A 
ATOM      7  C   UNL A   1     -22.944   1.267  27.519  0.00  0.00    -0.000 A 
ATOM      8  C   UNL A   1     -23.706   0.355  28.237  0.00  0.00    -0.004 A 
ENDBRANCH   1   5
BRANCH   1   9
ATOM      9  C   UNL A   1     -24.543  -2.552  29.016  0.00  0.00    -0.018 A 
ATOM     10  C   UNL A   1     -23.883  -3.713  28.587  0.00  0.00    -0.004 A 
ATOM     11  C   UNL A   1     -24.262  -4.833  28.648  0.00  0.00    -0.000 A 
ATOM     12  C   UNL A   1     -25.448  -5.190  29.357  0.00  0.00    -0.000 A 
ATOM     13  C   UNL A   1     -26.362  -4.116  29.666  0.00  0.00    -0.000 A 
ATOM     14  C   UNL A   1     -25.740  -3.042  30.015  0.00  0.00    -0.004 A 
ENDBRANCH   1   9
TORSDOF 2
ENDMDL
ENDMDL
