REMARK  Name = No_3345-gen_results/8p0m/2024-11-26-14-13-15/
REMARK  2 active torsions:
REMARK  status: ('A' for Active; 'I' for Inactive)
REMARK    1  A    between atoms: C_3  and  C_4
REMARK    2  A    between atoms: C_4  and  C_5
REMARK                            x       y       z     vdW  Elec       q    Type
REMARK                         _______ _______ _______ _____ _____    ______ ____
ROOT
ATOM      1  C   UNL A   1     -25.770   2.034  28.688  0.00  0.00    +0.045 C 
ATOM      2  C   UNL A   1     -24.959   2.614  29.797  0.00  0.00    +0.009 C 
ENDROOT
BRANCH   1   5
ATOM      3  C   UNL A   1     -28.016  -0.814  28.878  0.00  0.00    -0.000 A 
ATOM      4  C   UNL A   1     -27.064  -0.119  28.608  0.00  0.00    -0.004 A 
ATOM      5  C   UNL A   1     -26.929   1.171  29.008  0.00  0.00    -0.018 A 
ATOM      6  C   UNL A   1     -29.091  -0.275  29.732  0.00  0.00    -0.000 A 
ATOM      7  C   UNL A   1     -29.050   0.987  30.143  0.00  0.00    -0.000 A 
ATOM      8  C   UNL A   1     -27.950   1.766  29.812  0.00  0.00    -0.004 A 
ENDBRANCH   1   5
BRANCH   1   9
ATOM      9  C   UNL A   1     -24.714   1.443  27.919  0.00  0.00    -0.018 A 
ATOM     10  C   UNL A   1     -23.557   2.167  27.593  0.00  0.00    -0.004 A 
ATOM     11  C   UNL A   1     -22.429   1.819  27.684  0.00  0.00    -0.000 A 
ATOM     12  C   UNL A   1     -22.066   0.598  28.328  0.00  0.00    -0.000 A 
ATOM     13  C   UNL A   1     -23.122  -0.368  28.521  0.00  0.00    -0.000 A 
ATOM     14  C   UNL A   1     -24.232   0.196  28.858  0.00  0.00    -0.004 A 
ENDBRANCH   1   9
TORSDOF 2
