MODEL 3346
MODEL 1
REMARK VINA RESULT:    -7.190      0.000      0.000
REMARK INTER + INTRA:          -8.910
REMARK INTER:                  -8.031
REMARK INTRA:                  -0.879
REMARK UNBOUND:                -0.879
REMARK  Name = No_3346-gen_results/8p0m/2024-11-26-14-13-15/
REMARK  2 active torsions:
REMARK  status: ('A' for Active; 'I' for Inactive)
REMARK    1  A    between atoms: C_4  and  C_11
REMARK    2  A    between atoms: C_12  and  C_17
REMARK                            x       y       z     vdW  Elec       q    Type
REMARK                         _______ _______ _______ _____ _____    ______ ____
ROOT
ATOM      1  C   UNL A   1     -24.964   0.472  26.633  0.00  0.00    +0.007 A 
ATOM      2  C   UNL A   1     -24.917  -0.433  27.434  0.00  0.00    +0.001 A 
ATOM      3  C   UNL A   1     -24.432  -0.289  28.733  0.00  0.00    +0.000 A 
ATOM      4  C   UNL A   1     -24.326  -1.337  29.767  0.00  0.00    +0.000 A 
ATOM      5  C   UNL A   1     -23.781  -1.162  31.088  0.00  0.00    +0.000 A 
ATOM      6  C   UNL A   1     -23.525   0.166  31.445  0.00  0.00    +0.000 A 
ATOM      7  C   UNL A   1     -24.317   1.772  27.021  0.00  0.00    +0.035 A 
ATOM      8  C   UNL A   1     -23.895   2.030  28.306  0.00  0.00    +0.007 A 
ATOM      9  C   UNL A   1     -23.886   1.001  29.230  0.00  0.00    +0.001 A 
ATOM     10  C   UNL A   1     -23.477   1.210  30.546  0.00  0.00    +0.000 A 
ATOM     11 BR   UNL A   1     -24.356   3.130  25.679  0.00  0.00    -0.049 Br
ENDROOT
BRANCH   4  12
ATOM     12  C   UNL A   1     -24.771  -2.736  29.464  0.00  0.00    +0.006 A 
ATOM     13  C   UNL A   1     -25.990  -3.044  29.720  0.00  0.00    +0.080 A 
ATOM     14  C   UNL A   1     -26.429  -4.377  29.630  0.00  0.00    +0.007 A 
ATOM     15  C   UNL A   1     -23.847  -3.613  28.957  0.00  0.00    +0.000 A 
ATOM     16  C   UNL A   1     -24.273  -4.800  28.823  0.00  0.00    +0.000 A 
ATOM     17  C   UNL A   1     -25.565  -5.291  29.003  0.00  0.00    +0.000 A 
BRANCH  13  18
ATOM     18  C   UNL A   1     -27.070  -2.098  30.308  0.00  0.00    +0.388 C 
ATOM     19  O   UNL A   1     -27.292  -2.160  31.524  0.00  0.00    -0.241 OA
ATOM     20  O   UNL A   1     -27.822  -1.491  29.493  0.00  0.00    -0.241 OA
ENDBRANCH  13  18
ENDBRANCH   4  12
TORSDOF 2
ENDMDL
ENDMDL
