REMARK  Name = No_3347-gen_results/8p0m/2024-11-26-14-13-15/
REMARK  8 active torsions:
REMARK  status: ('A' for Active; 'I' for Inactive)
REMARK    1  A    between atoms: C_4  and  O_8
REMARK    2  A    between atoms: O_8  and  C_9
REMARK    3  A    between atoms: C_9  and  C_20
REMARK    4  A    between atoms: C_10  and  C_11
REMARK    5  A    between atoms: C_12  and  C_13
REMARK    6  A    between atoms: C_20  and  C_21
REMARK    7  A    between atoms: C_20  and  C_22
REMARK    8  A    between atoms: C_23  and  C_25
REMARK                            x       y       z     vdW  Elec       q    Type
REMARK                         _______ _______ _______ _____ _____    ______ ____
ROOT
ATOM      1  C   UNL A   1     -25.170   2.501  28.427  0.00  0.00    +0.127 C 
ATOM      2  C   UNL A   1     -24.012   2.830  28.694  0.00  0.00    +0.033 C 
ENDROOT
BRANCH   2   3
ATOM      3  C   UNL A   1     -23.029   1.851  28.179  0.00  0.00    +0.003 C 
ATOM      4  C   UNL A   1     -22.936   0.849  28.418  0.00  0.00    +0.000 C 
BRANCH   4   5
ATOM      5  C   UNL A   1     -23.790   0.087  29.288  0.00  0.00    -0.000 A 
ATOM      6  C   UNL A   1     -23.491  -1.318  29.622  0.00  0.00    -0.000 A 
ATOM      7  C   UNL A   1     -24.463  -2.046  30.309  0.00  0.00    -0.000 A 
ATOM      8  C   UNL A   1     -25.207  -1.334  31.290  0.00  0.00    -0.004 A 
ATOM      9  C   UNL A   1     -25.091   0.087  31.403  0.00  0.00    -0.022 A 
ATOM     10  C   UNL A   1     -24.197   0.824  30.495  0.00  0.00    -0.004 A 
ATOM     11  C   UNL A   1     -24.497   0.348  32.877  0.00  0.00    +0.031 C 
ENDBRANCH   4   5
ENDBRANCH   2   3
BRANCH   1  12
ATOM     12  O   UNL A   1     -25.973   2.248  29.354  0.00  0.00    -0.455 OA
BRANCH  12  16
ATOM     13  C   UNL A   1     -28.016  -0.814  28.878  0.00  0.00    +0.033 A 
ATOM     14  C   UNL A   1     -28.469  -0.785  29.829  0.00  0.00    +0.003 A 
ATOM     15  C   UNL A   1     -27.087   0.290  28.638  0.00  0.00    +0.174 A 
ATOM     16  C   UNL A   1     -26.832   1.249  29.587  0.00  0.00    +0.172 A 
ATOM     17  C   UNL A   1     -28.391   0.080  31.006  0.00  0.00    +0.003 A 
ATOM     18  C   UNL A   1     -27.494   1.152  30.784  0.00  0.00    +0.040 A 
ATOM     19  F   UNL A   1     -26.406   0.354  27.487  0.00  0.00    -0.201 F 
ENDBRANCH  12  16
ENDBRANCH   1  12
BRANCH   1  20
ATOM     20  C   UNL A   1     -25.941   3.572  27.533  0.00  0.00    +0.079 C 
BRANCH  20  21
ATOM     21  C   UNL A   1     -26.293   3.353  26.268  0.00  0.00    +0.012 C 
ATOM     22  C   UNL A   1     -26.044   2.084  25.622  0.00  0.00    +0.001 C 
ENDBRANCH  20  21
BRANCH  20  23
ATOM     23  C   UNL A   1     -26.250   4.848  28.112  0.00  0.00    -0.019 C 
ATOM     24  C   UNL A   1     -26.875   5.828  27.458  0.00  0.00    -0.004 C 
BRANCH  24  25
ATOM     25  C   UNL A   1     -26.986   7.046  28.090  0.00  0.00    -0.005 C 
ATOM     26  C   UNL A   1     -26.664   7.263  29.422  0.00  0.00    -0.026 C 
ATOM     27  C   UNL A   1     -26.093   6.169  30.148  0.00  0.00    +0.031 C 
ENDBRANCH  24  25
ENDBRANCH  20  23
ENDBRANCH   1  20
TORSDOF 8
