MODEL 3348
MODEL 1
REMARK VINA RESULT:    -8.413      0.000      0.000
REMARK INTER + INTRA:         -12.970
REMARK INTER:                 -11.365
REMARK INTRA:                  -1.605
REMARK UNBOUND:                -1.605
REMARK  Name = No_3348-gen_results/8p0m/2024-11-26-14-13-15/
REMARK  6 active torsions:
REMARK  status: ('A' for Active; 'I' for Inactive)
REMARK    1  A    between atoms: C_2  and  C_7
REMARK    2  A    between atoms: C_6  and  C_17
REMARK    3  A    between atoms: C_7  and  C_8
REMARK    4  A    between atoms: C_7  and  C_14
REMARK    5  A    between atoms: N_19  and  C_20
REMARK    6  A    between atoms: C_20  and  C_21
REMARK                            x       y       z     vdW  Elec       q    Type
REMARK                         _______ _______ _______ _____ _____    ______ ____
ROOT
ATOM      1  C   UNL A   1     -23.572   0.538  28.475  0.00  0.00    +0.001 A 
ATOM      2  C   UNL A   1     -22.968  -0.258  29.156  0.00  0.00    -0.009 A 
ATOM      3  C   UNL A   1     -21.582  -0.349  29.095  0.00  0.00    -0.003 A 
ATOM      4  C   UNL A   1     -20.825   0.472  28.185  0.00  0.00    -0.000 A 
ATOM      5  C   UNL A   1     -21.605   1.348  27.419  0.00  0.00    +0.004 A 
ATOM      6  C   UNL A   1     -22.915   1.382  27.501  0.00  0.00    +0.055 A 
ENDROOT
BRANCH   6   7
ATOM      7  C   UNL A   1     -23.671   2.256  26.603  0.00  0.00    +0.265 C 
ATOM      8  O   UNL A   1     -23.258   2.810  25.741  0.00  0.00    -0.268 OA
ATOM      9  N   UNL A   1     -25.072   2.114  26.813  0.00  0.00    -0.197 NA
BRANCH   9  10
ATOM     10  C   UNL A   1     -25.994   2.828  25.926  0.00  0.00    +0.142 C 
BRANCH  10  11
ATOM     11  C   UNL A   1     -26.886   2.062  25.266  0.00  0.00    -0.001 A 
ATOM     12  C   UNL A   1     -26.605   0.723  25.203  0.00  0.00    -0.003 A 
ATOM     13  C   UNL A   1     -27.448  -0.138  24.375  0.00  0.00    -0.000 A 
ATOM     14  C   UNL A   1     -28.515   0.468  23.645  0.00  0.00    -0.000 A 
ATOM     15  C   UNL A   1     -28.689   1.854  23.688  0.00  0.00    -0.000 A 
ATOM     16  C   UNL A   1     -27.870   2.643  24.405  0.00  0.00    -0.003 A 
ENDBRANCH  10  11
ENDBRANCH   9  10
ENDBRANCH   6   7
BRANCH   2  17
ATOM     17  C   UNL A   1     -23.586  -1.200  30.127  0.00  0.00    +0.136 C 
BRANCH  17  18
ATOM     18  C   UNL A   1     -24.220  -2.225  29.932  0.00  0.00    -0.009 A 
ATOM     19  C   UNL A   1     -25.666  -2.251  30.425  0.00  0.00    -0.004 A 
ATOM     20  C   UNL A   1     -26.469  -3.387  30.029  0.00  0.00    -0.000 A 
ATOM     21  C   UNL A   1     -25.923  -4.407  29.345  0.00  0.00    -0.000 A 
ATOM     22  C   UNL A   1     -24.655  -4.365  28.807  0.00  0.00    -0.000 A 
ATOM     23  C   UNL A   1     -23.826  -3.279  29.097  0.00  0.00    -0.004 A 
ENDBRANCH  17  18
BRANCH  17  24
ATOM     24  C   UNL A   1     -23.411  -0.713  31.526  0.00  0.00    +0.318 C 
ATOM     25  O   UNL A   1     -22.826  -1.274  32.384  0.00  0.00    -0.258 OA
ATOM     26  F   UNL A   1     -24.030   0.410  31.782  0.00  0.00    -0.163 F 
ENDBRANCH  17  24
ENDBRANCH   2  17
TORSDOF 6
ENDMDL
ENDMDL
