REMARK  Name = No_3348-gen_results/8p0m/2024-11-26-14-13-15/
REMARK  6 active torsions:
REMARK  status: ('A' for Active; 'I' for Inactive)
REMARK    1  A    between atoms: C_2  and  C_7
REMARK    2  A    between atoms: C_6  and  C_17
REMARK    3  A    between atoms: C_7  and  C_8
REMARK    4  A    between atoms: C_7  and  C_14
REMARK    5  A    between atoms: N_19  and  C_20
REMARK    6  A    between atoms: C_20  and  C_21
REMARK                            x       y       z     vdW  Elec       q    Type
REMARK                         _______ _______ _______ _____ _____    ______ ____
ROOT
ATOM      1  C   UNL A   1     -28.016  -0.814  28.878  0.00  0.00    +0.001 A 
ATOM      2  C   UNL A   1     -27.064  -0.119  28.608  0.00  0.00    -0.009 A 
ATOM      3  C   UNL A   1     -25.792  -0.430  29.076  0.00  0.00    -0.003 A 
ATOM      4  C   UNL A   1     -25.576  -1.565  29.936  0.00  0.00    -0.000 A 
ATOM      5  C   UNL A   1     -26.735  -2.300  30.217  0.00  0.00    +0.004 A 
ATOM      6  C   UNL A   1     -27.918  -1.954  29.763  0.00  0.00    +0.055 A 
ENDROOT
BRANCH   6   7
ATOM      7  C   UNL A   1     -29.098  -2.715  30.174  0.00  0.00    +0.265 C 
ATOM      8  O   UNL A   1     -30.146  -2.373  30.102  0.00  0.00    -0.268 OA
ATOM      9  N   UNL A   1     -28.760  -4.070  30.451  0.00  0.00    -0.197 NA
BRANCH   9  10
ATOM     10  C   UNL A   1     -29.834  -5.015  30.770  0.00  0.00    +0.142 C 
BRANCH  10  11
ATOM     11  C   UNL A   1     -30.720  -5.252  29.782  0.00  0.00    -0.001 A 
ATOM     12  C   UNL A   1     -31.476  -6.387  29.905  0.00  0.00    -0.003 A 
ATOM     13  C   UNL A   1     -32.344  -6.781  28.797  0.00  0.00    -0.000 A 
ATOM     14  C   UNL A   1     -32.341  -5.972  27.620  0.00  0.00    -0.000 A 
ATOM     15  C   UNL A   1     -31.478  -4.877  27.530  0.00  0.00    -0.000 A 
ATOM     16  C   UNL A   1     -30.640  -4.559  28.532  0.00  0.00    -0.003 A 
ENDBRANCH  10  11
ENDBRANCH   9  10
ENDBRANCH   6   7
BRANCH   2  17
ATOM     17  C   UNL A   1     -27.106   1.102  27.759  0.00  0.00    +0.136 C 
BRANCH  17  18
ATOM     18  C   UNL A   1     -26.716   2.235  27.994  0.00  0.00    -0.009 A 
ATOM     19  C   UNL A   1     -26.069   2.477  29.357  0.00  0.00    -0.004 A 
ATOM     20  C   UNL A   1     -25.441   3.764  29.561  0.00  0.00    -0.000 A 
ATOM     21  C   UNL A   1     -25.522   4.722  28.622  0.00  0.00    -0.000 A 
ATOM     22  C   UNL A   1     -26.012   4.499  27.353  0.00  0.00    -0.000 A 
ATOM     23  C   UNL A   1     -26.592   3.265  27.052  0.00  0.00    -0.004 A 
ENDBRANCH  17  18
BRANCH  17  24
ATOM     24  C   UNL A   1     -27.799   0.828  26.467  0.00  0.00    +0.318 C 
ATOM     25  O   UNL A   1     -28.942   1.020  26.243  0.00  0.00    -0.258 OA
ATOM     26  F   UNL A   1     -27.039   0.272  25.560  0.00  0.00    -0.163 F 
ENDBRANCH  17  24
ENDBRANCH   2  17
TORSDOF 6
