REMARK  Name = No_3349-gen_results/8p0m/2024-11-26-14-13-15/
REMARK  5 active torsions:
REMARK  status: ('A' for Active; 'I' for Inactive)
REMARK    1  A    between atoms: C_3  and  C_11
REMARK    2  A    between atoms: C_6  and  C_7
REMARK    3  A    between atoms: N_8  and  C_10
REMARK    4  A    between atoms: C_10  and  C_15
REMARK    5  A    between atoms: C_11  and  C_12
REMARK                            x       y       z     vdW  Elec       q    Type
REMARK                         _______ _______ _______ _____ _____    ______ ____
ROOT
ATOM      1  C   UNL A   1     -28.016  -0.814  28.878  0.00  0.00    +0.004 A 
ATOM      2  C   UNL A   1     -27.064  -0.119  28.608  0.00  0.00    -0.004 A 
ATOM      3  C   UNL A   1     -25.792  -0.430  29.076  0.00  0.00    -0.013 A 
ATOM      4  C   UNL A   1     -25.576  -1.565  29.936  0.00  0.00    -0.004 A 
ATOM      5  C   UNL A   1     -26.735  -2.300  30.217  0.00  0.00    +0.004 A 
ATOM      6  C   UNL A   1     -27.918  -1.954  29.763  0.00  0.00    +0.055 A 
ENDROOT
BRANCH   6   7
ATOM      7  C   UNL A   1     -29.073  -2.784  30.178  0.00  0.00    +0.265 C 
ATOM      8  N   UNL A   1     -30.237  -2.295  30.169  0.00  0.00    -0.197 NA
ATOM      9  O   UNL A   1     -28.872  -3.983  30.561  0.00  0.00    -0.268 OA
BRANCH   8  10
ATOM     10  C   UNL A   1     -31.415  -3.091  30.508  0.00  0.00    +0.141 C 
BRANCH  10  11
ATOM     11  C   UNL A   1     -32.412  -2.890  29.691  0.00  0.00    -0.003 C 
ATOM     12  C   UNL A   1     -33.139  -2.153  29.711  0.00  0.00    -0.003 C 
ENDBRANCH  10  11
ENDBRANCH   8  10
ENDBRANCH   6   7
BRANCH   3  13
ATOM     13  C   UNL A   1     -24.534   0.345  28.715  0.00  0.00    +0.118 C 
BRANCH  13  14
ATOM     14  C   UNL A   1     -24.093   1.362  29.504  0.00  0.00    +0.278 C 
ATOM     15  N   UNL A   1     -22.980   2.023  29.121  0.00  0.00    -0.107 NA
ATOM     16  O   UNL A   1     -24.707   1.757  30.560  0.00  0.00    -0.268 OA
ENDBRANCH  13  14
ENDBRANCH   3  13
TORSDOF 5
