MODEL 3349
MODEL 1
REMARK VINA RESULT:    -5.587      0.000      0.000
REMARK INTER + INTRA:          -7.546
REMARK INTER:                  -7.221
REMARK INTRA:                  -0.325
REMARK UNBOUND:                -0.325
REMARK  Name = No_3349-gen_results/8p0m/2024-11-26-14-13-15/
REMARK  5 active torsions:
REMARK  status: ('A' for Active; 'I' for Inactive)
REMARK    1  A    between atoms: C_3  and  C_11
REMARK    2  A    between atoms: C_6  and  C_7
REMARK    3  A    between atoms: N_8  and  C_10
REMARK    4  A    between atoms: C_10  and  C_15
REMARK    5  A    between atoms: C_11  and  C_12
REMARK                            x       y       z     vdW  Elec       q    Type
REMARK                         _______ _______ _______ _____ _____    ______ ____
ROOT
ATOM      1  C   UNL A   1     -25.490  -1.631  29.757  0.00  0.00    +0.004 A 
ATOM      2  C   UNL A   1     -26.401  -2.396  29.972  0.00  0.00    -0.004 A 
ATOM      3  C   UNL A   1     -26.263  -3.760  29.739  0.00  0.00    -0.013 A 
ATOM      4  C   UNL A   1     -25.046  -4.298  29.189  0.00  0.00    -0.004 A 
ATOM      5  C   UNL A   1     -24.053  -3.340  28.948  0.00  0.00    +0.004 A 
ATOM      6  C   UNL A   1     -24.239  -2.059  29.170  0.00  0.00    +0.055 A 
ENDROOT
BRANCH   6   7
ATOM      7  C   UNL A   1     -23.129  -1.141  28.821  0.00  0.00    +0.265 C 
ATOM      8  N   UNL A   1     -23.378  -0.025  28.287  0.00  0.00    -0.197 NA
ATOM      9  O   UNL A   1     -21.928  -1.503  29.047  0.00  0.00    -0.268 OA
BRANCH   8  10
ATOM     10  C   UNL A   1     -22.324   0.941  27.983  0.00  0.00    +0.141 C 
BRANCH  10  11
ATOM     11  C   UNL A   1     -22.751   1.944  27.265  0.00  0.00    -0.003 C 
ATOM     12  C   UNL A   1     -22.707   2.083  26.240  0.00  0.00    -0.003 C 
ENDBRANCH  10  11
ENDBRANCH   8  10
ENDBRANCH   6   7
BRANCH   3  13
ATOM     13  C   UNL A   1     -27.330  -4.796  30.060  0.00  0.00    +0.118 C 
BRANCH  13  14
ATOM     14  C   UNL A   1     -28.548  -4.416  30.534  0.00  0.00    +0.278 C 
ATOM     15  N   UNL A   1     -29.589  -4.418  29.676  0.00  0.00    -0.107 NA
ATOM     16  O   UNL A   1     -28.766  -4.108  31.761  0.00  0.00    -0.268 OA
ENDBRANCH  13  14
ENDBRANCH   3  13
TORSDOF 5
ENDMDL
ENDMDL
