REMARK  Name = No_335-gen_results/8p0m/2024-11-26-14-13-15/
REMARK  5 active torsions:
REMARK  status: ('A' for Active; 'I' for Inactive)
REMARK    1  A    between atoms: C_3  and  C_7
REMARK    2  A    between atoms: C_7  and  C_8
REMARK    3  A    between atoms: C_13  and  C_14
REMARK    4  A    between atoms: C_14  and  C_15
REMARK    5  A    between atoms: C_15  and  C_16
REMARK                            x       y       z     vdW  Elec       q    Type
REMARK                         _______ _______ _______ _____ _____    ______ ____
ROOT
ATOM      1  C   UNL A   1     -26.345   1.427  26.758  0.00  0.00    -0.018 A 
ATOM      2  C   UNL A   1     -25.084   1.107  26.314  0.00  0.00    -0.004 A 
ATOM      3  C   UNL A   1     -24.056   2.132  26.285  0.00  0.00    -0.001 A 
ATOM      4  C   UNL A   1     -24.368   3.363  26.790  0.00  0.00    -0.004 A 
ATOM      5  C   UNL A   1     -26.449   2.760  27.256  0.00  0.00    -0.008 A 
ATOM      6  C   UNL A   1     -25.543   3.700  27.218  0.00  0.00    -0.022 A 
ENDROOT
BRANCH   1   7
ATOM      7  C   UNL A   1     -27.345   0.342  26.864  0.00  0.00    +0.053 C 
BRANCH   7  10
ATOM      8  C   UNL A   1     -28.016  -0.814  28.878  0.00  0.00    +0.007 A 
ATOM      9  C   UNL A   1     -28.469  -0.785  29.829  0.00  0.00    +0.057 A 
ATOM     10  C   UNL A   1     -28.182   0.428  28.113  0.00  0.00    -0.017 A 
ATOM     11  C   UNL A   1     -28.984   1.415  28.515  0.00  0.00    -0.004 A 
ATOM     12  C   UNL A   1     -29.380   0.138  30.461  0.00  0.00    +0.011 A 
ATOM     13  C   UNL A   1     -29.541   1.274  29.724  0.00  0.00    +0.001 A 
ATOM     14 CL   UNL A   1     -28.288  -2.296  30.909  0.00  0.00    -0.082 Cl
ENDBRANCH   7  10
ENDBRANCH   1   7
BRANCH   6  15
ATOM     15  C   UNL A   1     -25.753   5.092  27.706  0.00  0.00    +0.032 C 
BRANCH  15  16
ATOM     16  C   UNL A   1     -25.535   5.443  28.884  0.00  0.00    +0.077 C 
BRANCH  16  17
ATOM     17  C   UNL A   1     -25.933   4.642  29.998  0.00  0.00    +0.319 C 
ATOM     18  F   UNL A   1     -25.349   4.996  31.144  0.00  0.00    -0.198 F 
ATOM     19  F   UNL A   1     -26.292   3.527  29.939  0.00  0.00    -0.198 F 
ENDBRANCH  16  17
ENDBRANCH  15  16
ENDBRANCH   6  15
TORSDOF 5
