MODEL 3350
MODEL 1
REMARK VINA RESULT:    -5.287      0.000      0.000
REMARK INTER + INTRA:          -5.630
REMARK INTER:                  -5.596
REMARK INTRA:                  -0.034
REMARK UNBOUND:                -0.034
REMARK  Name = No_3350-gen_results/8p0m/2024-11-26-14-13-15/
REMARK  1 active torsions:
REMARK  status: ('A' for Active; 'I' for Inactive)
REMARK    1  A    between atoms: C_1  and  C_7
REMARK                            x       y       z     vdW  Elec       q    Type
REMARK                         _______ _______ _______ _____ _____    ______ ____
ROOT
ATOM      1  C   UNL A   1      -9.573 -10.104  18.256  0.00  0.00    +0.080 A 
ATOM      2  C   UNL A   1      -8.491 -10.570  18.529  0.00  0.00    +0.007 A 
ATOM      3  C   UNL A   1      -7.795 -10.262  19.681  0.00  0.00    +0.000 A 
ATOM      4  C   UNL A   1      -8.406  -9.377  20.613  0.00  0.00    +0.000 A 
ATOM      5  C   UNL A   1      -9.683  -9.019  20.345  0.00  0.00    +0.000 A 
ATOM      6  C   UNL A   1     -10.287  -9.395  19.234  0.00  0.00    +0.007 A 
ENDROOT
BRANCH   1   7
ATOM      7  C   UNL A   1     -10.267 -10.506  16.978  0.00  0.00    +0.388 C 
ATOM      8  O   UNL A   1     -11.491 -10.513  16.965  0.00  0.00    -0.241 OA
ATOM      9  O   UNL A   1      -9.613 -10.971  15.969  0.00  0.00    -0.241 OA
ENDBRANCH   1   7
TORSDOF 1
ENDMDL
ENDMDL
