MODEL 3351
MODEL 1
REMARK VINA RESULT:    -5.823      0.000      0.000
REMARK INTER + INTRA:          -7.567
REMARK INTER:                  -7.184
REMARK INTRA:                  -0.382
REMARK UNBOUND:                -0.382
REMARK  Name = No_3351-gen_results/8p0m/2024-11-26-14-13-15/
REMARK  4 active torsions:
REMARK  status: ('A' for Active; 'I' for Inactive)
REMARK    1  A    between atoms: C_2  and  C_7
REMARK    2  A    between atoms: N_8  and  C_10
REMARK    3  A    between atoms: C_11  and  C_12
REMARK    4  A    between atoms: C_13  and  C_14
REMARK                            x       y       z     vdW  Elec       q    Type
REMARK                         _______ _______ _______ _____ _____    ______ ____
ROOT
ATOM      1  C   UNL A   1     -24.323  -1.191  29.117  0.00  0.00    +0.269 C 
ATOM      2  N   UNL A   1     -23.641  -0.613  28.505  0.00  0.00    -0.174 NA
ATOM      3  O   UNL A   1     -25.065  -0.543  30.067  0.00  0.00    -0.268 OA
ENDROOT
BRANCH   1   5
ATOM      4  C   UNL A   1     -23.858  -3.502  28.675  0.00  0.00    +0.005 A 
ATOM      5  C   UNL A   1     -24.602  -2.652  29.107  0.00  0.00    +0.055 A 
ATOM      6  C   UNL A   1     -25.827  -2.990  29.671  0.00  0.00    +0.005 A 
ATOM      7  C   UNL A   1     -26.269  -4.360  29.717  0.00  0.00    +0.000 A 
ATOM      8  C   UNL A   1     -25.357  -5.275  29.175  0.00  0.00    +0.000 A 
ATOM      9  C   UNL A   1     -24.218  -4.902  28.637  0.00  0.00    +0.000 A 
ENDBRANCH   1   5
BRANCH   2  10
ATOM     10  C   UNL A   1     -23.403   0.399  28.112  0.00  0.00    +0.089 C 
ATOM     11  C   UNL A   1     -23.607   1.030  26.893  0.00  0.00    +0.018 C 
BRANCH  11  12
ATOM     12  C   UNL A   1     -23.406   2.428  26.544  0.00  0.00    +0.001 C 
ATOM     13  C   UNL A   1     -24.435   3.300  26.262  0.00  0.00    +0.000 C 
BRANCH  13  14
ATOM     14  C   UNL A   1     -25.708   2.879  25.990  0.00  0.00    +0.000 C 
ATOM     15  C   UNL A   1     -26.719   3.755  26.344  0.00  0.00    +0.000 C 
ENDBRANCH  13  14
ENDBRANCH  11  12
ENDBRANCH   2  10
TORSDOF 4
ENDMDL
ENDMDL
