REMARK  Name = No_3351-gen_results/8p0m/2024-11-26-14-13-15/
REMARK  4 active torsions:
REMARK  status: ('A' for Active; 'I' for Inactive)
REMARK    1  A    between atoms: C_2  and  C_7
REMARK    2  A    between atoms: N_8  and  C_10
REMARK    3  A    between atoms: C_11  and  C_12
REMARK    4  A    between atoms: C_13  and  C_14
REMARK                            x       y       z     vdW  Elec       q    Type
REMARK                         _______ _______ _______ _____ _____    ______ ____
ROOT
ATOM      1  C   UNL A   1     -27.106   1.102  27.759  0.00  0.00    +0.269 C 
ATOM      2  N   UNL A   1     -26.855   2.126  28.008  0.00  0.00    -0.174 NA
ATOM      3  O   UNL A   1     -27.540   0.820  26.492  0.00  0.00    -0.268 OA
ENDROOT
BRANCH   1   5
ATOM      4  C   UNL A   1     -28.016  -0.814  28.878  0.00  0.00    +0.005 A 
ATOM      5  C   UNL A   1     -27.064  -0.119  28.608  0.00  0.00    +0.055 A 
ATOM      6  C   UNL A   1     -25.792  -0.430  29.076  0.00  0.00    +0.005 A 
ATOM      7  C   UNL A   1     -25.576  -1.565  29.936  0.00  0.00    +0.000 A 
ATOM      8  C   UNL A   1     -26.735  -2.300  30.217  0.00  0.00    +0.000 A 
ATOM      9  C   UNL A   1     -27.918  -1.954  29.763  0.00  0.00    +0.000 A 
ENDBRANCH   1   5
BRANCH   2  10
ATOM     10  C   UNL A   1     -26.555   3.116  27.601  0.00  0.00    +0.089 C 
ATOM     11  C   UNL A   1     -25.945   4.236  28.149  0.00  0.00    +0.018 C 
BRANCH  11  12
ATOM     12  C   UNL A   1     -25.440   5.422  27.474  0.00  0.00    +0.001 C 
ATOM     13  C   UNL A   1     -24.937   6.521  28.136  0.00  0.00    +0.000 C 
BRANCH  13  14
ATOM     14  C   UNL A   1     -25.133   6.734  29.473  0.00  0.00    +0.000 C 
ATOM     15  C   UNL A   1     -25.680   5.676  30.177  0.00  0.00    +0.000 C 
ENDBRANCH  13  14
ENDBRANCH  11  12
ENDBRANCH   2  10
TORSDOF 4
