MODEL 3352
MODEL 1
REMARK VINA RESULT:    -8.209      0.000      0.000
REMARK INTER + INTRA:         -10.633
REMARK INTER:                  -9.649
REMARK INTRA:                  -0.984
REMARK UNBOUND:                -0.984
REMARK  Name = No_3352-gen_results/8p0m/2024-11-26-14-13-15/
REMARK  3 active torsions:
REMARK  status: ('A' for Active; 'I' for Inactive)
REMARK    1  A    between atoms: C_3  and  C_7
REMARK    2  A    between atoms: C_7  and  C_8
REMARK    3  A    between atoms: C_7  and  C_14
REMARK                            x       y       z     vdW  Elec       q    Type
REMARK                         _______ _______ _______ _____ _____    ______ ____
ROOT
ATOM      1  C   UNL A   1     -24.597  -0.642  29.466  0.00  0.00    +0.121 C 
ENDROOT
BRANCH   1   2
ATOM      2  C   UNL A   1     -25.239   0.058  30.450  0.00  0.00    +0.237 C 
ATOM      3  N   UNL A   1     -24.659   0.042  31.634  0.00  0.00    -0.257 N 
ATOM      4  C   UNL A   1     -23.720  -0.486  31.968  0.00  0.00    +0.068 C 
ATOM      5  C   UNL A   1     -25.426   0.899  32.643  0.00  0.00    +0.103 C 
ATOM      6  C   UNL A   1     -23.383  -1.229  32.821  0.00  0.00    +0.016 C 
ATOM      7  C   UNL A   1     -26.199   0.076  33.533  0.00  0.00    +0.048 C 
ATOM      8  C   UNL A   1     -25.380  -0.529  34.570  0.00  0.00    -0.024 C 
ATOM      9  C   UNL A   1     -24.056  -1.237  34.265  0.00  0.00    -0.003 C 
ATOM     10  O   UNL A   1     -26.258   0.672  30.109  0.00  0.00    -0.274 OA
ENDBRANCH   1   2
BRANCH   1  11
ATOM     11  C   UNL A   1     -23.915  -0.093  28.416  0.00  0.00    -0.010 A 
ATOM     12  C   UNL A   1     -22.902   0.833  28.619  0.00  0.00    -0.000 A 
ATOM     13  C   UNL A   1     -22.456   1.558  27.366  0.00  0.00    +0.042 A 
ATOM     14  C   UNL A   1     -23.275   1.617  26.236  0.00  0.00    +0.196 A 
ATOM     15  C   UNL A   1     -24.435   0.857  26.202  0.00  0.00    +0.042 A 
ATOM     16  C   UNL A   1     -24.816   0.075  27.260  0.00  0.00    -0.000 A 
ATOM     17  O   UNL A   1     -22.953   2.449  25.243  0.00  0.00    -0.287 OA
ENDBRANCH   1  11
BRANCH   1  20
ATOM     18  C   UNL A   1     -23.844  -3.013  28.852  0.00  0.00    -0.004 A 
ATOM     19  C   UNL A   1     -24.082  -4.039  28.825  0.00  0.00    -0.000 A 
ATOM     20  C   UNL A   1     -24.823  -2.121  29.341  0.00  0.00    -0.010 A 
ATOM     21  C   UNL A   1     -26.064  -2.558  29.762  0.00  0.00    -0.004 A 
ATOM     22  C   UNL A   1     -25.312  -4.758  29.212  0.00  0.00    -0.000 A 
ATOM     23  C   UNL A   1     -26.278  -3.940  29.685  0.00  0.00    -0.000 A 
ENDBRANCH   1  20
TORSDOF 3
ENDMDL
ENDMDL
