REMARK  Name = No_3352-gen_results/8p0m/2024-11-26-14-13-15/
REMARK  3 active torsions:
REMARK  status: ('A' for Active; 'I' for Inactive)
REMARK    1  A    between atoms: C_3  and  C_7
REMARK    2  A    between atoms: C_7  and  C_8
REMARK    3  A    between atoms: C_7  and  C_14
REMARK                            x       y       z     vdW  Elec       q    Type
REMARK                         _______ _______ _______ _____ _____    ______ ____
ROOT
ATOM      1  C   UNL A   1     -26.399   0.295  27.228  0.00  0.00    +0.121 C 
ENDROOT
BRANCH   1   2
ATOM      2  C   UNL A   1     -27.095   0.188  26.056  0.00  0.00    +0.237 C 
ATOM      3  N   UNL A   1     -27.837   1.229  25.735  0.00  0.00    -0.257 N 
ATOM      4  C   UNL A   1     -28.007   2.192  26.296  0.00  0.00    +0.068 C 
ATOM      5  C   UNL A   1     -28.525   1.028  24.383  0.00  0.00    +0.103 C 
ATOM      6  C   UNL A   1     -28.916   2.834  26.689  0.00  0.00    +0.016 C 
ATOM      7  C   UNL A   1     -29.911   0.687  24.558  0.00  0.00    +0.048 C 
ATOM      8  C   UNL A   1     -30.725   1.849  24.873  0.00  0.00    -0.024 C 
ATOM      9  C   UNL A   1     -30.326   2.867  25.947  0.00  0.00    -0.003 C 
ATOM     10  O   UNL A   1     -26.908  -0.846  25.402  0.00  0.00    -0.274 OA
ENDBRANCH   1   2
BRANCH   1  11
ATOM     11  C   UNL A   1     -25.039   0.236  27.354  0.00  0.00    -0.010 A 
ATOM     12  C   UNL A   1     -24.437   0.006  28.583  0.00  0.00    -0.000 A 
ATOM     13  C   UNL A   1     -22.945   0.265  28.608  0.00  0.00    +0.042 A 
ATOM     14  C   UNL A   1     -22.336   1.072  27.644  0.00  0.00    +0.196 A 
ATOM     15  C   UNL A   1     -23.079   1.498  26.553  0.00  0.00    +0.042 A 
ATOM     16  C   UNL A   1     -24.403   1.178  26.412  0.00  0.00    -0.000 A 
ATOM     17  O   UNL A   1     -21.072   1.461  27.827  0.00  0.00    -0.287 OA
ENDBRANCH   1  11
BRANCH   1  20
ATOM     18  C   UNL A   1     -28.016  -0.814  28.878  0.00  0.00    -0.004 A 
ATOM     19  C   UNL A   1     -28.469  -0.785  29.829  0.00  0.00    -0.000 A 
ATOM     20  C   UNL A   1     -27.136   0.236  28.535  0.00  0.00    -0.010 A 
ATOM     21  C   UNL A   1     -26.875   1.282  29.398  0.00  0.00    -0.004 A 
ATOM     22  C   UNL A   1     -28.361   0.199  30.924  0.00  0.00    -0.000 A 
ATOM     23  C   UNL A   1     -27.528   1.223  30.636  0.00  0.00    -0.000 A 
ENDBRANCH   1  20
TORSDOF 3
