MODEL 3353
MODEL 1
REMARK VINA RESULT:    -6.103      0.000      0.000
REMARK INTER + INTRA:          -9.528
REMARK INTER:                  -8.601
REMARK INTRA:                  -0.927
REMARK UNBOUND:                -0.927
REMARK  Name = No_3353-gen_results/8p0m/2024-11-26-14-13-15/
REMARK  7 active torsions:
REMARK  status: ('A' for Active; 'I' for Inactive)
REMARK    1  A    between atoms: C_4  and  C_7
REMARK    2  A    between atoms: C_7  and  C_8
REMARK    3  A    between atoms: C_9  and  C_10
REMARK    4  A    between atoms: C_10  and  C_11
REMARK    5  A    between atoms: C_11  and  C_12
REMARK    6  A    between atoms: C_12  and  C_13
REMARK    7  A    between atoms: C_12  and  C_16
REMARK                            x       y       z     vdW  Elec       q    Type
REMARK                         _______ _______ _______ _____ _____    ______ ____
ROOT
ATOM      1  C   UNL A   1     -25.079  -0.519  27.636  0.00  0.00    -0.026 C 
ATOM      2  C   UNL A   1     -24.338   0.288  26.944  0.00  0.00    -0.030 C 
ENDROOT
BRANCH   1   3
ATOM      3  C   UNL A   1     -24.688  -1.124  28.851  0.00  0.00    +0.052 C 
BRANCH   3   7
ATOM      4  C   UNL A   1     -26.203  -4.572  29.654  0.00  0.00    -0.000 A 
ATOM      5  C   UNL A   1     -25.403  -5.167  29.314  0.00  0.00    -0.000 A 
ATOM      6  C   UNL A   1     -26.018  -3.114  29.579  0.00  0.00    -0.004 A 
ATOM      7  C   UNL A   1     -24.868  -2.561  28.945  0.00  0.00    -0.018 A 
ATOM      8  C   UNL A   1     -23.937  -3.463  28.495  0.00  0.00    -0.004 A 
ATOM      9  C   UNL A   1     -24.146  -4.792  28.613  0.00  0.00    -0.000 A 
ENDBRANCH   3   7
ENDBRANCH   1   3
BRANCH   2  10
ATOM     10  C   UNL A   1     -24.652   0.776  25.653  0.00  0.00    +0.026 C 
BRANCH  10  11
ATOM     11  C   UNL A   1     -25.721   0.068  25.161  0.00  0.00    +0.013 C 
BRANCH  11  12
ATOM     12  C   UNL A   1     -26.802   0.565  24.948  0.00  0.00    +0.044 C 
BRANCH  12  13
ATOM     13  C   UNL A   1     -27.563  -0.043  23.963  0.00  0.00    -0.027 C 
ATOM     14  C   UNL A   1     -28.735  -0.741  24.328  0.00  0.00    -0.030 C 
ATOM     15  C   UNL A   1     -29.436  -1.469  23.353  0.00  0.00    +0.030 C 
ENDBRANCH  12  13
BRANCH  12  16
ATOM     16  C   UNL A   1     -27.217   1.868  25.382  0.00  0.00    -0.022 C 
ATOM     17  C   UNL A   1     -27.742   2.836  24.544  0.00  0.00    -0.005 C 
ENDBRANCH  12  16
ENDBRANCH  11  12
ENDBRANCH  10  11
ENDBRANCH   2  10
TORSDOF 7
ENDMDL
ENDMDL
