REMARK  Name = No_3353-gen_results/8p0m/2024-11-26-14-13-15/
REMARK  7 active torsions:
REMARK  status: ('A' for Active; 'I' for Inactive)
REMARK    1  A    between atoms: C_4  and  C_7
REMARK    2  A    between atoms: C_7  and  C_8
REMARK    3  A    between atoms: C_9  and  C_10
REMARK    4  A    between atoms: C_10  and  C_11
REMARK    5  A    between atoms: C_11  and  C_12
REMARK    6  A    between atoms: C_12  and  C_13
REMARK    7  A    between atoms: C_12  and  C_16
REMARK                            x       y       z     vdW  Elec       q    Type
REMARK                         _______ _______ _______ _____ _____    ______ ____
ROOT
ATOM      1  C   UNL A   1     -23.661   0.103  29.845  0.00  0.00    -0.026 C 
ATOM      2  C   UNL A   1     -23.272   0.556  28.695  0.00  0.00    -0.030 C 
ENDROOT
BRANCH   1   3
ATOM      3  C   UNL A   1     -24.355  -1.112  30.035  0.00  0.00    +0.052 C 
BRANCH   3   7
ATOM      4  C   UNL A   1     -28.016  -0.814  28.878  0.00  0.00    -0.000 A 
ATOM      5  C   UNL A   1     -28.469  -0.785  29.829  0.00  0.00    -0.000 A 
ATOM      6  C   UNL A   1     -26.546  -0.876  28.850  0.00  0.00    -0.004 A 
ATOM      7  C   UNL A   1     -25.804  -1.032  30.057  0.00  0.00    -0.018 A 
ATOM      8  C   UNL A   1     -26.537  -1.039  31.217  0.00  0.00    -0.004 A 
ATOM      9  C   UNL A   1     -27.884  -0.953  31.186  0.00  0.00    -0.000 A 
ENDBRANCH   3   7
ENDBRANCH   1   3
BRANCH   2  10
ATOM     10  C   UNL A   1     -22.718   1.839  28.471  0.00  0.00    +0.026 C 
BRANCH  10  11
ATOM     11  C   UNL A   1     -23.366   2.421  27.409  0.00  0.00    +0.013 C 
BRANCH  11  12
ATOM     12  C   UNL A   1     -24.570   2.466  27.314  0.00  0.00    +0.044 C 
BRANCH  12  13
ATOM     13  C   UNL A   1     -25.154   1.459  26.563  0.00  0.00    -0.027 C 
ATOM     14  C   UNL A   1     -26.532   1.532  26.261  0.00  0.00    -0.030 C 
ATOM     15  C   UNL A   1     -27.155   0.452  25.615  0.00  0.00    +0.030 C 
ENDBRANCH  12  13
BRANCH  12  16
ATOM     16  C   UNL A   1     -25.387   3.602  27.630  0.00  0.00    -0.022 C 
ATOM     17  C   UNL A   1     -26.755   3.656  27.427  0.00  0.00    -0.005 C 
ENDBRANCH  12  16
ENDBRANCH  11  12
ENDBRANCH  10  11
ENDBRANCH   2  10
TORSDOF 7
