MODEL 3354
MODEL 1
REMARK VINA RESULT:    -9.167      0.000      0.000
REMARK INTER + INTRA:         -12.602
REMARK INTER:                 -11.310
REMARK INTRA:                  -1.292
REMARK UNBOUND:                -1.292
REMARK  Name = No_3354-gen_results/8p0m/2024-11-26-14-13-15/
REMARK  4 active torsions:
REMARK  status: ('A' for Active; 'I' for Inactive)
REMARK    1  A    between atoms: C_3  and  C_7
REMARK    2  A    between atoms: C_6  and  C_14
REMARK    3  A    between atoms: C_20  and  C_22
REMARK    4  A    between atoms: C_27  and  C_28
REMARK                            x       y       z     vdW  Elec       q    Type
REMARK                         _______ _______ _______ _____ _____    ______ ____
ROOT
ATOM      1  C   UNL A   1     -11.146   3.090  35.378  0.00  0.00    +0.249 C 
ATOM      2  N   UNL A   1     -10.633   2.002  35.472  0.00  0.00    -0.276 N 
ATOM      3  O   UNL A   1     -10.379   4.121  35.195  0.00  0.00    -0.270 OA
ATOM      4  C   UNL A   1      -9.256   1.652  35.059  0.00  0.00    +0.094 C 
ATOM      5  C   UNL A   1      -8.759   0.712  35.269  0.00  0.00    +0.022 C 
ATOM      6  C   UNL A   1      -9.326  -0.140  36.239  0.00  0.00    +0.008 C 
ATOM      7  C   UNL A   1     -10.628   0.016  36.708  0.00  0.00    +0.042 C 
ATOM      8  C   UNL A   1     -11.203   1.083  36.421  0.00  0.00    +0.098 C 
ENDROOT
BRANCH   1  14
ATOM      9  C   UNL A   1     -13.677   2.894  35.055  0.00  0.00    +0.005 A 
ATOM     10  C   UNL A   1     -14.801   3.071  35.465  0.00  0.00    +0.002 A 
ATOM     11  C   UNL A   1     -15.095   3.777  36.631  0.00  0.00    +0.018 A 
ATOM     12  C   UNL A   1     -14.005   4.283  37.443  0.00  0.00    +0.002 A 
ATOM     13  C   UNL A   1     -12.726   4.039  36.944  0.00  0.00    +0.005 A 
ATOM     14  C   UNL A   1     -12.539   3.351  35.835  0.00  0.00    +0.054 A 
BRANCH  11  15
ATOM     15  C   UNL A   1     -16.450   4.042  37.194  0.00  0.00    +0.086 A 
ATOM     16  N   UNL A   1     -17.223   4.909  36.750  0.00  0.00    -0.211 NA
ATOM     17  C   UNL A   1     -18.356   5.281  37.317  0.00  0.00    +0.257 A 
ATOM     18  N   UNL A   1     -19.210   6.209  36.790  0.00  0.00    -0.086 NA
ATOM     19  N   UNL A   1     -18.732   4.807  38.537  0.00  0.00    -0.210 NA
ATOM     20  C   UNL A   1     -16.776   3.405  38.509  0.00  0.00    +0.040 A 
ATOM     21  C   UNL A   1     -18.085   3.852  39.118  0.00  0.00    +0.103 A 
ENDBRANCH  11  15
ENDBRANCH   1  14
BRANCH   7  22
ATOM     22  C   UNL A   1     -11.190  -1.004  37.653  0.00  0.00    -0.021 A 
ATOM     23  C   UNL A   1     -11.480  -2.025  37.535  0.00  0.00    -0.004 A 
ATOM     24  C   UNL A   1     -11.873  -2.953  38.146  0.00  0.00    -0.000 A 
ATOM     25  C   UNL A   1     -12.150  -2.612  39.564  0.00  0.00    -0.000 A 
ATOM     26  C   UNL A   1     -11.286  -0.493  39.057  0.00  0.00    -0.004 A 
ATOM     27  C   UNL A   1     -11.791  -1.363  39.982  0.00  0.00    -0.000 A 
BRANCH  27  28
ATOM     28  C   UNL A   1     -12.178  -0.995  41.318  0.00  0.00    -0.000 A 
ATOM     29  C   UNL A   1     -11.392  -1.124  42.256  0.00  0.00    -0.000 A 
ATOM     30  C   UNL A   1     -11.682  -0.654  43.632  0.00  0.00    -0.000 A 
ATOM     31  C   UNL A   1     -12.797   0.136  43.828  0.00  0.00    +0.000 A 
ATOM     32  C   UNL A   1     -13.332  -0.160  41.491  0.00  0.00    -0.000 A 
ATOM     33  C   UNL A   1     -13.609   0.339  42.750  0.00  0.00    -0.000 A 
ENDBRANCH  27  28
ENDBRANCH   7  22
TORSDOF 4
ENDMDL
ENDMDL
