REMARK  Name = No_3354-gen_results/8p0m/2024-11-26-14-13-15/
REMARK  4 active torsions:
REMARK  status: ('A' for Active; 'I' for Inactive)
REMARK    1  A    between atoms: C_3  and  C_7
REMARK    2  A    between atoms: C_6  and  C_14
REMARK    3  A    between atoms: C_20  and  C_22
REMARK    4  A    between atoms: C_27  and  C_28
REMARK                            x       y       z     vdW  Elec       q    Type
REMARK                         _______ _______ _______ _____ _____    ______ ____
ROOT
ATOM      1  C   UNL A   1     -29.025  -2.789  30.156  0.00  0.00    +0.249 C 
ATOM      2  N   UNL A   1     -30.150  -2.355  30.157  0.00  0.00    -0.276 N 
ATOM      3  O   UNL A   1     -28.781  -3.877  30.821  0.00  0.00    -0.270 OA
ATOM      4  C   UNL A   1     -31.369  -3.100  30.543  0.00  0.00    +0.094 C 
ATOM      5  C   UNL A   1     -32.354  -2.667  30.671  0.00  0.00    +0.022 C 
ATOM      6  C   UNL A   1     -32.459  -1.264  30.762  0.00  0.00    +0.008 C 
ATOM      7  C   UNL A   1     -31.424  -0.407  30.396  0.00  0.00    +0.042 C 
ATOM      8  C   UNL A   1     -30.307  -0.925  30.209  0.00  0.00    +0.098 C 
ENDROOT
BRANCH   1  14
ATOM      9  C   UNL A   1     -28.016  -0.814  28.878  0.00  0.00    +0.005 A 
ATOM     10  C   UNL A   1     -27.064  -0.119  28.608  0.00  0.00    +0.002 A 
ATOM     11  C   UNL A   1     -25.765  -0.390  29.036  0.00  0.00    +0.018 A 
ATOM     12  C   UNL A   1     -25.530  -1.530  29.901  0.00  0.00    +0.002 A 
ATOM     13  C   UNL A   1     -26.658  -2.292  30.203  0.00  0.00    +0.005 A 
ATOM     14  C   UNL A   1     -27.855  -1.956  29.763  0.00  0.00    +0.054 A 
BRANCH  11  15
ATOM     15  C   UNL A   1     -24.544   0.413  28.738  0.00  0.00    +0.086 A 
ATOM     16  N   UNL A   1     -24.453   1.201  27.781  0.00  0.00    -0.211 NA
ATOM     17  C   UNL A   1     -23.345   1.803  27.393  0.00  0.00    +0.257 A 
ATOM     18  N   UNL A   1     -23.277   2.697  26.361  0.00  0.00    -0.086 NA
ATOM     19  N   UNL A   1     -22.141   1.516  27.961  0.00  0.00    -0.210 NA
ATOM     20  C   UNL A   1     -23.296   0.051  29.482  0.00  0.00    +0.040 A 
ATOM     21  C   UNL A   1     -22.052   0.769  29.012  0.00  0.00    +0.103 A 
ENDBRANCH  11  15
ENDBRANCH   1  14
BRANCH   7  22
ATOM     22  C   UNL A   1     -31.662   1.074  30.416  0.00  0.00    -0.021 A 
ATOM     23  C   UNL A   1     -32.484   1.675  30.736  0.00  0.00    -0.004 A 
ATOM     24  C   UNL A   1     -32.813   2.799  30.871  0.00  0.00    -0.000 A 
ATOM     25  C   UNL A   1     -31.792   3.745  30.356  0.00  0.00    -0.000 A 
ATOM     26  C   UNL A   1     -30.467   1.852  29.961  0.00  0.00    -0.004 A 
ATOM     27  C   UNL A   1     -30.603   3.212  29.948  0.00  0.00    -0.000 A 
BRANCH  27  28
ATOM     28  C   UNL A   1     -29.669   4.116  29.332  0.00  0.00    -0.000 A 
ATOM     29  C   UNL A   1     -28.720   4.569  29.971  0.00  0.00    -0.000 A 
ATOM     30  C   UNL A   1     -27.656   5.407  29.368  0.00  0.00    -0.000 A 
ATOM     31  C   UNL A   1     -27.622   5.523  27.992  0.00  0.00    +0.000 A 
ATOM     32  C   UNL A   1     -29.644   4.205  27.900  0.00  0.00    -0.000 A 
ATOM     33  C   UNL A   1     -28.639   4.937  27.296  0.00  0.00    -0.000 A 
ENDBRANCH  27  28
ENDBRANCH   7  22
TORSDOF 4
