MODEL 3355
MODEL 1
REMARK VINA RESULT:    -4.572      0.000      0.000
REMARK INTER + INTRA:          -4.572
REMARK INTER:                  -4.572
REMARK INTRA:                   0.000
REMARK UNBOUND:                 0.000
REMARK  Name = No_3355-gen_results/8p0m/2024-11-26-14-13-15/
REMARK  0 active torsions:
REMARK  status: ('A' for Active; 'I' for Inactive)
REMARK                            x       y       z     vdW  Elec       q    Type
REMARK                         _______ _______ _______ _____ _____    ______ ____
ROOT
ATOM      1  C   UNL A   1     -26.111  -3.391  29.895  0.00  0.00    +0.002 A 
ATOM      2  C   UNL A   1     -25.172  -2.691  29.596  0.00  0.00    +0.030 A 
ATOM      3  C   UNL A   1     -24.049  -3.157  28.914  0.00  0.00    +0.140 A 
ATOM      4  C   UNL A   1     -23.955  -4.566  28.587  0.00  0.00    +0.030 A 
ATOM      5  C   UNL A   1     -25.084  -5.323  28.975  0.00  0.00    +0.002 A 
ATOM      6  C   UNL A   1     -26.094  -4.797  29.620  0.00  0.00    +0.000 A 
ATOM      7  F   UNL A   1     -23.033  -2.292  28.778  0.00  0.00    -0.204 F 
ENDROOT
TORSDOF 0
ENDMDL
ENDMDL
