REMARK  Name = No_3356-gen_results/8p0m/2024-11-26-14-13-15/
REMARK  4 active torsions:
REMARK  status: ('A' for Active; 'I' for Inactive)
REMARK    1  A    between atoms: C_4  and  C_20
REMARK    2  A    between atoms: C_20  and  C_21
REMARK    3  A    between atoms: C_20  and  C_27
REMARK    4  A    between atoms: C_29  and  C_30
REMARK                            x       y       z     vdW  Elec       q    Type
REMARK                         _______ _______ _______ _____ _____    ______ ____
ROOT
ATOM      1  C   UNL A   1     -28.016  -0.814  28.878  0.00  0.00    +0.051 A 
ATOM      2  C   UNL A   1     -28.469  -0.785  29.829  0.00  0.00    +0.015 A 
ATOM      3  C   UNL A   1     -28.196   0.348  28.055  0.00  0.00    +0.010 A 
ATOM      4  C   UNL A   1     -29.019   1.350  28.378  0.00  0.00    -0.013 A 
ATOM      5  C   UNL A   1     -29.625   1.268  29.601  0.00  0.00    -0.004 A 
ATOM      6  C   UNL A   1     -29.382   0.182  30.400  0.00  0.00    +0.001 A 
ATOM      7  C   UNL A   1     -27.549   0.503  26.678  0.00  0.00    +0.001 A 
ATOM      8  C   UNL A   1     -28.170   0.318  25.530  0.00  0.00    +0.000 A 
ATOM      9  C   UNL A   1     -26.099   0.615  26.654  0.00  0.00    +0.001 A 
ATOM     10  C   UNL A   1     -25.225   0.686  27.797  0.00  0.00    +0.014 A 
ATOM     11  C   UNL A   1     -24.180   1.134  27.956  0.00  0.00    +0.001 A 
ATOM     12  C   UNL A   1     -23.299   1.079  29.166  0.00  0.00    +0.000 A 
ATOM     13  C   UNL A   1     -23.642   0.234  29.899  0.00  0.00    +0.001 A 
ATOM     14  C   UNL A   1     -24.800  -0.466  29.991  0.00  0.00    +0.015 A 
ATOM     15  C   UNL A   1     -25.597  -0.324  28.913  0.00  0.00    +0.052 A 
ATOM     16  N   UNL A   1     -26.748  -0.985  28.911  0.00  0.00    -0.285 N 
ATOM     17  C   UNL A   1     -25.517   0.863  25.428  0.00  0.00    +0.000 A 
ATOM     18  C   UNL A   1     -27.623   0.579  24.336  0.00  0.00    +0.000 A 
ATOM     19  C   UNL A   1     -26.234   0.766  24.308  0.00  0.00    +0.000 A 
ATOM     20  C   UNL A   1     -26.370  -2.509  28.793  0.00  0.00    +0.117 C 
ENDROOT
BRANCH   4  21
ATOM     21  C   UNL A   1     -29.303   2.559  27.557  0.00  0.00    +0.068 C 
BRANCH  21  22
ATOM     22  C   UNL A   1     -28.589   3.763  27.895  0.00  0.00    +0.005 A 
ATOM     23  C   UNL A   1     -28.294   4.045  29.079  0.00  0.00    -0.001 A 
ATOM     24  C   UNL A   1     -27.463   5.166  29.426  0.00  0.00    +0.020 A 
ATOM     25  C   UNL A   1     -27.022   5.982  28.370  0.00  0.00    +0.099 A 
ATOM     26  C   UNL A   1     -28.112   4.618  26.802  0.00  0.00    +0.095 A 
ATOM     27  N   UNL A   1     -27.315   5.699  27.129  0.00  0.00    -0.243 NA
ENDBRANCH  21  22
BRANCH  21  28
ATOM     28  C   UNL A   1     -30.444   2.577  26.768  0.00  0.00    -0.018 C 
ATOM     29  C   UNL A   1     -31.325   1.610  26.899  0.00  0.00    -0.004 C 
BRANCH  29  30
ATOM     30  C   UNL A   1     -32.259   1.449  26.443  0.00  0.00    -0.005 C 
ATOM     31  C   UNL A   1     -32.714   2.431  25.453  0.00  0.00    -0.026 C 
ATOM     32  C   UNL A   1     -31.892   3.538  25.188  0.00  0.00    +0.031 C 
ENDBRANCH  29  30
ENDBRANCH  21  28
ENDBRANCH   4  21
TORSDOF 4
