MODEL 3357
MODEL 1
REMARK VINA RESULT:    -6.668      0.000      0.000
REMARK INTER + INTRA:          -8.985
REMARK INTER:                  -8.227
REMARK INTRA:                  -0.758
REMARK UNBOUND:                -0.758
REMARK  Name = No_3357-gen_results/8p0m/2024-11-26-14-13-15/
REMARK  4 active torsions:
REMARK  status: ('A' for Active; 'I' for Inactive)
REMARK    1  A    between atoms: C_2  and  C_3
REMARK    2  A    between atoms: N_4  and  C_14
REMARK    3  A    between atoms: C_8  and  C_11
REMARK    4  A    between atoms: C_14  and  C_16
REMARK                            x       y       z     vdW  Elec       q    Type
REMARK                         _______ _______ _______ _____ _____    ______ ____
ROOT
ATOM      1  O   UNL A   1      -9.128   1.452  34.098  0.00  0.00    -0.270 OA
ATOM      2  C   UNL A   1      -8.794   0.859  35.028  0.00  0.00    +0.252 C 
ATOM      3  N   UNL A   1      -9.679   0.704  36.187  0.00  0.00    -0.270 N 
ATOM      4  C   UNL A   1     -10.788   1.678  36.086  0.00  0.00    +0.116 C 
ENDROOT
BRANCH   2   5
ATOM      5  C   UNL A   1      -7.837  -0.132  34.946  0.00  0.00    +0.081 A 
ATOM      6  C   UNL A   1      -7.714  -1.047  34.519  0.00  0.00    +0.007 A 
ATOM      7  C   UNL A   1      -6.563  -1.992  34.395  0.00  0.00    +0.001 A 
ATOM      8  C   UNL A   1      -5.452  -1.499  34.708  0.00  0.00    +0.009 A 
ATOM      9  C   UNL A   1      -5.291  -0.253  35.325  0.00  0.00    +0.107 A 
ATOM     10  C   UNL A   1      -6.439   0.487  35.413  0.00  0.00    +0.151 A 
ATOM     11  F   UNL A   1      -6.414   1.069  36.681  0.00  0.00    -0.204 F 
BRANCH   9  12
ATOM     12  C   UNL A   1      -3.972   0.271  35.692  0.00  0.00    +0.390 C 
ATOM     13  O   UNL A   1      -3.360   1.105  35.133  0.00  0.00    -0.240 OA
ATOM     14  O   UNL A   1      -3.428  -0.258  36.828  0.00  0.00    -0.240 OA
ENDBRANCH   9  12
ENDBRANCH   2   5
BRANCH   3  15
ATOM     15  C   UNL A   1      -9.389   0.198  37.435  0.00  0.00    +0.120 C 
BRANCH  15  16
ATOM     16  C   UNL A   1     -10.433  -0.817  37.840  0.00  0.00    -0.002 A 
ATOM     17  C   UNL A   1     -10.636  -1.595  37.201  0.00  0.00    -0.003 A 
ATOM     18  C   UNL A   1     -11.609  -2.755  37.554  0.00  0.00    -0.000 A 
ATOM     19  C   UNL A   1     -12.194  -2.646  38.786  0.00  0.00    -0.000 A 
ATOM     20  C   UNL A   1     -11.840  -1.574  39.587  0.00  0.00    -0.000 A 
ATOM     21  C   UNL A   1     -10.942  -0.657  39.153  0.00  0.00    -0.003 A 
ENDBRANCH  15  16
ENDBRANCH   3  15
TORSDOF 4
ENDMDL
ENDMDL
