REMARK  Name = No_3357-gen_results/8p0m/2024-11-26-14-13-15/
REMARK  4 active torsions:
REMARK  status: ('A' for Active; 'I' for Inactive)
REMARK    1  A    between atoms: C_2  and  C_3
REMARK    2  A    between atoms: N_4  and  C_14
REMARK    3  A    between atoms: C_8  and  C_11
REMARK    4  A    between atoms: C_14  and  C_16
REMARK                            x       y       z     vdW  Elec       q    Type
REMARK                         _______ _______ _______ _____ _____    ______ ____
ROOT
ATOM      1  O   UNL A   1     -28.123  -1.335  28.487  0.00  0.00    -0.270 OA
ATOM      2  C   UNL A   1     -27.481  -0.404  28.709  0.00  0.00    +0.252 C 
ATOM      3  N   UNL A   1     -27.423   0.175  30.055  0.00  0.00    -0.270 N 
ATOM      4  C   UNL A   1     -28.529  -0.376  30.869  0.00  0.00    +0.116 C 
ENDROOT
BRANCH   2   5
ATOM      5  C   UNL A   1     -26.380  -0.087  27.939  0.00  0.00    +0.081 A 
ATOM      6  C   UNL A   1     -26.156   0.116  26.968  0.00  0.00    +0.007 A 
ATOM      7  C   UNL A   1     -24.923   0.576  26.259  0.00  0.00    +0.001 A 
ATOM      8  C   UNL A   1     -24.012   0.987  27.017  0.00  0.00    +0.009 A 
ATOM      9  C   UNL A   1     -24.024   0.845  28.409  0.00  0.00    +0.107 A 
ATOM     10  C   UNL A   1     -25.202   0.369  28.919  0.00  0.00    +0.151 A 
ATOM     11  F   UNL A   1     -24.841  -0.539  29.915  0.00  0.00    -0.204 F 
BRANCH   9  12
ATOM     12  C   UNL A   1     -22.924   1.323  29.252  0.00  0.00    +0.390 C 
ATOM     13  O   UNL A   1     -21.841   1.618  28.904  0.00  0.00    -0.240 OA
ATOM     14  O   UNL A   1     -23.223   1.464  30.578  0.00  0.00    -0.240 OA
ENDBRANCH   9  12
ENDBRANCH   2   5
BRANCH   3  15
ATOM     15  C   UNL A   1     -26.870   1.370  30.459  0.00  0.00    +0.120 C 
BRANCH  15  16
ATOM     16  C   UNL A   1     -27.881   2.485  30.314  0.00  0.00    -0.002 A 
ATOM     17  C   UNL A   1     -27.659   3.405  30.713  0.00  0.00    -0.003 A 
ATOM     18  C   UNL A   1     -28.569   4.652  30.535  0.00  0.00    -0.000 A 
ATOM     19  C   UNL A   1     -29.709   4.421  29.815  0.00  0.00    -0.000 A 
ATOM     20  C   UNL A   1     -29.911   3.154  29.296  0.00  0.00    -0.000 A 
ATOM     21  C   UNL A   1     -29.002   2.171  29.506  0.00  0.00    -0.003 A 
ENDBRANCH  15  16
ENDBRANCH   3  15
TORSDOF 4
