MODEL 3358
MODEL 1
REMARK VINA RESULT:    -5.034      0.000      0.000
REMARK INTER + INTRA:          -5.034
REMARK INTER:                  -5.034
REMARK INTRA:                   0.000
REMARK UNBOUND:                 0.000
REMARK  Name = No_3358-gen_results/8p0m/2024-11-26-14-13-15/
REMARK  0 active torsions:
REMARK  status: ('A' for Active; 'I' for Inactive)
REMARK                            x       y       z     vdW  Elec       q    Type
REMARK                         _______ _______ _______ _____ _____    ______ ____
ROOT
ATOM      1  C   UNL A   1      -9.105 -10.772  17.828  0.00  0.00    +0.042 A 
ATOM      2  C   UNL A   1      -9.980 -10.210  17.998  0.00  0.00    +0.196 A 
ATOM      3  C   UNL A   1      -8.040 -10.654  18.836  0.00  0.00    +0.003 A 
ATOM      4  C   UNL A   1      -8.156  -9.885  19.784  0.00  0.00    +0.000 A 
ATOM      5  C   UNL A   1     -10.392  -9.328  19.106  0.00  0.00    +0.042 A 
ATOM      6  C   UNL A   1      -9.388  -9.164  20.010  0.00  0.00    +0.003 A 
ATOM      7  O   UNL A   1     -11.093 -10.340  17.050  0.00  0.00    -0.287 OA
ENDROOT
TORSDOF 0
ENDMDL
ENDMDL
