MODEL 3359
MODEL 1
REMARK VINA RESULT:    -5.146      0.000      0.000
REMARK INTER + INTRA:          -5.606
REMARK INTER:                  -5.447
REMARK INTRA:                  -0.159
REMARK UNBOUND:                -0.159
REMARK  Name = No_3359-gen_results/8p0m/2024-11-26-14-13-15/
REMARK  1 active torsions:
REMARK  status: ('A' for Active; 'I' for Inactive)
REMARK    1  A    between atoms: C_2  and  C_7
REMARK                            x       y       z     vdW  Elec       q    Type
REMARK                         _______ _______ _______ _____ _____    ______ ____
ROOT
ATOM      1  C   UNL A   1     -23.907  -3.711  28.884  0.00  0.00    +0.004 A 
ATOM      2  C   UNL A   1     -24.364  -2.859  29.304  0.00  0.00    +0.071 A 
ATOM      3  C   UNL A   1     -24.710  -4.990  28.974  0.00  0.00    -0.000 A 
ATOM      4  C   UNL A   1     -26.033  -4.943  29.461  0.00  0.00    -0.000 A 
ATOM      5  C   UNL A   1     -25.711  -2.538  29.828  0.00  0.00    +0.004 A 
ATOM      6  C   UNL A   1     -26.481  -3.689  29.919  0.00  0.00    -0.000 A 
ENDROOT
BRANCH   2   7
ATOM      7  C   UNL A   1     -23.540  -1.484  29.211  0.00  0.00    +0.419 C 
ATOM      8  F   UNL A   1     -23.764  -0.842  30.100  0.00  0.00    -0.166 F 
ATOM      9  F   UNL A   1     -23.843  -0.884  28.016  0.00  0.00    -0.166 F 
ATOM     10  F   UNL A   1     -22.225  -1.493  28.886  0.00  0.00    -0.166 F 
ENDBRANCH   2   7
TORSDOF 1
ENDMDL
ENDMDL
