MODEL 335
MODEL 1
REMARK VINA RESULT:    -6.902      0.000      0.000
REMARK INTER + INTRA:         -10.003
REMARK INTER:                  -8.920
REMARK INTRA:                  -1.083
REMARK UNBOUND:                -1.083
REMARK  Name = No_335-gen_results/8p0m/2024-11-26-14-13-15/
REMARK  5 active torsions:
REMARK  status: ('A' for Active; 'I' for Inactive)
REMARK    1  A    between atoms: C_3  and  C_7
REMARK    2  A    between atoms: C_7  and  C_8
REMARK    3  A    between atoms: C_13  and  C_14
REMARK    4  A    between atoms: C_14  and  C_15
REMARK    5  A    between atoms: C_15  and  C_16
REMARK                            x       y       z     vdW  Elec       q    Type
REMARK                         _______ _______ _______ _____ _____    ______ ____
ROOT
ATOM      1  C   UNL A   1     -22.946  -0.341  29.144  0.00  0.00    -0.018 A 
ATOM      2  C   UNL A   1     -21.651   0.044  28.890  0.00  0.00    -0.004 A 
ATOM      3  C   UNL A   1     -21.388   1.015  27.843  0.00  0.00    -0.001 A 
ATOM      4  C   UNL A   1     -22.460   1.576  27.208  0.00  0.00    -0.004 A 
ATOM      5  C   UNL A   1     -23.912   0.380  28.381  0.00  0.00    -0.008 A 
ATOM      6  C   UNL A   1     -23.693   1.239  27.422  0.00  0.00    -0.022 A 
ENDROOT
BRANCH   1   7
ATOM      7  C   UNL A   1     -23.192  -1.260  30.277  0.00  0.00    +0.053 C 
BRANCH   7  10
ATOM      8  C   UNL A   1     -24.165  -3.303  29.427  0.00  0.00    +0.007 A 
ATOM      9  C   UNL A   1     -24.978  -3.972  29.396  0.00  0.00    +0.057 A 
ATOM     10  C   UNL A   1     -24.465  -2.051  30.132  0.00  0.00    -0.017 A 
ATOM     11  C   UNL A   1     -25.698  -1.728  30.526  0.00  0.00    -0.004 A 
ATOM     12  C   UNL A   1     -26.377  -3.843  29.726  0.00  0.00    +0.011 A 
ATOM     13  C   UNL A   1     -26.640  -2.664  30.358  0.00  0.00    +0.001 A 
ATOM     14 CL   UNL A   1     -24.701  -5.617  28.558  0.00  0.00    -0.082 Cl
ENDBRANCH   7  10
ENDBRANCH   1   7
BRANCH   6  15
ATOM     15  C   UNL A   1     -24.763   1.906  26.628  0.00  0.00    +0.032 C 
BRANCH  15  16
ATOM     16  C   UNL A   1     -25.586   1.279  25.930  0.00  0.00    +0.077 C 
BRANCH  16  17
ATOM     17  C   UNL A   1     -25.174   0.329  24.945  0.00  0.00    +0.319 C 
ATOM     18  F   UNL A   1     -25.593  -0.913  25.196  0.00  0.00    -0.198 F 
ATOM     19  F   UNL A   1     -24.210   0.411  24.283  0.00  0.00    -0.198 F 
ENDBRANCH  16  17
ENDBRANCH  15  16
ENDBRANCH   6  15
TORSDOF 5
ENDMDL
ENDMDL
