REMARK  Name = No_336-gen_results/8p0m/2024-11-26-14-13-15/
REMARK  3 active torsions:
REMARK  status: ('A' for Active; 'I' for Inactive)
REMARK    1  A    between atoms: C_3  and  C_4
REMARK    2  A    between atoms: C_4  and  C_8
REMARK    3  A    between atoms: C_8  and  C_9
REMARK                            x       y       z     vdW  Elec       q    Type
REMARK                         _______ _______ _______ _____ _____    ______ ____
ROOT
ATOM      1  C   UNL A   1     -25.683  -0.777  27.683  0.00  0.00    +0.031 C 
ENDROOT
BRANCH   1   4
ATOM      2  C   UNL A   1     -28.016  -0.814  28.878  0.00  0.00    -0.004 A 
ATOM      3  C   UNL A   1     -28.469  -0.785  29.829  0.00  0.00    -0.000 A 
ATOM      4  C   UNL A   1     -26.546  -0.876  28.850  0.00  0.00    -0.022 A 
ATOM      5  C   UNL A   1     -27.918  -1.003  31.188  0.00  0.00    -0.000 A 
ATOM      6  C   UNL A   1     -26.531  -1.079  31.246  0.00  0.00    -0.000 A 
ATOM      7  C   UNL A   1     -25.780  -1.046  30.090  0.00  0.00    -0.004 A 
ENDBRANCH   1   4
BRANCH   1   8
ATOM      8  C   UNL A   1     -25.898   0.239  26.745  0.00  0.00    +0.031 C 
BRANCH   8   9
ATOM      9  C   UNL A   1     -25.632   1.498  27.038  0.00  0.00    -0.022 A 
ATOM     10  C   UNL A   1     -24.892   1.830  28.258  0.00  0.00    -0.004 A 
ATOM     11  C   UNL A   1     -24.612   3.221  28.501  0.00  0.00    -0.000 A 
ATOM     12  C   UNL A   1     -25.021   4.177  27.529  0.00  0.00    -0.000 A 
ATOM     13  C   UNL A   1     -25.603   3.824  26.339  0.00  0.00    -0.000 A 
ATOM     14  C   UNL A   1     -25.922   2.494  26.134  0.00  0.00    -0.004 A 
ENDBRANCH   8   9
ENDBRANCH   1   8
TORSDOF 3
