MODEL 3360
MODEL 1
REMARK VINA RESULT:    -5.677      0.000      0.000
REMARK INTER + INTRA:          -7.374
REMARK INTER:                  -7.004
REMARK INTRA:                  -0.370
REMARK UNBOUND:                -0.370
REMARK  Name = No_3360-gen_results/8p0m/2024-11-26-14-13-15/
REMARK  4 active torsions:
REMARK  status: ('A' for Active; 'I' for Inactive)
REMARK    1  A    between atoms: C_1  and  C_2
REMARK    2  A    between atoms: C_5  and  C_10
REMARK    3  A    between atoms: N_8  and  C_9
REMARK    4  A    between atoms: C_9  and  C_13
REMARK                            x       y       z     vdW  Elec       q    Type
REMARK                         _______ _______ _______ _____ _____    ______ ____
ROOT
ATOM      1  C   UNL A   1     -29.697 -10.886  30.189  0.00  0.00    +0.055 A 
ATOM      2  C   UNL A   1     -28.664 -11.815  30.265  0.00  0.00    +0.005 A 
ATOM      3  C   UNL A   1     -27.871 -12.152  31.482  0.00  0.00    +0.007 A 
ATOM      4  C   UNL A   1     -28.100 -11.328  32.623  0.00  0.00    +0.080 A 
ATOM      5  C   UNL A   1     -29.111 -10.353  32.506  0.00  0.00    +0.007 A 
ATOM      6  C   UNL A   1     -29.829 -10.132  31.396  0.00  0.00    +0.005 A 
ENDROOT
BRANCH   1   7
ATOM      7  C   UNL A   1     -30.286 -10.692  29.151  0.00  0.00    +0.265 C 
ATOM      8  N   UNL A   1     -29.788 -11.346  28.061  0.00  0.00    -0.197 NA
ATOM      9  O   UNL A   1     -30.793  -9.506  28.909  0.00  0.00    -0.268 OA
BRANCH   8  10
ATOM     10  C   UNL A   1     -30.148 -10.930  26.821  0.00  0.00    +0.141 C 
BRANCH  10  11
ATOM     11  C   UNL A   1     -30.035 -11.823  25.781  0.00  0.00    -0.003 C 
ATOM     12  C   UNL A   1     -30.025 -13.203  26.034  0.00  0.00    -0.003 C 
ENDBRANCH  10  11
ENDBRANCH   8  10
ENDBRANCH   1   7
BRANCH   4  13
ATOM     13  C   UNL A   1     -27.307 -11.615  33.792  0.00  0.00    +0.388 C 
ATOM     14  O   UNL A   1     -26.770 -12.694  33.920  0.00  0.00    -0.241 OA
ATOM     15  O   UNL A   1     -27.001 -10.680  34.673  0.00  0.00    -0.241 OA
ENDBRANCH   4  13
TORSDOF 4
ENDMDL
ENDMDL
