REMARK  Name = No_3360-gen_results/8p0m/2024-11-26-14-13-15/
REMARK  4 active torsions:
REMARK  status: ('A' for Active; 'I' for Inactive)
REMARK    1  A    between atoms: C_1  and  C_2
REMARK    2  A    between atoms: C_5  and  C_10
REMARK    3  A    between atoms: N_8  and  C_9
REMARK    4  A    between atoms: C_9  and  C_13
REMARK                            x       y       z     vdW  Elec       q    Type
REMARK                         _______ _______ _______ _____ _____    ______ ____
ROOT
ATOM      1  C   UNL A   1     -27.064  -0.119  28.608  0.00  0.00    +0.055 A 
ATOM      2  C   UNL A   1     -25.792  -0.430  29.076  0.00  0.00    +0.005 A 
ATOM      3  C   UNL A   1     -24.546   0.349  28.823  0.00  0.00    +0.007 A 
ATOM      4  C   UNL A   1     -24.659   1.420  27.888  0.00  0.00    +0.080 A 
ATOM      5  C   UNL A   1     -25.947   1.681  27.379  0.00  0.00    +0.007 A 
ATOM      6  C   UNL A   1     -27.044   0.974  27.687  0.00  0.00    +0.005 A 
ENDROOT
BRANCH   1   7
ATOM      7  C   UNL A   1     -28.016  -0.814  28.878  0.00  0.00    +0.265 C 
ATOM      8  N   UNL A   1     -29.188  -0.147  29.092  0.00  0.00    -0.197 NA
ATOM      9  O   UNL A   1     -27.843  -1.890  29.609  0.00  0.00    -0.268 OA
BRANCH   8  10
ATOM     10  C   UNL A   1     -30.202  -0.783  29.730  0.00  0.00    +0.141 C 
BRANCH  10  11
ATOM     11  C   UNL A   1     -29.927  -1.977  30.353  0.00  0.00    -0.003 C 
ATOM     12  C   UNL A   1     -30.973  -2.777  30.838  0.00  0.00    -0.003 C 
ENDBRANCH  10  11
ENDBRANCH   8  10
ENDBRANCH   1   7
BRANCH   4  13
ATOM     13  C   UNL A   1     -23.451   2.152  27.601  0.00  0.00    +0.388 C 
ATOM     14  O   UNL A   1     -23.484   3.143  26.905  0.00  0.00    -0.241 OA
ATOM     15  O   UNL A   1     -22.310   1.877  28.206  0.00  0.00    -0.241 OA
ENDBRANCH   4  13
TORSDOF 4
