MODEL 3361
MODEL 1
REMARK VINA RESULT:    -6.500      0.000      0.000
REMARK INTER + INTRA:          -7.195
REMARK INTER:                  -6.880
REMARK INTRA:                  -0.316
REMARK UNBOUND:                -0.316
REMARK  Name = No_3361-gen_results/8p0m/2024-11-26-14-13-15/
REMARK  1 active torsions:
REMARK  status: ('A' for Active; 'I' for Inactive)
REMARK    1  A    between atoms: C_3  and  C_7
REMARK                            x       y       z     vdW  Elec       q    Type
REMARK                         _______ _______ _______ _____ _____    ______ ____
ROOT
ATOM      1  C   UNL A   1     -26.572  -3.543  29.928  0.00  0.00    +0.000 A 
ATOM      2  C   UNL A   1     -25.907  -2.565  29.677  0.00  0.00    +0.000 A 
ATOM      3  C   UNL A   1     -24.666  -2.617  29.043  0.00  0.00    +0.000 A 
ATOM      4  C   UNL A   1     -24.097  -3.909  28.710  0.00  0.00    +0.000 A 
ATOM      5  C   UNL A   1     -24.888  -5.011  29.036  0.00  0.00    +0.000 A 
ATOM      6  C   UNL A   1     -26.048  -4.870  29.647  0.00  0.00    +0.000 A 
ENDROOT
BRANCH   3   7
ATOM      7  C   UNL A   1     -23.795  -1.458  28.694  0.00  0.00    +0.000 A 
ATOM      8  C   UNL A   1     -22.639  -1.270  29.255  0.00  0.00    +0.000 A 
ATOM      9  C   UNL A   1     -21.848  -0.107  28.967  0.00  0.00    +0.000 A 
ATOM     10  C   UNL A   1     -22.290   0.920  28.206  0.00  0.00    +0.000 A 
ATOM     11  C   UNL A   1     -24.327  -0.370  27.859  0.00  0.00    +0.000 A 
ATOM     12  C   UNL A   1     -23.540   0.798  27.635  0.00  0.00    +0.000 A 
ENDBRANCH   3   7
TORSDOF 1
ENDMDL
ENDMDL
