REMARK  Name = No_3362-gen_results/8p0m/2024-11-26-14-13-15/
REMARK  5 active torsions:
REMARK  status: ('A' for Active; 'I' for Inactive)
REMARK    1  A    between atoms: C_3  and  C_7
REMARK    2  A    between atoms: C_7  and  C_8
REMARK    3  A    between atoms: C_7  and  C_11
REMARK    4  A    between atoms: C_11  and  C_12
REMARK    5  A    between atoms: C_13  and  C_14
REMARK                            x       y       z     vdW  Elec       q    Type
REMARK                         _______ _______ _______ _____ _____    ______ ____
ROOT
ATOM      1  C   UNL A   1     -26.388   0.291  27.233  0.00  0.00    +0.027 C 
ENDROOT
BRANCH   1   4
ATOM      2  C   UNL A   1     -28.016  -0.814  28.878  0.00  0.00    -0.004 A 
ATOM      3  C   UNL A   1     -28.469  -0.785  29.829  0.00  0.00    -0.000 A 
ATOM      4  C   UNL A   1     -27.136   0.236  28.535  0.00  0.00    -0.022 A 
ATOM      5  C   UNL A   1     -26.875   1.282  29.398  0.00  0.00    -0.004 A 
ATOM      6  C   UNL A   1     -28.361   0.199  30.924  0.00  0.00    -0.000 A 
ATOM      7  C   UNL A   1     -27.528   1.223  30.636  0.00  0.00    -0.000 A 
ENDBRANCH   1   4
BRANCH   1   8
ATOM      8  C   UNL A   1     -26.494   0.973  26.286  0.00  0.00    +0.004 C 
ATOM      9  C   UNL A   1     -27.408   2.037  26.334  0.00  0.00    +0.000 C 
ATOM     10  C   UNL A   1     -25.745   0.721  25.096  0.00  0.00    +0.000 C 
ENDBRANCH   1   8
BRANCH   1  11
ATOM     11  C   UNL A   1     -25.262  -0.824  27.231  0.00  0.00    +0.030 C 
BRANCH  11  12
ATOM     12  C   UNL A   1     -24.887  -1.357  28.591  0.00  0.00    -0.026 C 
ATOM     13  C   UNL A   1     -24.567  -2.487  28.890  0.00  0.00    -0.005 C 
BRANCH  13  14
ATOM     14  C   UNL A   1     -24.115  -2.871  30.245  0.00  0.00    -0.000 C 
ATOM     15  C   UNL A   1     -24.154  -1.826  31.232  0.00  0.00    -0.000 C 
ENDBRANCH  13  14
ENDBRANCH  11  12
ENDBRANCH   1  11
TORSDOF 5
