REMARK  Name = No_3363-gen_results/8p0m/2024-11-26-14-13-15/
REMARK  7 active torsions:
REMARK  status: ('A' for Active; 'I' for Inactive)
REMARK    1  A    between atoms: C_7  and  C_20
REMARK    2  A    between atoms: C_10  and  C_26
REMARK    3  A    between atoms: C_24  and  O_29
REMARK    4  A    between atoms: O_29  and  C_30
REMARK    5  A    between atoms: C_30  and  C_31
REMARK    6  A    between atoms: C_31  and  C_32
REMARK    7  A    between atoms: C_32  and  O_34
REMARK                            x       y       z     vdW  Elec       q    Type
REMARK                         _______ _______ _______ _____ _____    ______ ____
ROOT
ATOM      1  C   UNL A   1     -28.016  -0.814  28.878  0.00  0.00    +0.001 A 
ATOM      2  C   UNL A   1     -27.064  -0.119  28.608  0.00  0.00    +0.013 A 
ATOM      3  C   UNL A   1     -25.792  -0.430  29.076  0.00  0.00    +0.047 A 
ATOM      4  C   UNL A   1     -25.576  -1.565  29.936  0.00  0.00    -0.007 A 
ATOM      5  C   UNL A   1     -26.735  -2.300  30.217  0.00  0.00    -0.003 A 
ATOM      6  C   UNL A   1     -27.918  -1.954  29.763  0.00  0.00    -0.000 A 
ATOM      7  C   UNL A   1     -27.106   1.102  27.759  0.00  0.00    +0.001 C 
ATOM      8  C   UNL A   1     -26.716   2.235  27.994  0.00  0.00    +0.002 C 
ATOM      9  C   UNL A   1     -26.069   2.477  29.357  0.00  0.00    +0.020 A 
ATOM     10  C   UNL A   1     -26.262   3.449  30.096  0.00  0.00    +0.081 A 
ATOM     11  C   UNL A   1     -25.634   3.582  31.419  0.00  0.00    +0.006 A 
ATOM     12  C   UNL A   1     -24.672   2.659  31.791  0.00  0.00    -0.003 A 
ATOM     13  C   UNL A   1     -24.374   1.633  30.948  0.00  0.00    -0.007 A 
ATOM     14  C   UNL A   1     -25.002   1.528  29.739  0.00  0.00    +0.048 A 
ATOM     15  N   UNL A   1     -25.314   0.151  29.703  0.00  0.00    -0.290 N 
ATOM     16  C   UNL A   1     -23.948  -0.367  30.245  0.00  0.00    +0.070 C 
ATOM     17  C   UNL A   1     -24.351  -2.072  30.515  0.00  0.00    +0.046 C 
ATOM     18  C   UNL A   1     -23.697   0.414  31.535  0.00  0.00    +0.046 C 
ATOM     19  C   UNL A   1     -22.785  -0.311  29.304  0.00  0.00    +0.021 C 
ENDROOT
BRANCH   7  20
ATOM     20  C   UNL A   1     -27.879   0.951  26.487  0.00  0.00    +0.003 A 
ATOM     21  C   UNL A   1     -27.736   1.740  25.493  0.00  0.00    +0.000 A 
ATOM     22  C   UNL A   1     -28.436   1.494  24.297  0.00  0.00    +0.003 A 
ATOM     23  C   UNL A   1     -29.163   0.288  24.145  0.00  0.00    +0.037 A 
ATOM     24  C   UNL A   1     -29.315  -0.550  25.231  0.00  0.00    +0.139 A 
ATOM     25  C   UNL A   1     -28.650  -0.276  26.423  0.00  0.00    +0.037 A 
BRANCH  24  26
ATOM     26  O   UNL A   1     -30.087  -1.603  25.006  0.00  0.00    -0.475 OA
BRANCH  26  27
ATOM     27  C   UNL A   1     -31.210  -1.486  24.210  0.00  0.00    +0.217 C 
BRANCH  27  28
ATOM     28  C   UNL A   1     -32.314  -2.276  24.787  0.00  0.00    +0.157 C 
BRANCH  28  29
ATOM     29  C   UNL A   1     -32.746  -1.853  26.073  0.00  0.00    +0.321 C 
ATOM     30  O   UNL A   1     -32.783  -2.561  26.860  0.00  0.00    -0.250 OA
BRANCH  29  31
ATOM     31  O   UNL A   1     -32.922  -0.596  26.154  0.00  0.00    -0.444 OA
ATOM     32  C   UNL A   1     -33.526   0.234  25.637  0.00  0.00    +0.256 C 
ENDBRANCH  29  31
ENDBRANCH  28  29
ENDBRANCH  27  28
ENDBRANCH  26  27
ENDBRANCH  24  26
ENDBRANCH   7  20
BRANCH  10  33
ATOM     33  C   UNL A   1     -27.252   4.539  29.786  0.00  0.00    +0.388 C 
ATOM     34  O   UNL A   1     -27.095   5.407  29.148  0.00  0.00    -0.241 OA
ATOM     35  O   UNL A   1     -28.361   4.429  30.576  0.00  0.00    -0.241 OA
ENDBRANCH  10  33
TORSDOF 7
