MODEL 3363
MODEL 1
REMARK VINA RESULT:    -7.485      0.000      0.000
REMARK INTER + INTRA:         -11.900
REMARK INTER:                 -10.548
REMARK INTRA:                  -1.351
REMARK UNBOUND:                -1.351
REMARK  Name = No_3363-gen_results/8p0m/2024-11-26-14-13-15/
REMARK  7 active torsions:
REMARK  status: ('A' for Active; 'I' for Inactive)
REMARK    1  A    between atoms: C_7  and  C_20
REMARK    2  A    between atoms: C_10  and  C_26
REMARK    3  A    between atoms: C_24  and  O_29
REMARK    4  A    between atoms: O_29  and  C_30
REMARK    5  A    between atoms: C_30  and  C_31
REMARK    6  A    between atoms: C_31  and  C_32
REMARK    7  A    between atoms: C_32  and  O_34
REMARK                            x       y       z     vdW  Elec       q    Type
REMARK                         _______ _______ _______ _____ _____    ______ ____
ROOT
ATOM      1  C   UNL A   1     -27.735   1.370  28.131  0.00  0.00    +0.001 A 
ATOM      2  C   UNL A   1     -26.934   0.638  27.596  0.00  0.00    +0.013 A 
ATOM      3  C   UNL A   1     -26.314  -0.386  28.304  0.00  0.00    +0.047 A 
ATOM      4  C   UNL A   1     -26.570  -0.578  29.708  0.00  0.00    -0.007 A 
ATOM      5  C   UNL A   1     -27.491   0.328  30.251  0.00  0.00    -0.003 A 
ATOM      6  C   UNL A   1     -28.037   1.290  29.543  0.00  0.00    -0.000 A 
ATOM      7  C   UNL A   1     -26.529   0.707  26.167  0.00  0.00    +0.001 C 
ATOM      8  C   UNL A   1     -25.417   0.790  25.669  0.00  0.00    +0.002 C 
ATOM      9  C   UNL A   1     -24.229   0.820  26.629  0.00  0.00    +0.020 A 
ATOM     10  C   UNL A   1     -23.241   1.560  26.548  0.00  0.00    +0.081 A 
ATOM     11  C   UNL A   1     -22.160   1.560  27.544  0.00  0.00    +0.006 A 
ATOM     12  C   UNL A   1     -22.171   0.590  28.532  0.00  0.00    -0.003 A 
ATOM     13  C   UNL A   1     -23.201  -0.298  28.581  0.00  0.00    -0.007 A 
ATOM     14  C   UNL A   1     -24.203  -0.245  27.653  0.00  0.00    +0.048 A 
ATOM     15  N   UNL A   1     -25.348  -0.391  28.467  0.00  0.00    -0.290 N 
ATOM     16  C   UNL A   1     -24.792  -1.530  29.374  0.00  0.00    +0.070 C 
ATOM     17  C   UNL A   1     -26.053  -1.575  30.619  0.00  0.00    +0.046 C 
ATOM     18  C   UNL A   1     -23.444  -1.022  29.887  0.00  0.00    +0.046 C 
ATOM     19  C   UNL A   1     -24.697  -2.893  28.763  0.00  0.00    +0.021 C 
ENDROOT
BRANCH   7  20
ATOM     20  C   UNL A   1     -27.665   0.848  25.203  0.00  0.00    +0.003 A 
ATOM     21  C   UNL A   1     -27.885   1.922  24.547  0.00  0.00    +0.000 A 
ATOM     22  C   UNL A   1     -28.923   1.961  23.596  0.00  0.00    +0.003 A 
ATOM     23  C   UNL A   1     -29.607   0.769  23.254  0.00  0.00    +0.037 A 
ATOM     24  C   UNL A   1     -29.363  -0.380  23.978  0.00  0.00    +0.139 A 
ATOM     25  C   UNL A   1     -28.361  -0.398  24.945  0.00  0.00    +0.037 A 
BRANCH  24  26
ATOM     26  O   UNL A   1     -30.120  -1.413  23.637  0.00  0.00    -0.475 OA
BRANCH  26  27
ATOM     27  C   UNL A   1     -31.434  -1.219  23.260  0.00  0.00    +0.217 C 
BRANCH  27  28
ATOM     28  C   UNL A   1     -32.312  -1.324  24.441  0.00  0.00    +0.157 C 
BRANCH  28  29
ATOM     29  C   UNL A   1     -31.851  -2.208  25.454  0.00  0.00    +0.321 C 
ATOM     30  O   UNL A   1     -31.682  -3.225  25.209  0.00  0.00    -0.250 OA
BRANCH  29  31
ATOM     31  O   UNL A   1     -31.566  -1.617  26.543  0.00  0.00    -0.444 OA
ATOM     32  C   UNL A   1     -31.620  -0.565  27.003  0.00  0.00    +0.256 C 
ENDBRANCH  29  31
ENDBRANCH  28  29
ENDBRANCH  27  28
ENDBRANCH  26  27
ENDBRANCH  24  26
ENDBRANCH   7  20
BRANCH  10  33
ATOM     33  C   UNL A   1     -23.093   2.627  25.497  0.00  0.00    +0.388 C 
ATOM     34  O   UNL A   1     -22.344   2.673  24.708  0.00  0.00    -0.241 OA
ATOM     35  O   UNL A   1     -23.913   3.687  25.761  0.00  0.00    -0.241 OA
ENDBRANCH  10  33
TORSDOF 7
ENDMDL
ENDMDL
