MODEL 3364
MODEL 1
REMARK VINA RESULT:    -6.729      0.000      0.000
REMARK INTER + INTRA:          -7.953
REMARK INTER:                  -7.515
REMARK INTRA:                  -0.438
REMARK UNBOUND:                -0.438
REMARK  Name = No_3364-gen_results/8p0m/2024-11-26-14-13-15/
REMARK  2 active torsions:
REMARK  status: ('A' for Active; 'I' for Inactive)
REMARK    1  A    between atoms: C_3  and  C_7
REMARK    2  A    between atoms: C_8  and  C_13
REMARK                            x       y       z     vdW  Elec       q    Type
REMARK                         _______ _______ _______ _____ _____    ______ ____
ROOT
ATOM      1  C   UNL A   1     -24.711  -2.601  28.704  0.00  0.00    +0.006 A 
ATOM      2  C   UNL A   1     -25.804  -2.680  29.404  0.00  0.00    +0.080 A 
ATOM      3  C   UNL A   1     -26.353  -3.947  29.817  0.00  0.00    +0.007 A 
ATOM      4  C   UNL A   1     -25.679  -5.145  29.481  0.00  0.00    +0.000 A 
ATOM      5  C   UNL A   1     -24.514  -5.054  28.820  0.00  0.00    +0.000 A 
ATOM      6  C   UNL A   1     -24.005  -3.834  28.488  0.00  0.00    +0.000 A 
ENDROOT
BRANCH   1   9
ATOM      7  C   UNL A   1     -23.673   0.841  27.655  0.00  0.00    +0.000 A 
ATOM      8  C   UNL A   1     -24.346  -0.164  27.669  0.00  0.00    +0.000 A 
ATOM      9  C   UNL A   1     -24.037  -1.288  28.434  0.00  0.00    +0.000 A 
ATOM     10  C   UNL A   1     -22.816  -1.296  29.217  0.00  0.00    +0.000 A 
ATOM     11  C   UNL A   1     -22.078  -0.093  29.144  0.00  0.00    +0.000 A 
ATOM     12  C   UNL A   1     -22.446   0.911  28.389  0.00  0.00    +0.000 A 
ENDBRANCH   1   9
BRANCH   2  13
ATOM     13  C   UNL A   1     -26.620  -1.448  29.771  0.00  0.00    +0.388 C 
ATOM     14  O   UNL A   1     -27.565  -1.110  29.194  0.00  0.00    -0.241 OA
ATOM     15  O   UNL A   1     -26.403  -1.000  31.044  0.00  0.00    -0.241 OA
ENDBRANCH   2  13
TORSDOF 2
ENDMDL
ENDMDL
