REMARK  Name = No_3364-gen_results/8p0m/2024-11-26-14-13-15/
REMARK  2 active torsions:
REMARK  status: ('A' for Active; 'I' for Inactive)
REMARK    1  A    between atoms: C_3  and  C_7
REMARK    2  A    between atoms: C_8  and  C_13
REMARK                            x       y       z     vdW  Elec       q    Type
REMARK                         _______ _______ _______ _____ _____    ______ ____
ROOT
ATOM      1  C   UNL A   1     -24.421   0.230  28.793  0.00  0.00    +0.006 A 
ATOM      2  C   UNL A   1     -24.015   1.271  29.459  0.00  0.00    +0.080 A 
ATOM      3  C   UNL A   1     -22.808   1.976  29.106  0.00  0.00    +0.007 A 
ATOM      4  C   UNL A   1     -22.050   1.551  27.990  0.00  0.00    +0.000 A 
ATOM      5  C   UNL A   1     -22.512   0.521  27.263  0.00  0.00    +0.000 A 
ATOM      6  C   UNL A   1     -23.682  -0.090  27.603  0.00  0.00    +0.000 A 
ENDROOT
BRANCH   1   9
ATOM      7  C   UNL A   1     -28.016  -0.814  28.878  0.00  0.00    +0.000 A 
ATOM      8  C   UNL A   1     -27.064  -0.119  28.608  0.00  0.00    +0.000 A 
ATOM      9  C   UNL A   1     -25.765  -0.390  29.036  0.00  0.00    +0.000 A 
ATOM     10  C   UNL A   1     -25.530  -1.530  29.901  0.00  0.00    +0.000 A 
ATOM     11  C   UNL A   1     -26.689  -2.289  30.181  0.00  0.00    +0.000 A 
ATOM     12  C   UNL A   1     -27.873  -1.951  29.737  0.00  0.00    +0.000 A 
ENDBRANCH   1   9
BRANCH   2  13
ATOM     13  C   UNL A   1     -24.741   1.770  30.700  0.00  0.00    +0.388 C 
ATOM     14  O   UNL A   1     -24.927   1.119  31.639  0.00  0.00    -0.241 OA
ATOM     15  O   UNL A   1     -24.805   3.132  30.793  0.00  0.00    -0.241 OA
ENDBRANCH   2  13
TORSDOF 2
