MODEL 3365
MODEL 1
REMARK VINA RESULT:    -5.946      0.000      0.000
REMARK INTER + INTRA:         -11.959
REMARK INTER:                  -9.075
REMARK INTRA:                  -2.885
REMARK UNBOUND:                -2.885
REMARK  Name = No_3365-gen_results/8p0m/2024-11-26-14-13-15/
REMARK  9 active torsions:
REMARK  status: ('A' for Active; 'I' for Inactive)
REMARK    1  A    between atoms: C_1  and  C_2
REMARK    2  A    between atoms: C_1  and  C_5
REMARK    3  A    between atoms: C_2  and  C_3
REMARK    4  A    between atoms: C_2  and  C_14
REMARK    5  A    between atoms: C_5  and  C_6
REMARK    6  A    between atoms: C_14  and  C_15
REMARK    7  A    between atoms: C_15  and  C_16
REMARK    8  A    between atoms: C_16  and  C_17
REMARK    9  A    between atoms: C_18  and  C_19
REMARK                            x       y       z     vdW  Elec       q    Type
REMARK                         _______ _______ _______ _____ _____    ______ ____
ROOT
ATOM      1  C   UNL A   1     -23.777  -1.378  28.552  0.00  0.00    +0.023 C 
ENDROOT
BRANCH   1   2
ATOM      2  C   UNL A   1     -24.445  -2.527  28.927  0.00  0.00    -0.022 A 
ATOM      3  C   UNL A   1     -23.965  -3.642  28.743  0.00  0.00    -0.004 A 
ATOM      4  C   UNL A   1     -25.733  -2.393  29.629  0.00  0.00    -0.004 A 
ATOM      5  C   UNL A   1     -26.601  -3.472  29.839  0.00  0.00    -0.000 A 
ATOM      6  C   UNL A   1     -24.767  -4.874  28.991  0.00  0.00    -0.000 A 
ATOM      7  C   UNL A   1     -26.044  -4.749  29.649  0.00  0.00    -0.000 A 
ENDBRANCH   1   2
BRANCH   1   8
ATOM      8  C   UNL A   1     -24.308  -0.295  28.461  0.00  0.00    +0.013 C 
BRANCH   8   9
ATOM      9  C   UNL A   1     -24.170   0.270  27.310  0.00  0.00    +0.104 C 
BRANCH   9  10
ATOM     10  C   UNL A   1     -23.394   1.485  27.276  0.00  0.00    +0.398 C 
ATOM     11  F   UNL A   1     -23.645   2.104  28.133  0.00  0.00    -0.170 F 
ATOM     12  F   UNL A   1     -22.066   1.156  27.298  0.00  0.00    -0.170 F 
ATOM     13  F   UNL A   1     -23.630   2.148  26.158  0.00  0.00    -0.170 F 
ENDBRANCH   9  10
ENDBRANCH   8   9
ENDBRANCH   1   8
BRANCH   1  14
ATOM     14  C   UNL A   1     -22.492  -1.250  29.489  0.00  0.00    +0.005 C 
BRANCH  14  15
ATOM     15  C   UNL A   1     -22.707  -0.337  30.654  0.00  0.00    +0.005 C 
BRANCH  15  16
ATOM     16  C   UNL A   1     -22.981  -0.963  31.921  0.00  0.00    +0.026 C 
BRANCH  16  17
ATOM     17  C   UNL A   1     -23.983  -0.677  32.358  0.00  0.00    -0.026 C 
ATOM     18  C   UNL A   1     -24.682   0.639  32.016  0.00  0.00    -0.005 C 
BRANCH  18  19
ATOM     19  C   UNL A   1     -26.153   0.632  32.169  0.00  0.00    -0.005 C 
ATOM     20  C   UNL A   1     -26.836  -0.636  32.397  0.00  0.00    -0.026 C 
ATOM     21  C   UNL A   1     -28.220  -0.597  32.665  0.00  0.00    +0.031 C 
ENDBRANCH  18  19
ENDBRANCH  16  17
ENDBRANCH  15  16
ENDBRANCH  14  15
ENDBRANCH   1  14
TORSDOF 9
ENDMDL
ENDMDL
