REMARK  Name = No_3365-gen_results/8p0m/2024-11-26-14-13-15/
REMARK  9 active torsions:
REMARK  status: ('A' for Active; 'I' for Inactive)
REMARK    1  A    between atoms: C_1  and  C_2
REMARK    2  A    between atoms: C_1  and  C_5
REMARK    3  A    between atoms: C_2  and  C_3
REMARK    4  A    between atoms: C_2  and  C_14
REMARK    5  A    between atoms: C_5  and  C_6
REMARK    6  A    between atoms: C_14  and  C_15
REMARK    7  A    between atoms: C_15  and  C_16
REMARK    8  A    between atoms: C_16  and  C_17
REMARK    9  A    between atoms: C_18  and  C_19
REMARK                            x       y       z     vdW  Elec       q    Type
REMARK                         _______ _______ _______ _____ _____    ______ ____
ROOT
ATOM      1  C   UNL A   1     -27.064  -0.119  28.608  0.00  0.00    +0.023 C 
ENDROOT
BRANCH   1   2
ATOM      2  C   UNL A   1     -27.001   0.691  27.491  0.00  0.00    -0.022 A 
ATOM      3  C   UNL A   1     -27.178   1.904  27.563  0.00  0.00    -0.004 A 
ATOM      4  C   UNL A   1     -26.642   0.080  26.200  0.00  0.00    -0.004 A 
ATOM      5  C   UNL A   1     -26.781   0.748  24.977  0.00  0.00    -0.000 A 
ATOM      6  C   UNL A   1     -27.282   2.739  26.332  0.00  0.00    -0.000 A 
ATOM      7  C   UNL A   1     -26.962   2.140  25.060  0.00  0.00    -0.000 A 
ENDBRANCH   1   2
BRANCH   1   8
ATOM      8  C   UNL A   1     -28.016  -0.814  28.878  0.00  0.00    +0.013 C 
BRANCH   8   9
ATOM      9  C   UNL A   1     -28.745  -0.366  29.843  0.00  0.00    +0.104 C 
BRANCH   9  10
ATOM     10  C   UNL A   1     -29.948  -1.105  30.139  0.00  0.00    +0.398 C 
ATOM     11  F   UNL A   1     -29.749  -2.171  30.073  0.00  0.00    -0.170 F 
ATOM     12  F   UNL A   1     -30.365  -0.775  31.400  0.00  0.00    -0.170 F 
ATOM     13  F   UNL A   1     -30.908  -0.774  29.294  0.00  0.00    -0.170 F 
ENDBRANCH   9  10
ENDBRANCH   8   9
ENDBRANCH   1   8
BRANCH   1  14
ATOM     14  C   UNL A   1     -25.746  -1.019  28.615  0.00  0.00    +0.005 C 
BRANCH  14  15
ATOM     15  C   UNL A   1     -25.057  -1.036  29.943  0.00  0.00    +0.005 C 
BRANCH  15  16
ATOM     16  C   UNL A   1     -23.929  -0.155  30.094  0.00  0.00    +0.026 C 
BRANCH  16  17
ATOM     17  C   UNL A   1     -24.120   0.705  30.802  0.00  0.00    -0.026 C 
ATOM     18  C   UNL A   1     -23.666   2.133  30.499  0.00  0.00    -0.005 C 
BRANCH  18  19
ATOM     19  C   UNL A   1     -24.442   3.199  31.169  0.00  0.00    -0.005 C 
ATOM     20  C   UNL A   1     -25.237   2.864  32.345  0.00  0.00    -0.026 C 
ATOM     21  C   UNL A   1     -25.863   3.922  33.036  0.00  0.00    +0.031 C 
ENDBRANCH  18  19
ENDBRANCH  16  17
ENDBRANCH  15  16
ENDBRANCH  14  15
ENDBRANCH   1  14
TORSDOF 9
