MODEL 3366
MODEL 1
REMARK VINA RESULT:    -7.494      0.000      0.000
REMARK INTER + INTRA:          -7.494
REMARK INTER:                  -7.494
REMARK INTRA:                   0.000
REMARK UNBOUND:                 0.000
REMARK  Name = No_3366-gen_results/8p0m/2024-11-26-14-13-15/
REMARK  0 active torsions:
REMARK  status: ('A' for Active; 'I' for Inactive)
REMARK                            x       y       z     vdW  Elec       q    Type
REMARK                         _______ _______ _______ _____ _____    ______ ____
ROOT
ATOM      1  C   UNL A   1     -24.584  -2.676  29.358  0.00  0.00    +0.000 A 
ATOM      2  C   UNL A   1     -23.978  -1.717  28.937  0.00  0.00    +0.000 A 
ATOM      3  C   UNL A   1     -22.653  -1.461  29.229  0.00  0.00    +0.001 A 
ATOM      4  C   UNL A   1     -21.906  -0.289  28.814  0.00  0.00    +0.011 A 
ATOM      5  C   UNL A   1     -22.558   0.691  28.033  0.00  0.00    +0.058 A 
ATOM      6  C   UNL A   1     -23.945   0.443  27.733  0.00  0.00    +0.011 A 
ATOM      7  C   UNL A   1     -24.643  -0.659  28.169  0.00  0.00    +0.001 A 
ATOM      8  C   UNL A   1     -24.093  -3.972  28.861  0.00  0.00    +0.000 A 
ATOM      9  C   UNL A   1     -24.880  -5.104  29.184  0.00  0.00    +0.000 A 
ATOM     10  C   UNL A   1     -26.167  -4.933  29.689  0.00  0.00    +0.000 A 
ATOM     11  C   UNL A   1     -26.760  -3.713  29.843  0.00  0.00    +0.000 A 
ATOM     12  C   UNL A   1     -26.025  -2.579  29.584  0.00  0.00    +0.000 A 
ATOM     13  C   UNL A   1     -26.649  -1.265  29.601  0.00  0.00    +0.000 A 
ATOM     14  C   UNL A   1     -25.961  -0.212  28.854  0.00  0.00    +0.000 A 
ATOM     15 CL   UNL A   1     -21.742   2.050  27.432  0.00  0.00    -0.082 Cl
ENDROOT
TORSDOF 0
ENDMDL
ENDMDL
