MODEL 3367
MODEL 1
REMARK VINA RESULT:    -8.612      0.000      0.000
REMARK INTER + INTRA:         -15.770
REMARK INTER:                 -13.142
REMARK INTRA:                  -2.628
REMARK UNBOUND:                -2.628
REMARK  Name = No_3367-gen_results/8p0m/2024-11-26-14-13-15/
REMARK  9 active torsions:
REMARK  status: ('A' for Active; 'I' for Inactive)
REMARK    1  A    between atoms: C_6  and  O_14
REMARK    2  A    between atoms: C_9  and  C_11
REMARK    3  A    between atoms: O_14  and  C_15
REMARK    4  A    between atoms: C_15  and  C_16
REMARK    5  A    between atoms: C_15  and  C_30
REMARK    6  A    between atoms: C_19  and  C_20
REMARK    7  A    between atoms: C_20  and  C_23
REMARK    8  A    between atoms: C_30  and  C_31
REMARK    9  A    between atoms: C_31  and  C_32
REMARK                            x       y       z     vdW  Elec       q    Type
REMARK                         _______ _______ _______ _____ _____    ______ ____
ROOT
ATOM      1  C   UNL A   1      -9.036   0.375  35.222  0.00  0.00    +0.189 C 
ENDROOT
BRANCH   1   2
ATOM      2  C   UNL A   1      -7.694   0.172  34.889  0.00  0.00    +0.017 A 
ATOM      3  C   UNL A   1      -6.947   0.841  35.596  0.00  0.00    -0.001 A 
ATOM      4  C   UNL A   1      -5.446   0.649  35.522  0.00  0.00    -0.004 A 
ATOM      5  C   UNL A   1      -5.047  -0.400  35.282  0.00  0.00    -0.018 A 
ATOM      6  C   UNL A   1      -5.840  -1.493  34.765  0.00  0.00    -0.004 A 
ATOM      7  C   UNL A   1      -7.229  -1.174  34.512  0.00  0.00    -0.001 A 
BRANCH   5   8
ATOM      8  C   UNL A   1      -3.632  -0.680  35.231  0.00  0.00    +0.045 C 
ATOM      9  C   UNL A   1      -2.809  -0.761  36.410  0.00  0.00    +0.009 C 
BRANCH   8  10
ATOM     10  C   UNL A   1      -3.035  -0.846  34.028  0.00  0.00    -0.018 A 
ATOM     11  C   UNL A   1      -2.588   0.219  33.401  0.00  0.00    -0.004 A 
ATOM     12  C   UNL A   1      -1.718   0.055  32.241  0.00  0.00    -0.000 A 
ATOM     13  C   UNL A   1      -1.395  -1.240  31.872  0.00  0.00    -0.000 A 
ATOM     14  C   UNL A   1      -2.478  -2.081  33.508  0.00  0.00    -0.004 A 
ATOM     15  C   UNL A   1      -1.738  -2.296  32.481  0.00  0.00    -0.000 A 
ENDBRANCH   8  10
ENDBRANCH   5   8
ENDBRANCH   1   2
BRANCH   1  16
ATOM     16  O   UNL A   1      -9.396   1.672  35.045  0.00  0.00    -0.475 OA
BRANCH  16  22
ATOM     17  C   UNL A   1     -11.112   3.009  36.215  0.00  0.00    +0.037 A 
ATOM     18  C   UNL A   1     -12.249   3.414  36.284  0.00  0.00    +0.003 A 
ATOM     19  C   UNL A   1     -13.247   2.896  35.467  0.00  0.00    +0.000 A 
ATOM     20  C   UNL A   1     -12.949   1.890  34.480  0.00  0.00    +0.003 A 
ATOM     21  C   UNL A   1     -11.605   1.496  34.452  0.00  0.00    +0.037 A 
ATOM     22  C   UNL A   1     -10.696   2.030  35.235  0.00  0.00    +0.139 A 
ATOM     23  C   UNL A   1     -12.730   4.464  37.222  0.00  0.00    +0.000 A 
ATOM     24  C   UNL A   1     -13.924   4.487  37.701  0.00  0.00    +0.005 A 
ATOM     25  C   UNL A   1     -15.039   3.897  36.845  0.00  0.00    +0.057 A 
ATOM     26  C   UNL A   1     -14.685   3.016  35.832  0.00  0.00    +0.005 A 
BRANCH  25  27
ATOM     27  C   UNL A   1     -16.436   4.149  37.157  0.00  0.00    +0.284 C 
ATOM     28  N   UNL A   1     -16.951   3.730  38.300  0.00  0.00    -0.084 NA
ATOM     29  O   UNL A   1     -17.192   4.776  36.368  0.00  0.00    -0.267 OA
ENDBRANCH  25  27
ENDBRANCH  16  22
ENDBRANCH   1  16
BRANCH   1  30
ATOM     30  C   UNL A   1      -9.224   0.009  36.734  0.00  0.00    +0.052 C 
BRANCH  30  31
ATOM     31  C   UNL A   1     -10.117  -1.115  36.933  0.00  0.00    +0.026 C 
BRANCH  31  32
ATOM     32  C   UNL A   1     -11.086  -1.210  37.847  0.00  0.00    -0.048 C 
ATOM     33  C   UNL A   1     -11.605  -2.191  38.215  0.00  0.00    -0.034 C 
ATOM     34  C   UNL A   1     -12.242  -2.538  38.974  0.00  0.00    +0.030 C 
ATOM     35  C   UNL A   1     -11.490   0.105  38.431  0.00  0.00    +0.026 C 
ENDBRANCH  31  32
ENDBRANCH  30  31
ENDBRANCH   1  30
TORSDOF 9
ENDMDL
ENDMDL
