MODEL 3368
MODEL 1
REMARK VINA RESULT:    -6.599      0.000      0.000
REMARK INTER + INTRA:          -7.302
REMARK INTER:                  -6.985
REMARK INTRA:                  -0.318
REMARK UNBOUND:                -0.318
REMARK  Name = No_3368-gen_results/8p0m/2024-11-26-14-13-15/
REMARK  1 active torsions:
REMARK  status: ('A' for Active; 'I' for Inactive)
REMARK    1  A    between atoms: C_3  and  C_7
REMARK                            x       y       z     vdW  Elec       q    Type
REMARK                         _______ _______ _______ _____ _____    ______ ____
ROOT
ATOM      1  C   UNL A   1     -24.730  -4.941  28.928  0.00  0.00    +0.000 A 
ATOM      2  C   UNL A   1     -24.079  -3.952  28.684  0.00  0.00    +0.000 A 
ATOM      3  C   UNL A   1     -24.476  -2.662  29.033  0.00  0.00    +0.000 A 
ATOM      4  C   UNL A   1     -25.763  -2.467  29.672  0.00  0.00    +0.000 A 
ATOM      5  C   UNL A   1     -26.471  -3.666  29.917  0.00  0.00    +0.000 A 
ATOM      6  C   UNL A   1     -26.018  -4.836  29.546  0.00  0.00    +0.000 A 
ENDROOT
BRANCH   3   7
ATOM      7  C   UNL A   1     -23.724  -1.405  28.776  0.00  0.00    +0.000 A 
ATOM      8  C   UNL A   1     -24.216  -0.419  27.977  0.00  0.00    +0.000 A 
ATOM      9  C   UNL A   1     -23.470   0.726  27.720  0.00  0.00    +0.000 A 
ATOM     10  C   UNL A   1     -22.186   0.717  28.281  0.00  0.00    +0.000 A 
ATOM     11  C   UNL A   1     -22.394  -1.062  29.194  0.00  0.00    +0.000 A 
ATOM     12  C   UNL A   1     -21.667  -0.173  29.011  0.00  0.00    +0.000 A 
ENDBRANCH   3   7
TORSDOF 1
ENDMDL
ENDMDL
