REMARK  Name = No_3369-gen_results/8p0m/2024-11-26-14-13-15/
REMARK  10 active torsions:
REMARK  status: ('A' for Active; 'I' for Inactive)
REMARK    1  A    between atoms: C_3  and  C_8
REMARK    2  A    between atoms: C_6  and  O_7
REMARK    3  A    between atoms: O_7  and  C_14
REMARK    4  A    between atoms: C_14  and  C_15
REMARK    5  A    between atoms: C_15  and  C_16
REMARK    6  A    between atoms: N_18  and  C_19
REMARK    7  A    between atoms: C_19  and  C_27
REMARK    8  A    between atoms: C_20  and  C_21
REMARK    9  A    between atoms: C_27  and  O_28
REMARK   10  A    between atoms: O_28  and  C_29
REMARK                            x       y       z     vdW  Elec       q    Type
REMARK                         _______ _______ _______ _____ _____    ______ ____
ROOT
ATOM      1  C   UNL A   1     -30.187  -5.088  29.325  0.00  0.00    +0.249 C 
ATOM      2  O   UNL A   1     -30.336  -5.838  28.388  0.00  0.00    -0.273 OA
ATOM      3  N   UNL A   1     -31.209  -4.829  30.081  0.00  0.00    -0.180 NA
ENDROOT
BRANCH   3   4
ATOM      4  C   UNL A   1     -32.558  -5.020  29.632  0.00  0.00    +0.095 C 
ATOM      5  C   UNL A   1     -33.239  -5.990  29.715  0.00  0.00    +0.016 C 
BRANCH   5   6
ATOM      6  C   UNL A   1     -32.932  -6.863  30.734  0.00  0.00    +0.001 A 
ATOM      7  C   UNL A   1     -32.780  -6.389  31.951  0.00  0.00    +0.000 A 
ATOM      8  C   UNL A   1     -32.410  -7.259  33.044  0.00  0.00    +0.000 A 
ATOM      9  C   UNL A   1     -32.317  -8.627  32.807  0.00  0.00    +0.000 A 
ATOM     10  C   UNL A   1     -32.531  -9.120  31.527  0.00  0.00    +0.000 A 
ATOM     11  C   UNL A   1     -32.826  -8.267  30.515  0.00  0.00    +0.000 A 
ENDBRANCH   5   6
BRANCH   4  12
ATOM     12  C   UNL A   1     -32.510  -4.122  28.328  0.00  0.00    +0.249 C 
BRANCH  12  13
ATOM     13  O   UNL A   1     -32.551  -2.882  28.559  0.00  0.00    -0.463 OA
BRANCH  13  14
ATOM     14  C   UNL A   1     -32.492  -1.959  27.485  0.00  0.00    +0.218 C 
ATOM     15  C   UNL A   1     -32.565  -2.498  26.273  0.00  0.00    +0.274 C 
ATOM     16  O   UNL A   1     -32.369  -1.704  25.254  0.00  0.00    -0.280 OA
ENDBRANCH  13  14
ENDBRANCH  12  13
ENDBRANCH   4  12
ENDBRANCH   3   4
BRANCH   1  17
ATOM     17  C   UNL A   1     -28.815  -4.998  29.818  0.00  0.00    +0.134 C 
BRANCH  17  18
ATOM     18  C   UNL A   1     -28.775  -3.993  30.647  0.00  0.00    +0.215 C 
BRANCH  18  19
ATOM     19  O   UNL A   1     -28.930  -2.730  30.115  0.00  0.00    -0.475 OA
BRANCH  19  25
ATOM     20  C   UNL A   1     -28.016  -0.814  28.878  0.00  0.00    +0.037 A 
ATOM     21  C   UNL A   1     -27.064  -0.119  28.608  0.00  0.00    +0.003 A 
ATOM     22  C   UNL A   1     -25.765  -0.390  29.036  0.00  0.00    +0.000 A 
ATOM     23  C   UNL A   1     -25.530  -1.530  29.901  0.00  0.00    +0.003 A 
ATOM     24  C   UNL A   1     -26.689  -2.289  30.181  0.00  0.00    +0.037 A 
ATOM     25  C   UNL A   1     -27.873  -1.951  29.737  0.00  0.00    +0.139 A 
BRANCH  22  26
ATOM     26  C   UNL A   1     -24.539   0.421  28.742  0.00  0.00    +0.000 A 
ATOM     27  C   UNL A   1     -23.346   0.114  29.169  0.00  0.00    +0.000 A 
ATOM     28  C   UNL A   1     -22.194   0.874  28.755  0.00  0.00    +0.000 A 
ATOM     29  C   UNL A   1     -22.361   1.834  27.695  0.00  0.00    +0.000 A 
ATOM     30  C   UNL A   1     -24.598   1.358  27.640  0.00  0.00    +0.000 A 
ATOM     31  C   UNL A   1     -23.546   2.083  27.233  0.00  0.00    +0.000 A 
ENDBRANCH  22  26
ENDBRANCH  19  25
ENDBRANCH  18  19
ENDBRANCH  17  18
ENDBRANCH   1  17
TORSDOF 10
