MODEL 3369
MODEL 1
REMARK VINA RESULT:    -6.247      0.000      0.000
REMARK INTER + INTRA:         -12.293
REMARK INTER:                  -9.899
REMARK INTRA:                  -2.394
REMARK UNBOUND:                -2.394
REMARK  Name = No_3369-gen_results/8p0m/2024-11-26-14-13-15/
REMARK  10 active torsions:
REMARK  status: ('A' for Active; 'I' for Inactive)
REMARK    1  A    between atoms: C_3  and  C_8
REMARK    2  A    between atoms: C_6  and  O_7
REMARK    3  A    between atoms: O_7  and  C_14
REMARK    4  A    between atoms: C_14  and  C_15
REMARK    5  A    between atoms: C_15  and  C_16
REMARK    6  A    between atoms: N_18  and  C_19
REMARK    7  A    between atoms: C_19  and  C_27
REMARK    8  A    between atoms: C_20  and  C_21
REMARK    9  A    between atoms: C_27  and  O_28
REMARK   10  A    between atoms: O_28  and  C_29
REMARK                            x       y       z     vdW  Elec       q    Type
REMARK                         _______ _______ _______ _____ _____    ______ ____
ROOT
ATOM      1  C   UNL A   1     -31.282 -13.904  30.082  0.00  0.00    +0.249 C 
ATOM      2  O   UNL A   1     -31.965 -13.233  30.822  0.00  0.00    -0.273 OA
ATOM      3  N   UNL A   1     -29.993 -13.767  30.133  0.00  0.00    -0.180 NA
ENDROOT
BRANCH   3   4
ATOM      4  C   UNL A   1     -29.372 -12.594  30.679  0.00  0.00    +0.095 C 
ATOM      5  C   UNL A   1     -28.910 -11.662  30.105  0.00  0.00    +0.016 C 
BRANCH   5   6
ATOM      6  C   UNL A   1     -29.412 -11.412  28.848  0.00  0.00    +0.001 A 
ATOM      7  C   UNL A   1     -30.349 -10.501  28.709  0.00  0.00    +0.000 A 
ATOM      8  C   UNL A   1     -30.941 -10.238  27.417  0.00  0.00    +0.000 A 
ATOM      9  C   UNL A   1     -30.429 -10.894  26.302  0.00  0.00    +0.000 A 
ATOM     10  C   UNL A   1     -29.403 -11.817  26.456  0.00  0.00    +0.000 A 
ATOM     11  C   UNL A   1     -28.908 -12.075  27.691  0.00  0.00    +0.000 A 
ENDBRANCH   5   6
BRANCH   4  12
ATOM     12  C   UNL A   1     -28.670 -13.254  31.936  0.00  0.00    +0.249 C 
BRANCH  12  13
ATOM     13  O   UNL A   1     -29.155 -12.889  33.043  0.00  0.00    -0.463 OA
BRANCH  13  14
ATOM     14  C   UNL A   1     -28.299 -12.436  34.077  0.00  0.00    +0.218 C 
ATOM     15  C   UNL A   1     -27.688 -11.280  33.838  0.00  0.00    +0.274 C 
ATOM     16  O   UNL A   1     -26.781 -10.896  34.696  0.00  0.00    -0.280 OA
ENDBRANCH  13  14
ENDBRANCH  12  13
ENDBRANCH   4  12
ENDBRANCH   3   4
BRANCH   1  17
ATOM     17  C   UNL A   1     -31.913 -15.140  29.628  0.00  0.00    +0.134 C 
BRANCH  17  18
ATOM     18  C   UNL A   1     -31.109 -15.678  28.754  0.00  0.00    +0.215 C 
BRANCH  18  19
ATOM     19  O   UNL A   1     -31.649 -16.031  27.535  0.00  0.00    -0.475 OA
BRANCH  19  25
ATOM     20  C   UNL A   1     -30.029 -15.795  25.702  0.00  0.00    +0.037 A 
ATOM     21  C   UNL A   1     -29.742 -15.304  24.635  0.00  0.00    +0.003 A 
ATOM     22  C   UNL A   1     -30.520 -14.339  23.996  0.00  0.00    +0.000 A 
ATOM     23  C   UNL A   1     -31.775 -13.932  24.598  0.00  0.00    +0.003 A 
ATOM     24  C   UNL A   1     -32.048 -14.554  25.837  0.00  0.00    +0.037 A 
ATOM     25  C   UNL A   1     -31.257 -15.458  26.358  0.00  0.00    +0.139 A 
BRANCH  22  26
ATOM     26  C   UNL A   1     -30.230 -13.685  22.679  0.00  0.00    +0.000 A 
ATOM     27  C   UNL A   1     -30.787 -12.576  22.281  0.00  0.00    +0.000 A 
ATOM     28  C   UNL A   1     -30.379 -11.942  21.053  0.00  0.00    +0.000 A 
ATOM     29  C   UNL A   1     -29.199 -12.439  20.394  0.00  0.00    +0.000 A 
ATOM     30  C   UNL A   1     -29.020 -14.074  21.984  0.00  0.00    +0.000 A 
ATOM     31  C   UNL A   1     -28.615 -13.507  20.839  0.00  0.00    +0.000 A 
ENDBRANCH  22  26
ENDBRANCH  19  25
ENDBRANCH  18  19
ENDBRANCH  17  18
ENDBRANCH   1  17
TORSDOF 10
ENDMDL
ENDMDL
