MODEL 336
MODEL 1
REMARK VINA RESULT:    -6.825      0.000      0.000
REMARK INTER + INTRA:          -8.627
REMARK INTER:                  -8.022
REMARK INTRA:                  -0.605
REMARK UNBOUND:                -0.605
REMARK  Name = No_336-gen_results/8p0m/2024-11-26-14-13-15/
REMARK  3 active torsions:
REMARK  status: ('A' for Active; 'I' for Inactive)
REMARK    1  A    between atoms: C_3  and  C_4
REMARK    2  A    between atoms: C_4  and  C_8
REMARK    3  A    between atoms: C_8  and  C_9
REMARK                            x       y       z     vdW  Elec       q    Type
REMARK                         _______ _______ _______ _____ _____    ______ ____
ROOT
ATOM      1  C   UNL A   1     -23.204  -1.944  28.962  0.00  0.00    +0.031 C 
ENDROOT
BRANCH   1   4
ATOM      2  C   UNL A   1     -24.065  -4.416  28.827  0.00  0.00    -0.004 A 
ATOM      3  C   UNL A   1     -24.928  -5.009  28.948  0.00  0.00    -0.000 A 
ATOM      4  C   UNL A   1     -24.190  -2.992  29.176  0.00  0.00    -0.022 A 
ATOM      5  C   UNL A   1     -26.226  -4.733  29.609  0.00  0.00    -0.000 A 
ATOM      6  C   UNL A   1     -26.419  -3.406  29.977  0.00  0.00    -0.000 A 
ATOM      7  C   UNL A   1     -25.413  -2.480  29.805  0.00  0.00    -0.004 A 
ENDBRANCH   1   4
BRANCH   1   8
ATOM      8  C   UNL A   1     -23.594  -0.601  29.027  0.00  0.00    +0.031 C 
BRANCH   8   9
ATOM      9  C   UNL A   1     -23.561   0.166  27.953  0.00  0.00    -0.022 A 
ATOM     10  C   UNL A   1     -24.645   0.103  26.970  0.00  0.00    -0.004 A 
ATOM     11  C   UNL A   1     -24.559   0.987  25.837  0.00  0.00    -0.000 A 
ATOM     12  C   UNL A   1     -23.466   1.896  25.765  0.00  0.00    -0.000 A 
ATOM     13  C   UNL A   1     -22.533   2.016  26.762  0.00  0.00    -0.000 A 
ATOM     14  C   UNL A   1     -22.586   1.127  27.820  0.00  0.00    -0.004 A 
ENDBRANCH   8   9
ENDBRANCH   1   8
TORSDOF 3
ENDMDL
ENDMDL
