REMARK  Name = No_337-gen_results/8p0m/2024-11-26-14-13-15/
REMARK  5 active torsions:
REMARK  status: ('A' for Active; 'I' for Inactive)
REMARK    1  A    between atoms: C_2  and  N_6
REMARK    2  A    between atoms: C_3  and  C_15
REMARK    3  A    between atoms: C_5  and  C_21
REMARK    4  A    between atoms: C_5  and  C_22
REMARK    5  A    between atoms: C_22  and  C_23
REMARK                            x       y       z     vdW  Elec       q    Type
REMARK                         _______ _______ _______ _____ _____    ______ ____
ROOT
ATOM      1  C   UNL A   1     -28.016  -0.814  28.878  0.00  0.00    +0.024 C 
ATOM      2  C   UNL A   1     -28.469  -0.785  29.829  0.00  0.00    +0.076 C 
ATOM      3  C   UNL A   1     -27.087   0.290  28.638  0.00  0.00    +0.024 C 
ATOM      4  C   UNL A   1     -26.024   0.364  29.253  0.00  0.00    +0.005 C 
ATOM      5  C   UNL A   1     -26.246   0.433  30.799  0.00  0.00    +0.010 C 
ATOM      6  C   UNL A   1     -27.669  -0.467  31.222  0.00  0.00    +0.020 C 
ENDROOT
BRANCH   2   7
ATOM      7  N   UNL A   1     -29.493  -1.621  30.321  0.00  0.00    -0.272 N 
ATOM      8  C   UNL A   1     -30.775  -1.377  29.956  0.00  0.00    +0.304 C 
ATOM      9  O   UNL A   1     -30.904  -0.382  29.326  0.00  0.00    -0.265 OA
ATOM     10  C   UNL A   1     -31.802  -2.332  30.337  0.00  0.00    +0.319 C 
ATOM     11  C   UNL A   1     -29.232  -2.903  31.159  0.00  0.00    +0.117 C 
ATOM     12  O   UNL A   1     -32.906  -2.072  29.966  0.00  0.00    -0.263 OA
ATOM     13  N   UNL A   1     -31.528  -3.421  31.064  0.00  0.00    -0.196 NA
ATOM     14  C   UNL A   1     -30.212  -3.715  31.523  0.00  0.00    +0.137 C 
ENDBRANCH   2   7
BRANCH   3  15
ATOM     15  C   UNL A   1     -26.969   0.713  27.158  0.00  0.00    -0.022 A 
ATOM     16  C   UNL A   1     -25.783   0.916  26.582  0.00  0.00    -0.004 A 
ATOM     17  C   UNL A   1     -25.526   1.574  25.488  0.00  0.00    -0.000 A 
ATOM     18  C   UNL A   1     -28.101   0.947  26.320  0.00  0.00    -0.004 A 
ATOM     19  C   UNL A   1     -27.954   1.490  25.088  0.00  0.00    -0.000 A 
ATOM     20  C   UNL A   1     -26.650   1.749  24.621  0.00  0.00    -0.000 A 
ENDBRANCH   3  15
BRANCH   5  21
ATOM     21  C   UNL A   1     -25.083  -0.045  31.555  0.00  0.00    +0.000 C 
ATOM     22  C   UNL A   1     -24.573  -1.340  31.484  0.00  0.00    +0.000 C 
ENDBRANCH   5  21
BRANCH   5  23
ATOM     23  C   UNL A   1     -26.653   1.908  31.151  0.00  0.00    +0.103 C 
BRANCH  23  24
ATOM     24  C   UNL A   1     -25.781   2.575  31.569  0.00  0.00    +0.398 C 
ATOM     25  F   UNL A   1     -25.203   3.413  30.828  0.00  0.00    -0.170 F 
ATOM     26  F   UNL A   1     -26.178   3.381  32.654  0.00  0.00    -0.170 F 
ATOM     27  F   UNL A   1     -24.672   1.898  32.305  0.00  0.00    -0.170 F 
ENDBRANCH  23  24
ENDBRANCH   5  23
TORSDOF 5
