REMARK  Name = No_3370-gen_results/8p0m/2024-11-26-14-13-15/
REMARK  2 active torsions:
REMARK  status: ('A' for Active; 'I' for Inactive)
REMARK    1  A    between atoms: C_1  and  C_2
REMARK    2  A    between atoms: C_8  and  C_9
REMARK                            x       y       z     vdW  Elec       q    Type
REMARK                         _______ _______ _______ _____ _____    ______ ____
ROOT
ATOM      1  C   UNL A   1     -27.064  -0.119  28.608  0.00  0.00    -0.000 A 
ATOM      2  C   UNL A   1     -27.001   0.691  27.491  0.00  0.00    -0.000 A 
ATOM      3  C   UNL A   1     -25.777   1.021  26.913  0.00  0.00    +0.000 A 
ATOM      4  C   UNL A   1     -24.509   0.736  27.569  0.00  0.00    +0.000 A 
ATOM      5  C   UNL A   1     -24.593  -0.036  28.739  0.00  0.00    +0.000 A 
ATOM      6  C   UNL A   1     -25.811  -0.477  29.158  0.00  0.00    -0.000 A 
ENDROOT
BRANCH   1   7
ATOM      7  C   UNL A   1     -28.016  -0.814  28.878  0.00  0.00    -0.000 C 
ATOM      8  C   UNL A   1     -29.237  -0.033  29.243  0.00  0.00    -0.000 C 
BRANCH   8   9
ATOM      9  C   UNL A   1     -29.158   1.228  29.077  0.00  0.00    -0.005 C 
ATOM     10  C   UNL A   1     -30.319   1.962  29.478  0.00  0.00    -0.026 C 
ATOM     11  C   UNL A   1     -31.429   1.228  29.925  0.00  0.00    +0.031 C 
ENDBRANCH   8   9
ENDBRANCH   1   7
TORSDOF 2
