MODEL 3370
MODEL 1
REMARK VINA RESULT:    -5.420      0.000      0.000
REMARK INTER + INTRA:          -6.137
REMARK INTER:                  -6.054
REMARK INTRA:                  -0.082
REMARK UNBOUND:                -0.082
REMARK  Name = No_3370-gen_results/8p0m/2024-11-26-14-13-15/
REMARK  2 active torsions:
REMARK  status: ('A' for Active; 'I' for Inactive)
REMARK    1  A    between atoms: C_1  and  C_2
REMARK    2  A    between atoms: C_8  and  C_9
REMARK                            x       y       z     vdW  Elec       q    Type
REMARK                         _______ _______ _______ _____ _____    ______ ____
ROOT
ATOM      1  C   UNL A   1     -24.672  -2.447  29.004  0.00  0.00    -0.000 A 
ATOM      2  C   UNL A   1     -25.868  -2.847  29.568  0.00  0.00    -0.000 A 
ATOM      3  C   UNL A   1     -26.150  -4.197  29.769  0.00  0.00    +0.000 A 
ATOM      4  C   UNL A   1     -25.327  -5.253  29.198  0.00  0.00    +0.000 A 
ATOM      5  C   UNL A   1     -24.145  -4.827  28.571  0.00  0.00    +0.000 A 
ATOM      6  C   UNL A   1     -23.839  -3.501  28.561  0.00  0.00    -0.000 A 
ENDROOT
BRANCH   1   7
ATOM      7  C   UNL A   1     -24.158  -1.374  29.217  0.00  0.00    -0.000 C 
ATOM      8  C   UNL A   1     -24.452  -0.355  28.164  0.00  0.00    -0.000 C 
BRANCH   8   9
ATOM      9  C   UNL A   1     -25.308  -0.698  27.284  0.00  0.00    -0.005 C 
ATOM     10  C   UNL A   1     -25.220   0.015  26.047  0.00  0.00    -0.026 C 
ATOM     11  C   UNL A   1     -24.277   1.051  25.961  0.00  0.00    +0.031 C 
ENDBRANCH   8   9
ENDBRANCH   1   7
TORSDOF 2
ENDMDL
ENDMDL
