MODEL 3371
MODEL 1
REMARK VINA RESULT:    -4.266      0.000      0.000
REMARK INTER + INTRA:          -4.266
REMARK INTER:                  -4.266
REMARK INTRA:                   0.000
REMARK UNBOUND:                 0.000
REMARK  Name = No_3371-gen_results/8p0m/2024-11-26-14-13-15/
REMARK  0 active torsions:
REMARK  status: ('A' for Active; 'I' for Inactive)
REMARK                            x       y       z     vdW  Elec       q    Type
REMARK                         _______ _______ _______ _____ _____    ______ ____
ROOT
ATOM      1  C   UNL A   1     -26.263  -3.658  29.747  0.00  0.00    +0.000 A 
ATOM      2  C   UNL A   1     -26.101  -4.847  29.598  0.00  0.00    +0.000 A 
ATOM      3  C   UNL A   1     -24.989  -5.397  28.990  0.00  0.00    +0.000 A 
ATOM      4  C   UNL A   1     -23.963  -4.514  28.552  0.00  0.00    +0.000 A 
ATOM      5  C   UNL A   1     -24.112  -3.212  28.893  0.00  0.00    +0.000 A 
ATOM      6  C   UNL A   1     -25.193  -2.780  29.513  0.00  0.00    +0.000 A 
ENDROOT
TORSDOF 0
ENDMDL
ENDMDL
