MODEL 3372
MODEL 1
REMARK VINA RESULT:    -4.357      0.000      0.000
REMARK INTER + INTRA:          -4.357
REMARK INTER:                  -4.357
REMARK INTRA:                   0.000
REMARK UNBOUND:                 0.000
REMARK  Name = No_3372-gen_results/8p0m/2024-11-26-14-13-15/
REMARK  0 active torsions:
REMARK  status: ('A' for Active; 'I' for Inactive)
REMARK                            x       y       z     vdW  Elec       q    Type
REMARK                         _______ _______ _______ _____ _____    ______ ____
ROOT
ATOM      1  C   UNL A   1     -24.186  -4.913  28.607  0.00  0.00    +0.000 A 
ATOM      2  C   UNL A   1     -25.042  -5.314  29.073  0.00  0.00    +0.000 A 
ATOM      3  C   UNL A   1     -24.065  -3.457  28.758  0.00  0.00    +0.000 A 
ATOM      4  C   UNL A   1     -25.041  -2.708  29.272  0.00  0.00    +0.000 A 
ATOM      5  C   UNL A   1     -26.218  -4.718  29.659  0.00  0.00    +0.000 A 
ATOM      6  C   UNL A   1     -26.098  -3.364  29.767  0.00  0.00    +0.000 A 
ENDROOT
TORSDOF 0
ENDMDL
ENDMDL
