REMARK  Name = No_3373-gen_results/8p0m/2024-11-26-14-13-15/
REMARK  0 active torsions:
REMARK  status: ('A' for Active; 'I' for Inactive)
REMARK                            x       y       z     vdW  Elec       q    Type
REMARK                         _______ _______ _______ _____ _____    ______ ____
ROOT
ATOM      1  O   UNL A   1     -28.123  -1.335  28.487  0.00  0.00    -0.270 OA
ATOM      2  C   UNL A   1     -27.481  -0.404  28.709  0.00  0.00    +0.249 C 
ATOM      3  C   UNL A   1     -26.380  -0.087  27.939  0.00  0.00    +0.050 A 
ATOM      4  N   UNL A   1     -27.423   0.175  30.055  0.00  0.00    -0.277 N 
ATOM      5  C   UNL A   1     -26.156   0.116  26.968  0.00  0.00    +0.007 A 
ATOM      6  C   UNL A   1     -24.900   0.604  26.225  0.00  0.00    +0.037 A 
ATOM      7  C   UNL A   1     -24.030   1.055  26.984  0.00  0.00    +0.140 A 
ATOM      8  C   UNL A   1     -24.038   0.905  28.374  0.00  0.00    +0.038 A 
ATOM      9  C   UNL A   1     -25.158   0.474  28.958  0.00  0.00    -0.015 A 
ATOM     10  C   UNL A   1     -28.546   0.096  30.792  0.00  0.00    +0.094 C 
ATOM     11  O   UNL A   1     -22.828   1.659  26.428  0.00  0.00    -0.448 OA
ATOM     12  C   UNL A   1     -21.913   2.122  27.367  0.00  0.00    +0.361 C 
ATOM     13  C   UNL A   1     -22.985   1.399  29.136  0.00  0.00    +0.175 C 
ATOM     14  O   UNL A   1     -21.922   2.000  28.616  0.00  0.00    -0.311 OA
ATOM     15  C   UNL A   1     -28.381   0.302  32.018  0.00  0.00    +0.022 C 
ATOM     16  C   UNL A   1     -27.226   0.924  32.591  0.00  0.00    +0.004 C 
ATOM     17  C   UNL A   1     -26.113   0.985  31.747  0.00  0.00    +0.020 C 
ATOM     18  C   UNL A   1     -26.250   0.551  30.485  0.00  0.00    +0.080 C 
ATOM     19  C   UNL A   1     -25.364  -0.302  30.320  0.00  0.00    +0.046 C 
ENDROOT
TORSDOF 0
