MODEL 3373
MODEL 1
REMARK VINA RESULT:    -6.614      0.000      0.000
REMARK INTER + INTRA:          -6.614
REMARK INTER:                  -6.614
REMARK INTRA:                   0.000
REMARK UNBOUND:                 0.000
REMARK  Name = No_3373-gen_results/8p0m/2024-11-26-14-13-15/
REMARK  0 active torsions:
REMARK  status: ('A' for Active; 'I' for Inactive)
REMARK                            x       y       z     vdW  Elec       q    Type
REMARK                         _______ _______ _______ _____ _____    ______ ____
ROOT
ATOM      1  O   UNL A   1     -20.985  -0.900  28.932  0.00  0.00    -0.270 OA
ATOM      2  C   UNL A   1     -21.824  -0.200  29.297  0.00  0.00    +0.249 C 
ATOM      3  C   UNL A   1     -22.654  -0.553  30.342  0.00  0.00    +0.050 A 
ATOM      4  N   UNL A   1     -22.421   0.800  28.406  0.00  0.00    -0.277 N 
ATOM      5  C   UNL A   1     -22.585  -0.814  31.322  0.00  0.00    +0.007 A 
ATOM      6  C   UNL A   1     -23.599  -1.056  32.454  0.00  0.00    +0.037 A 
ATOM      7  C   UNL A   1     -24.736  -0.641  32.185  0.00  0.00    +0.140 A 
ATOM      8  C   UNL A   1     -25.151  -0.240  30.912  0.00  0.00    +0.038 A 
ATOM      9  C   UNL A   1     -24.222  -0.051  29.973  0.00  0.00    -0.015 A 
ATOM     10  C   UNL A   1     -21.604   1.355  27.493  0.00  0.00    +0.094 C 
ATOM     11  O   UNL A   1     -25.782  -0.694  33.196  0.00  0.00    -0.448 OA
ATOM     12  C   UNL A   1     -27.021  -0.213  32.787  0.00  0.00    +0.361 C 
ATOM     13  C   UNL A   1     -26.467   0.158  30.699  0.00  0.00    +0.175 C 
ATOM     14  O   UNL A   1     -27.395   0.158  31.648  0.00  0.00    -0.311 OA
ATOM     15  C   UNL A   1     -22.193   1.951  26.559  0.00  0.00    +0.022 C 
ATOM     16  C   UNL A   1     -23.565   2.357  26.590  0.00  0.00    +0.004 C 
ATOM     17  C   UNL A   1     -24.335   1.748  27.585  0.00  0.00    +0.020 C 
ATOM     18  C   UNL A   1     -23.718   0.932  28.453  0.00  0.00    +0.080 C 
ATOM     19  C   UNL A   1     -24.329  -0.147  28.398  0.00  0.00    +0.046 C 
ENDROOT
TORSDOF 0
ENDMDL
ENDMDL
