MODEL 3374
MODEL 1
REMARK VINA RESULT:    -7.825      0.000      0.000
REMARK INTER + INTRA:         -13.184
REMARK INTER:                 -11.484
REMARK INTRA:                  -1.699
REMARK UNBOUND:                -1.699
REMARK  Name = No_3374-gen_results/8p0m/2024-11-26-14-13-15/
REMARK  8 active torsions:
REMARK  status: ('A' for Active; 'I' for Inactive)
REMARK    1  A    between atoms: C_1  and  C_11
REMARK    2  A    between atoms: C_5  and  C_8
REMARK    3  A    between atoms: C_11  and  O_13
REMARK    4  A    between atoms: O_13  and  C_15
REMARK    5  A    between atoms: C_18  and  C_28
REMARK    6  A    between atoms: C_28  and  N_29
REMARK    7  A    between atoms: C_30  and  C_31
REMARK    8  A    between atoms: C_32  and  C_34
REMARK                            x       y       z     vdW  Elec       q    Type
REMARK                         _______ _______ _______ _____ _____    ______ ____
ROOT
ATOM      1  C   UNL A   1     -30.428 -14.837  10.990  0.00  0.00    +0.126 C 
ATOM      2  C   UNL A   1     -29.513 -15.499  10.209  0.00  0.00    +0.029 C 
ATOM      3  C   UNL A   1     -29.878 -16.032   8.928  0.00  0.00    -0.020 C 
ATOM      4  C   UNL A   1     -28.937 -16.576   8.046  0.00  0.00    +0.011 C 
ATOM      5  C   UNL A   1     -29.279 -17.038   6.784  0.00  0.00    -0.006 C 
ATOM      6  C   UNL A   1     -30.621 -16.975   6.424  0.00  0.00    -0.022 C 
ATOM      7  C   UNL A   1     -31.569 -16.463   7.234  0.00  0.00    +0.048 C 
ATOM      8  C   UNL A   1     -31.184 -15.908   8.527  0.00  0.00    +0.031 C 
ATOM      9  C   UNL A   1     -32.989 -16.372   6.829  0.00  0.00    -0.026 C 
ATOM     10  C   UNL A   1     -33.866 -15.959   7.577  0.00  0.00    -0.030 C 
ATOM     11  C   UNL A   1     -33.420 -15.377   8.910  0.00  0.00    +0.026 C 
ATOM     12  C   UNL A   1     -32.181 -15.404   9.309  0.00  0.00    +0.017 C 
ATOM     13  C   UNL A   1     -31.727 -14.825  10.604  0.00  0.00    +0.065 C 
ENDROOT
BRANCH   4  14
ATOM     14  C   UNL A   1     -27.509 -16.621   8.466  0.00  0.00    +0.203 C 
ATOM     15 CL   UNL A   1     -26.536 -15.383   7.607  0.00  0.00    -0.083 Cl
BRANCH  14  16
ATOM     16  N   UNL A   1     -27.035 -17.256   9.220  0.00  0.00    -0.250 NA
ATOM     17  C   UNL A   1     -26.659 -18.315   9.372  0.00  0.00    +0.095 C 
BRANCH  17  18
ATOM     18  C   UNL A   1     -26.476 -18.976   8.196  0.00  0.00    +0.020 C 
ATOM     19  C   UNL A   1     -27.485 -19.903   7.949  0.00  0.00    +0.002 C 
BRANCH  19  20
ATOM     20  C   UNL A   1     -27.375 -20.841   6.871  0.00  0.00    +0.000 C 
ATOM     21  C   UNL A   1     -28.567 -21.086   6.115  0.00  0.00    +0.000 C 
ENDBRANCH  19  20
ENDBRANCH  17  18
ENDBRANCH  14  16
ENDBRANCH   4  14
BRANCH   1  22
ATOM     22  O   UNL A   1     -30.030 -14.274  11.974  0.00  0.00    -0.425 OA
BRANCH  22  23
ATOM     23  C   UNL A   1     -30.379 -13.114  12.374  0.00  0.00    +0.345 C 
ATOM     24  O   UNL A   1     -30.711 -12.963  13.541  0.00  0.00    -0.244 OA
BRANCH  23  25
ATOM     25  C   UNL A   1     -30.177 -11.935  11.430  0.00  0.00    +0.074 C 
ATOM     26  C   UNL A   1     -29.089 -11.737  10.943  0.00  0.00    +0.015 C 
ATOM     27  C   UNL A   1     -28.776 -10.695  10.087  0.00  0.00    +0.187 C 
ATOM     28  C   UNL A   1     -29.818  -9.769   9.785  0.00  0.00    +0.066 C 
ATOM     29  C   UNL A   1     -30.968  -9.919  10.460  0.00  0.00    +0.060 C 
ATOM     30  C   UNL A   1     -31.159 -10.909  11.284  0.00  0.00    +0.009 C 
ATOM     31  F   UNL A   1     -27.588 -10.543   9.484  0.00  0.00    -0.232 F 
ATOM     32  C   UNL A   1     -29.508  -8.650   8.870  0.00  0.00    +0.008 C 
BRANCH  29  33
ATOM     33  C   UNL A   1     -32.117  -9.006  10.347  0.00  0.00    +0.384 C 
ATOM     34  O   UNL A   1     -33.005  -9.294   9.527  0.00  0.00    -0.241 OA
ATOM     35  O   UNL A   1     -32.270  -8.064  11.227  0.00  0.00    -0.241 OA
ENDBRANCH  29  33
ENDBRANCH  23  25
ENDBRANCH  22  23
ENDBRANCH   1  22
TORSDOF 8
ENDMDL
ENDMDL
