REMARK  Name = No_3374-gen_results/8p0m/2024-11-26-14-13-15/
REMARK  8 active torsions:
REMARK  status: ('A' for Active; 'I' for Inactive)
REMARK    1  A    between atoms: C_1  and  C_11
REMARK    2  A    between atoms: C_5  and  C_8
REMARK    3  A    between atoms: C_11  and  O_13
REMARK    4  A    between atoms: O_13  and  C_15
REMARK    5  A    between atoms: C_18  and  C_28
REMARK    6  A    between atoms: C_28  and  N_29
REMARK    7  A    between atoms: C_30  and  C_31
REMARK    8  A    between atoms: C_32  and  C_34
REMARK                            x       y       z     vdW  Elec       q    Type
REMARK                         _______ _______ _______ _____ _____    ______ ____
ROOT
ATOM      1  C   UNL A   1     -29.322  -0.811  31.677  0.00  0.00    +0.126 C 
ATOM      2  C   UNL A   1     -30.561  -0.231  31.556  0.00  0.00    +0.029 C 
ATOM      3  C   UNL A   1     -30.920   0.920  32.333  0.00  0.00    -0.020 C 
ATOM      4  C   UNL A   1     -32.113   1.623  32.125  0.00  0.00    +0.011 C 
ATOM      5  C   UNL A   1     -32.435   2.770  32.835  0.00  0.00    -0.006 C 
ATOM      6  C   UNL A   1     -31.533   3.193  33.805  0.00  0.00    -0.022 C 
ATOM      7  C   UNL A   1     -30.372   2.554  34.049  0.00  0.00    +0.048 C 
ATOM      8  C   UNL A   1     -30.008   1.395  33.241  0.00  0.00    +0.031 C 
ATOM      9  C   UNL A   1     -29.405   3.031  35.062  0.00  0.00    -0.026 C 
ATOM     10  C   UNL A   1     -28.374   2.428  35.329  0.00  0.00    -0.030 C 
ATOM     11  C   UNL A   1     -28.026   1.233  34.454  0.00  0.00    +0.026 C 
ATOM     12  C   UNL A   1     -28.824   0.784  33.528  0.00  0.00    +0.017 C 
ATOM     13  C   UNL A   1     -28.491  -0.376  32.654  0.00  0.00    +0.065 C 
ENDROOT
BRANCH   4  14
ATOM     14  C   UNL A   1     -33.050   1.141  31.072  0.00  0.00    +0.203 C 
ATOM     15 CL   UNL A   1     -34.451   0.281  31.788  0.00  0.00    -0.083 Cl
BRANCH  14  16
ATOM     16  N   UNL A   1     -32.997   1.284  29.989  0.00  0.00    -0.250 NA
ATOM     17  C   UNL A   1     -33.561   1.772  29.135  0.00  0.00    +0.095 C 
BRANCH  17  18
ATOM     18  C   UNL A   1     -34.452   2.707  29.566  0.00  0.00    +0.020 C 
ATOM     19  C   UNL A   1     -35.531   2.138  30.238  0.00  0.00    +0.002 C 
BRANCH  19  20
ATOM     20  C   UNL A   1     -36.675   2.925  30.593  0.00  0.00    +0.000 C 
ATOM     21  C   UNL A   1     -36.728   4.251  30.053  0.00  0.00    +0.000 C 
ENDBRANCH  19  20
ENDBRANCH  17  18
ENDBRANCH  14  16
ENDBRANCH   4  14
BRANCH   1  22
ATOM     22  O   UNL A   1     -29.019  -1.668  30.891  0.00  0.00    -0.425 OA
BRANCH  22  23
ATOM     23  C   UNL A   1     -27.991  -1.672  30.137  0.00  0.00    +0.345 C 
ATOM     24  O   UNL A   1     -27.093  -2.472  30.360  0.00  0.00    -0.244 OA
BRANCH  23  25
ATOM     25  C   UNL A   1     -28.016  -0.814  28.878  0.00  0.00    +0.074 C 
ATOM     26  C   UNL A   1     -27.064  -0.119  28.608  0.00  0.00    +0.015 C 
ATOM     27  C   UNL A   1     -26.972   0.714  27.506  0.00  0.00    +0.187 C 
ATOM     28  C   UNL A   1     -28.105   0.774  26.642  0.00  0.00    +0.066 C 
ATOM     29  C   UNL A   1     -29.204   0.118  27.048  0.00  0.00    +0.060 C 
ATOM     30  C   UNL A   1     -29.213  -0.609  28.128  0.00  0.00    +0.009 C 
ATOM     31  F   UNL A   1     -25.874   1.407  27.173  0.00  0.00    -0.232 F 
ATOM     32  C   UNL A   1     -28.028   1.654  25.457  0.00  0.00    +0.008 C 
BRANCH  29  33
ATOM     33  C   UNL A   1     -30.491   0.143  26.334  0.00  0.00    +0.384 C 
ATOM     34  O   UNL A   1     -31.165   1.185  26.395  0.00  0.00    -0.241 OA
ATOM     35  O   UNL A   1     -30.782  -0.820  25.514  0.00  0.00    -0.241 OA
ENDBRANCH  29  33
ENDBRANCH  23  25
ENDBRANCH  22  23
ENDBRANCH   1  22
TORSDOF 8
