MODEL 3375
MODEL 1
REMARK VINA RESULT:    -9.051      0.000      0.000
REMARK INTER + INTRA:         -14.135
REMARK INTER:                 -12.226
REMARK INTRA:                  -1.909
REMARK UNBOUND:                -1.909
REMARK  Name = No_3375-gen_results/8p0m/2024-11-26-14-13-15/
REMARK  6 active torsions:
REMARK  status: ('A' for Active; 'I' for Inactive)
REMARK    1  A    between atoms: C_2  and  C_23
REMARK    2  A    between atoms: C_6  and  C_7
REMARK    3  A    between atoms: N_8  and  C_10
REMARK    4  A    between atoms: C_17  and  C_20
REMARK    5  A    between atoms: C_23  and  C_24
REMARK    6  A    between atoms: C_23  and  C_30
REMARK                            x       y       z     vdW  Elec       q    Type
REMARK                         _______ _______ _______ _____ _____    ______ ____
ROOT
ATOM      1  C   UNL A   1     -26.589  -0.499  28.118  0.00  0.00    +0.001 A 
ATOM      2  C   UNL A   1     -25.997  -0.734  29.146  0.00  0.00    -0.014 A 
ATOM      3  C   UNL A   1     -26.427  -0.207  30.358  0.00  0.00    -0.003 A 
ATOM      4  C   UNL A   1     -27.565   0.673  30.422  0.00  0.00    -0.000 A 
ATOM      5  C   UNL A   1     -28.176   0.910  29.184  0.00  0.00    +0.005 A 
ATOM      6  C   UNL A   1     -27.720   0.401  28.062  0.00  0.00    +0.055 A 
ATOM      7  C   UNL A   1     -25.784  -0.524  31.707  0.00  0.00    +0.004 A 
ATOM      8  C   UNL A   1     -26.200   0.076  32.849  0.00  0.00    +0.057 A 
ATOM      9  C   UNL A   1     -27.252   0.944  32.840  0.00  0.00    +0.005 A 
ATOM     10  C   UNL A   1     -27.949   1.292  31.626  0.00  0.00    +0.000 A 
ENDROOT
BRANCH   6  11
ATOM     11  C   UNL A   1     -28.425   0.773  26.813  0.00  0.00    +0.269 C 
ATOM     12  N   UNL A   1     -27.943   0.427  25.647  0.00  0.00    -0.175 NA
ATOM     13  O   UNL A   1     -29.472   1.453  26.857  0.00  0.00    -0.268 OA
BRANCH  12  14
ATOM     14  C   UNL A   1     -28.485   0.794  24.356  0.00  0.00    +0.074 A 
ATOM     15  C   UNL A   1     -29.303  -0.165  23.790  0.00  0.00    +0.017 A 
ATOM     16  C   UNL A   1     -30.512   0.285  23.389  0.00  0.00    +0.001 A 
ATOM     17  C   UNL A   1     -30.691   1.635  23.019  0.00  0.00    +0.000 A 
ATOM     18  C   UNL A   1     -29.777   2.547  23.597  0.00  0.00    +0.001 A 
ATOM     19  C   UNL A   1     -28.122   1.917  23.788  0.00  0.00    +0.017 A 
ENDBRANCH  12  14
ENDBRANCH   6  11
BRANCH   8  20
ATOM     20  C   UNL A   1     -25.554  -0.255  34.115  0.00  0.00    +0.284 C 
ATOM     21  N   UNL A   1     -24.370  -0.836  34.101  0.00  0.00    -0.084 NA
ATOM     22  O   UNL A   1     -25.950   0.224  35.225  0.00  0.00    -0.267 OA
ENDBRANCH   8  20
BRANCH   2  23
ATOM     23  C   UNL A   1     -24.757  -1.510  29.036  0.00  0.00    +0.067 C 
BRANCH  23  24
ATOM     24  C   UNL A   1     -24.781  -2.836  29.128  0.00  0.00    -0.014 A 
ATOM     25  C   UNL A   1     -25.889  -3.610  29.682  0.00  0.00    -0.004 A 
ATOM     26  C   UNL A   1     -26.143  -4.601  29.629  0.00  0.00    -0.000 A 
ATOM     27  C   UNL A   1     -25.147  -5.545  29.024  0.00  0.00    -0.000 A 
ATOM     28  C   UNL A   1     -24.027  -5.029  28.423  0.00  0.00    -0.000 A 
ATOM     29  C   UNL A   1     -23.888  -3.654  28.409  0.00  0.00    -0.004 A 
ENDBRANCH  23  24
BRANCH  23  30
ATOM     30  C   UNL A   1     -23.557  -0.746  28.919  0.00  0.00    -0.014 A 
ATOM     31  C   UNL A   1     -22.513  -0.841  29.210  0.00  0.00    -0.004 A 
ATOM     32  C   UNL A   1     -21.357  -0.053  28.883  0.00  0.00    -0.000 A 
ATOM     33  C   UNL A   1     -21.579   0.931  27.899  0.00  0.00    -0.000 A 
ATOM     34  C   UNL A   1     -22.831   1.109  27.363  0.00  0.00    -0.000 A 
ATOM     35  C   UNL A   1     -23.922   0.293  27.805  0.00  0.00    -0.004 A 
ENDBRANCH  23  30
ENDBRANCH   2  23
TORSDOF 6
ENDMDL
ENDMDL
