MODEL 3376
MODEL 1
REMARK VINA RESULT:    -5.359      0.000      0.000
REMARK INTER + INTRA:          -6.263
REMARK INTER:                  -5.986
REMARK INTRA:                  -0.277
REMARK UNBOUND:                -0.277
REMARK  Name = No_3376-gen_results/8p0m/2024-11-26-14-13-15/
REMARK  2 active torsions:
REMARK  status: ('A' for Active; 'I' for Inactive)
REMARK    1  A    between atoms: C_3  and  C_7
REMARK    2  A    between atoms: C_7  and  C_8
REMARK                            x       y       z     vdW  Elec       q    Type
REMARK                         _______ _______ _______ _____ _____    ______ ____
ROOT
ATOM      1  C   UNL A   1     -26.220  -4.448  29.718  0.00  0.00    -0.000 A 
ATOM      2  C   UNL A   1     -25.947  -3.272  29.656  0.00  0.00    -0.004 A 
ATOM      3  C   UNL A   1     -24.874  -2.725  29.160  0.00  0.00    -0.018 A 
ATOM      4  C   UNL A   1     -23.867  -3.586  28.627  0.00  0.00    -0.004 A 
ATOM      5  C   UNL A   1     -24.173  -4.905  28.604  0.00  0.00    -0.000 A 
ATOM      6  C   UNL A   1     -25.357  -5.378  29.108  0.00  0.00    -0.000 A 
ENDROOT
BRANCH   3   7
ATOM      7  C   UNL A   1     -24.365  -1.338  29.229  0.00  0.00    +0.052 C 
BRANCH   7   8
ATOM      8  C   UNL A   1     -23.035  -1.156  29.072  0.00  0.00    -0.026 C 
ATOM      9  C   UNL A   1     -22.470   0.040  28.585  0.00  0.00    -0.030 C 
ATOM     10  C   UNL A   1     -21.040   0.167  28.481  0.00  0.00    +0.030 C 
ENDBRANCH   7   8
ENDBRANCH   3   7
TORSDOF 2
ENDMDL
ENDMDL
