REMARK  Name = No_3376-gen_results/8p0m/2024-11-26-14-13-15/
REMARK  2 active torsions:
REMARK  status: ('A' for Active; 'I' for Inactive)
REMARK    1  A    between atoms: C_3  and  C_7
REMARK    2  A    between atoms: C_7  and  C_8
REMARK                            x       y       z     vdW  Elec       q    Type
REMARK                         _______ _______ _______ _____ _____    ______ ____
ROOT
ATOM      1  C   UNL A   1     -28.016  -0.814  28.878  0.00  0.00    -0.000 A 
ATOM      2  C   UNL A   1     -27.064  -0.119  28.608  0.00  0.00    -0.004 A 
ATOM      3  C   UNL A   1     -26.876   1.133  28.913  0.00  0.00    -0.018 A 
ATOM      4  C   UNL A   1     -27.901   1.807  29.644  0.00  0.00    -0.004 A 
ATOM      5  C   UNL A   1     -28.945   1.039  30.036  0.00  0.00    -0.000 A 
ATOM      6  C   UNL A   1     -29.027  -0.289  29.705  0.00  0.00    -0.000 A 
ENDROOT
BRANCH   3   7
ATOM      7  C   UNL A   1     -25.863   2.107  28.453  0.00  0.00    +0.052 C 
BRANCH   7   8
ATOM      8  C   UNL A   1     -24.777   1.619  27.814  0.00  0.00    -0.026 C 
ATOM      9  C   UNL A   1     -23.808   2.438  27.198  0.00  0.00    -0.030 C 
ATOM     10  C   UNL A   1     -22.660   1.840  26.568  0.00  0.00    +0.030 C 
ENDBRANCH   7   8
ENDBRANCH   3   7
TORSDOF 2
