MODEL 3377
MODEL 1
REMARK VINA RESULT:    -6.445      0.000      0.000
REMARK INTER + INTRA:          -7.907
REMARK INTER:                  -7.576
REMARK INTRA:                  -0.331
REMARK UNBOUND:                -0.331
REMARK  Name = No_3377-gen_results/8p0m/2024-11-26-14-13-15/
REMARK  3 active torsions:
REMARK  status: ('A' for Active; 'I' for Inactive)
REMARK    1  A    between atoms: C_2  and  C_7
REMARK    2  A    between atoms: C_7  and  C_13
REMARK    3  A    between atoms: C_8  and  C_9
REMARK                            x       y       z     vdW  Elec       q    Type
REMARK                         _______ _______ _______ _____ _____    ______ ____
ROOT
ATOM      1  C   UNL A   1     -23.805  -1.778  29.833  0.00  0.00    +0.075 C 
ATOM      2  C   UNL A   1     -24.085  -1.852  31.019  0.00  0.00    +0.079 C 
ENDROOT
BRANCH   1   4
ATOM      3  C   UNL A   1     -21.730  -0.829  29.095  0.00  0.00    -0.000 A 
ATOM      4  C   UNL A   1     -22.939  -0.804  29.115  0.00  0.00    +0.004 A 
ATOM      5  C   UNL A   1     -23.649   0.169  28.421  0.00  0.00    -0.000 A 
ATOM      6  C   UNL A   1     -22.966   1.208  27.694  0.00  0.00    -0.000 A 
ATOM      7  C   UNL A   1     -21.569   1.118  27.743  0.00  0.00    -0.000 A 
ATOM      8  C   UNL A   1     -20.945   0.187  28.428  0.00  0.00    -0.000 A 
ENDBRANCH   1   4
BRANCH   2   9
ATOM      9  C   UNL A   1     -23.481  -0.795  31.943  0.00  0.00    +0.418 C 
ATOM     10  F   UNL A   1     -24.114  -0.793  33.070  0.00  0.00    -0.166 F 
ATOM     11  F   UNL A   1     -23.757   0.518  31.457  0.00  0.00    -0.166 F 
ATOM     12  F   UNL A   1     -22.213  -0.979  32.152  0.00  0.00    -0.166 F 
ENDBRANCH   2   9
BRANCH   1  13
ATOM     13  C   UNL A   1     -24.287  -2.905  28.851  0.00  0.00    +0.418 C 
ATOM     14  F   UNL A   1     -25.242  -2.687  28.492  0.00  0.00    -0.166 F 
ATOM     15  F   UNL A   1     -23.525  -3.783  28.496  0.00  0.00    -0.166 F 
ATOM     16  F   UNL A   1     -24.980  -3.603  29.538  0.00  0.00    -0.166 F 
ENDBRANCH   1  13
TORSDOF 3
ENDMDL
ENDMDL
