MODEL 3378
MODEL 1
REMARK VINA RESULT:    -6.587      0.000      0.000
REMARK INTER + INTRA:          -7.320
REMARK INTER:                  -6.972
REMARK INTRA:                  -0.348
REMARK UNBOUND:                -0.348
REMARK  Name = No_3378-gen_results/8p0m/2024-11-26-14-13-15/
REMARK  1 active torsions:
REMARK  status: ('A' for Active; 'I' for Inactive)
REMARK    1  A    between atoms: C_2  and  C_7
REMARK                            x       y       z     vdW  Elec       q    Type
REMARK                         _______ _______ _______ _____ _____    ______ ____
ROOT
ATOM      1  C   UNL A   1     -25.717  -2.528  29.513  0.00  0.00    +0.000 A 
ATOM      2  C   UNL A   1     -24.603  -2.522  29.042  0.00  0.00    +0.000 A 
ATOM      3  C   UNL A   1     -23.964  -3.706  28.693  0.00  0.00    +0.000 A 
ATOM      4  C   UNL A   1     -24.591  -4.982  28.924  0.00  0.00    +0.000 A 
ATOM      5  C   UNL A   1     -25.868  -4.899  29.494  0.00  0.00    +0.000 A 
ATOM      6  C   UNL A   1     -26.422  -3.753  29.821  0.00  0.00    +0.000 A 
ENDROOT
BRANCH   2   7
ATOM      7  C   UNL A   1     -23.798  -1.303  28.761  0.00  0.00    +0.000 A 
ATOM      8  C   UNL A   1     -22.571  -1.170  29.124  0.00  0.00    +0.000 A 
ATOM      9  C   UNL A   1     -21.739  -0.052  28.881  0.00  0.00    +0.000 A 
ATOM     10  C   UNL A   1     -22.243   0.947  27.996  0.00  0.00    +0.000 A 
ATOM     11  C   UNL A   1     -23.503   0.793  27.488  0.00  0.00    +0.000 A 
ATOM     12  C   UNL A   1     -24.317  -0.325  27.843  0.00  0.00    +0.000 A 
ENDBRANCH   2   7
TORSDOF 1
ENDMDL
ENDMDL
