MODEL 3379
MODEL 1
REMARK VINA RESULT:    -7.927      0.000      0.000
REMARK INTER + INTRA:         -14.321
REMARK INTER:                 -11.171
REMARK INTRA:                  -3.150
REMARK UNBOUND:                -3.150
REMARK  Name = No_3379-gen_results/8p0m/2024-11-26-14-13-15/
REMARK  7 active torsions:
REMARK  status: ('A' for Active; 'I' for Inactive)
REMARK    1  A    between atoms: C_6  and  C_18
REMARK    2  A    between atoms: N_16  and  C_17
REMARK    3  A    between atoms: C_17  and  C_19
REMARK    4  A    between atoms: C_18  and  C_20
REMARK    5  A    between atoms: C_19  and  C_26
REMARK    6  A    between atoms: C_19  and  C_32
REMARK    7  A    between atoms: C_33  and  C_34
REMARK                            x       y       z     vdW  Elec       q    Type
REMARK                         _______ _______ _______ _____ _____    ______ ____
ROOT
ATOM      1  O   UNL A   1     -22.116  -1.490  32.791  0.00  0.00    -0.296 OA
ATOM      2  C   UNL A   1     -23.218  -1.218  32.301  0.00  0.00    +0.151 C 
ATOM      3  C   UNL A   1     -24.289  -1.028  32.639  0.00  0.00    +0.066 C 
ATOM      4  C   UNL A   1     -25.476  -0.459  31.896  0.00  0.00    +0.026 C 
ATOM      5  C   UNL A   1     -25.250  -0.228  30.567  0.00  0.00    +0.074 C 
ATOM      6  C   UNL A   1     -23.994  -0.419  30.063  0.00  0.00    +0.030 C 
ATOM      7  C   UNL A   1     -23.025  -0.887  30.738  0.00  0.00    +0.067 C 
ATOM      8  C   UNL A   1     -26.822  -0.284  32.443  0.00  0.00    +0.007 C 
ATOM      9  C   UNL A   1     -27.474   0.937  32.269  0.00  0.00    +0.028 C 
ATOM     10  C   UNL A   1     -26.827   1.999  31.628  0.00  0.00    -0.009 A 
ATOM     11  C   UNL A   1     -27.256   3.300  31.801  0.00  0.00    -0.003 A 
ATOM     12  C   UNL A   1     -26.543   4.186  32.335  0.00  0.00    -0.000 A 
ATOM     13  C   UNL A   1     -25.062   4.081  32.149  0.00  0.00    +0.001 A 
ATOM     14  C   UNL A   1     -24.562   2.817  31.826  0.00  0.00    +0.014 A 
ATOM     15  C   UNL A   1     -25.386   1.876  31.507  0.00  0.00    +0.044 A 
ATOM     16  N   UNL A   1     -25.262   0.856  30.781  0.00  0.00    -0.309 N 
ENDROOT
BRANCH  16  17
ATOM     17  C   UNL A   1     -24.741   1.558  29.360  0.00  0.00    +0.099 C 
BRANCH  17  18
ATOM     18  C   UNL A   1     -25.651   2.028  28.467  0.00  0.00    +0.064 C 
BRANCH  18  19
ATOM     19  C   UNL A   1     -25.701   1.284  27.219  0.00  0.00    -0.017 A 
ATOM     20  C   UNL A   1     -26.574   0.716  26.797  0.00  0.00    -0.004 A 
ATOM     21  C   UNL A   1     -26.666   0.006  25.489  0.00  0.00    -0.000 A 
ATOM     22  C   UNL A   1     -25.553   0.021  24.732  0.00  0.00    -0.000 A 
ATOM     23  C   UNL A   1     -24.392   0.703  25.148  0.00  0.00    -0.000 A 
ATOM     24  C   UNL A   1     -24.469   1.425  26.386  0.00  0.00    -0.004 A 
ENDBRANCH  18  19
BRANCH  18  25
ATOM     25  C   UNL A   1     -25.321   3.505  28.062  0.00  0.00    -0.020 C 
ATOM     26  C   UNL A   1     -26.424   4.452  28.126  0.00  0.00    -0.004 C 
BRANCH  26  27
ATOM     27  C   UNL A   1     -26.197   5.735  27.772  0.00  0.00    -0.000 C 
ATOM     28  C   UNL A   1     -25.017   6.084  27.213  0.00  0.00    -0.000 C 
ENDBRANCH  26  27
ENDBRANCH  18  25
ENDBRANCH  17  18
ENDBRANCH  16  17
BRANCH   6  29
ATOM     29  C   UNL A   1     -24.152  -1.375  28.754  0.00  0.00    +0.028 C 
BRANCH  29  30
ATOM     30  C   UNL A   1     -24.681  -2.648  28.992  0.00  0.00    -0.022 A 
ATOM     31  C   UNL A   1     -23.900  -3.716  28.630  0.00  0.00    -0.004 A 
ATOM     32  C   UNL A   1     -24.279  -5.041  28.790  0.00  0.00    -0.000 A 
ATOM     33  C   UNL A   1     -25.537  -5.248  29.321  0.00  0.00    -0.000 A 
ATOM     34  C   UNL A   1     -26.345  -4.171  29.690  0.00  0.00    -0.000 A 
ATOM     35  C   UNL A   1     -25.919  -2.886  29.517  0.00  0.00    -0.004 A 
ENDBRANCH  29  30
ENDBRANCH   6  29
TORSDOF 7
ENDMDL
ENDMDL
