REMARK  Name = No_3379-gen_results/8p0m/2024-11-26-14-13-15/
REMARK  7 active torsions:
REMARK  status: ('A' for Active; 'I' for Inactive)
REMARK    1  A    between atoms: C_6  and  C_18
REMARK    2  A    between atoms: N_16  and  C_17
REMARK    3  A    between atoms: C_17  and  C_19
REMARK    4  A    between atoms: C_18  and  C_20
REMARK    5  A    between atoms: C_19  and  C_26
REMARK    6  A    between atoms: C_19  and  C_32
REMARK    7  A    between atoms: C_33  and  C_34
REMARK                            x       y       z     vdW  Elec       q    Type
REMARK                         _______ _______ _______ _____ _____    ______ ____
ROOT
ATOM      1  O   UNL A   1     -28.123  -1.335  28.487  0.00  0.00    -0.296 OA
ATOM      2  C   UNL A   1     -27.064  -0.824  28.869  0.00  0.00    +0.151 C 
ATOM      3  C   UNL A   1     -25.946  -1.040  28.849  0.00  0.00    +0.066 C 
ATOM      4  C   UNL A   1     -24.760  -0.156  29.164  0.00  0.00    +0.026 C 
ATOM      5  C   UNL A   1     -25.092   1.079  29.649  0.00  0.00    +0.074 C 
ATOM      6  C   UNL A   1     -26.409   1.438  29.707  0.00  0.00    +0.030 C 
ATOM      7  C   UNL A   1     -27.369   0.659  29.415  0.00  0.00    +0.067 C 
ATOM      8  C   UNL A   1     -23.356  -0.564  29.121  0.00  0.00    +0.007 C 
ATOM      9  C   UNL A   1     -22.432   0.242  28.455  0.00  0.00    +0.028 C 
ATOM     10  C   UNL A   1     -22.854   1.398  27.789  0.00  0.00    -0.009 A 
ATOM     11  C   UNL A   1     -22.076   1.973  26.804  0.00  0.00    -0.003 A 
ATOM     12  C   UNL A   1     -22.450   2.065  25.608  0.00  0.00    -0.000 A 
ATOM     13  C   UNL A   1     -23.917   2.221  25.358  0.00  0.00    +0.001 A 
ATOM     14  C   UNL A   1     -24.773   1.793  26.375  0.00  0.00    +0.014 A 
ATOM     15  C   UNL A   1     -24.278   1.489  27.528  0.00  0.00    +0.044 A 
ATOM     16  N   UNL A   1     -24.764   1.515  28.688  0.00  0.00    -0.309 N 
ENDROOT
BRANCH  16  17
ATOM     17  C   UNL A   1     -25.265   3.104  28.771  0.00  0.00    +0.099 C 
BRANCH  17  18
ATOM     18  C   UNL A   1     -25.945   3.652  27.730  0.00  0.00    +0.064 C 
BRANCH  18  19
ATOM     19  C   UNL A   1     -25.954   5.106  27.722  0.00  0.00    -0.017 A 
ATOM     20  C   UNL A   1     -26.475   5.790  28.445  0.00  0.00    -0.004 A 
ATOM     21  C   UNL A   1     -26.440   7.279  28.494  0.00  0.00    -0.000 A 
ATOM     22  C   UNL A   1     -25.718   7.882  27.530  0.00  0.00    -0.000 A 
ATOM     23  C   UNL A   1     -25.013   7.135  26.565  0.00  0.00    -0.000 A 
ATOM     24  C   UNL A   1     -25.056   5.706  26.690  0.00  0.00    -0.004 A 
ENDBRANCH  18  19
BRANCH  18  25
ATOM     25  C   UNL A   1     -27.452   3.223  27.762  0.00  0.00    -0.020 C 
ATOM     26  C   UNL A   1     -28.037   2.828  26.490  0.00  0.00    -0.004 C 
BRANCH  26  27
ATOM     27  C   UNL A   1     -29.336   2.465  26.459  0.00  0.00    -0.000 C 
ATOM     28  C   UNL A   1     -29.809   1.732  25.426  0.00  0.00    -0.000 C 
ENDBRANCH  26  27
ENDBRANCH  18  25
ENDBRANCH  17  18
ENDBRANCH  16  17
BRANCH   6  29
ATOM     29  C   UNL A   1     -26.687   1.969  31.221  0.00  0.00    +0.028 C 
BRANCH  29  30
ATOM     30  C   UNL A   1     -27.759   2.856  31.366  0.00  0.00    -0.022 A 
ATOM     31  C   UNL A   1     -27.921   3.428  32.603  0.00  0.00    -0.004 A 
ATOM     32  C   UNL A   1     -28.936   4.321  32.915  0.00  0.00    -0.000 A 
ATOM     33  C   UNL A   1     -29.830   4.597  31.899  0.00  0.00    -0.000 A 
ATOM     34  C   UNL A   1     -29.680   4.019  30.637  0.00  0.00    -0.000 A 
ATOM     35  C   UNL A   1     -28.658   3.152  30.382  0.00  0.00    -0.004 A 
ENDBRANCH  29  30
ENDBRANCH   6  29
TORSDOF 7
