MODEL 337
MODEL 1
REMARK VINA RESULT:    -7.886      0.000      0.000
REMARK INTER + INTRA:         -11.062
REMARK INTER:                 -10.191
REMARK INTRA:                  -0.871
REMARK UNBOUND:                -0.871
REMARK  Name = No_337-gen_results/8p0m/2024-11-26-14-13-15/
REMARK  5 active torsions:
REMARK  status: ('A' for Active; 'I' for Inactive)
REMARK    1  A    between atoms: C_2  and  N_6
REMARK    2  A    between atoms: C_3  and  C_15
REMARK    3  A    between atoms: C_5  and  C_21
REMARK    4  A    between atoms: C_5  and  C_22
REMARK    5  A    between atoms: C_22  and  C_23
REMARK                            x       y       z     vdW  Elec       q    Type
REMARK                         _______ _______ _______ _____ _____    ______ ____
ROOT
ATOM      1  C   UNL A   1     -26.159  -0.737  28.124  0.00  0.00    +0.024 C 
ATOM      2  C   UNL A   1     -25.967   0.107  27.524  0.00  0.00    +0.076 C 
ATOM      3  C   UNL A   1     -24.965  -1.277  28.775  0.00  0.00    +0.024 C 
ATOM      4  C   UNL A   1     -24.395  -0.649  29.666  0.00  0.00    +0.005 C 
ATOM      5  C   UNL A   1     -23.913   0.755  29.175  0.00  0.00    +0.010 C 
ATOM      6  C   UNL A   1     -25.009   1.358  27.972  0.00  0.00    +0.020 C 
ENDROOT
BRANCH   2   7
ATOM      7  N   UNL A   1     -26.868   0.782  26.674  0.00  0.00    -0.272 N 
ATOM      8  C   UNL A   1     -26.800   0.565  25.338  0.00  0.00    +0.304 C 
ATOM      9  O   UNL A   1     -25.882  -0.112  25.016  0.00  0.00    -0.265 OA
ATOM     10  C   UNL A   1     -27.828   1.139  24.485  0.00  0.00    +0.319 C 
ATOM     11  C   UNL A   1     -28.037   1.668  27.184  0.00  0.00    +0.117 C 
ATOM     12  O   UNL A   1     -27.725   0.893  23.322  0.00  0.00    -0.263 OA
ATOM     13  N   UNL A   1     -28.814   1.900  24.972  0.00  0.00    -0.196 NA
ATOM     14  C   UNL A   1     -28.920   2.209  26.359  0.00  0.00    +0.137 C 
ENDBRANCH   2   7
BRANCH   3  15
ATOM     15  C   UNL A   1     -25.013  -2.798  29.032  0.00  0.00    -0.022 A 
ATOM     16  C   UNL A   1     -24.001  -3.597  28.688  0.00  0.00    -0.004 A 
ATOM     17  C   UNL A   1     -24.018  -4.890  28.532  0.00  0.00    -0.000 A 
ATOM     18  C   UNL A   1     -26.137  -3.457  29.616  0.00  0.00    -0.004 A 
ATOM     19  C   UNL A   1     -26.208  -4.809  29.656  0.00  0.00    -0.000 A 
ATOM     20  C   UNL A   1     -25.111  -5.552  29.175  0.00  0.00    -0.000 A 
ENDBRANCH   3  15
BRANCH   5  21
ATOM     21  C   UNL A   1     -23.767   1.715  30.275  0.00  0.00    +0.000 C 
ATOM     22  C   UNL A   1     -24.287   1.533  31.555  0.00  0.00    +0.000 C 
ENDBRANCH   5  21
BRANCH   5  23
ATOM     23  C   UNL A   1     -22.589   0.540  28.359  0.00  0.00    +0.103 C 
BRANCH  23  24
ATOM     24  C   UNL A   1     -21.726   0.003  28.949  0.00  0.00    +0.398 C 
ATOM     25  F   UNL A   1     -21.714   0.004  30.208  0.00  0.00    -0.170 F 
ATOM     26  F   UNL A   1     -21.640  -1.374  28.664  0.00  0.00    -0.170 F 
ATOM     27  F   UNL A   1     -20.317   0.308  28.560  0.00  0.00    -0.170 F 
ENDBRANCH  23  24
ENDBRANCH   5  23
TORSDOF 5
ENDMDL
ENDMDL
