REMARK  Name = No_3380-gen_results/8p0m/2024-11-26-14-13-15/
REMARK  5 active torsions:
REMARK  status: ('A' for Active; 'I' for Inactive)
REMARK    1  A    between atoms: C_1  and  C_2
REMARK    2  A    between atoms: C_1  and  C_8
REMARK    3  A    between atoms: C_5  and  C_10
REMARK    4  A    between atoms: C_9  and  C_13
REMARK    5  A    between atoms: C_15  and  C_24
REMARK                            x       y       z     vdW  Elec       q    Type
REMARK                         _______ _______ _______ _____ _____    ______ ____
ROOT
ATOM      1  C   UNL A   1     -28.694  -0.473  30.159  0.00  0.00    -0.018 A 
ATOM      2  C   UNL A   1     -29.787  -1.325  30.637  0.00  0.00    -0.004 A 
ATOM      3  C   UNL A   1     -28.456   0.827  30.800  0.00  0.00    -0.004 A 
ATOM      4  C   UNL A   1     -28.897   0.970  32.038  0.00  0.00    -0.000 A 
ATOM      5  C   UNL A   1     -29.921   0.153  32.522  0.00  0.00    -0.000 A 
ATOM      6  C   UNL A   1     -30.270  -0.916  31.898  0.00  0.00    -0.000 A 
ENDROOT
BRANCH   2   7
ATOM      7  C   UNL A   1     -30.002  -2.292  30.096  0.00  0.00    -0.000 A 
ATOM      8  C   UNL A   1     -31.200  -3.045  30.579  0.00  0.00    +0.004 A 
ATOM      9  C   UNL A   1     -31.549  -4.277  29.926  0.00  0.00    +0.071 A 
ATOM     10  C   UNL A   1     -30.591  -4.942  29.195  0.00  0.00    +0.004 A 
ATOM     11  C   UNL A   1     -29.285  -4.473  29.184  0.00  0.00    -0.000 A 
ATOM     12  C   UNL A   1     -28.951  -3.241  29.733  0.00  0.00    -0.000 A 
BRANCH   9  13
ATOM     13  C   UNL A   1     -32.868  -4.881  30.049  0.00  0.00    +0.419 C 
ATOM     14  F   UNL A   1     -33.657  -4.648  30.938  0.00  0.00    -0.166 F 
ATOM     15  F   UNL A   1     -33.372  -4.755  28.933  0.00  0.00    -0.166 F 
ATOM     16  F   UNL A   1     -32.623  -6.247  30.200  0.00  0.00    -0.166 F 
ENDBRANCH   9  13
ENDBRANCH   2   7
BRANCH   1  17
ATOM     17  C   UNL A   1     -28.016  -0.814  28.878  0.00  0.00    +0.055 C 
BRANCH  17  18
ATOM     18  C   UNL A   1     -27.064  -0.119  28.608  0.00  0.00    +0.010 A 
ATOM     19  C   UNL A   1     -26.972   0.714  27.506  0.00  0.00    +0.137 A 
ATOM     20  C   UNL A   1     -25.821   1.491  27.116  0.00  0.00    +0.036 A 
ATOM     21  C   UNL A   1     -24.656   1.424  27.918  0.00  0.00    +0.082 A 
ATOM     22  C   UNL A   1     -24.685   0.590  29.066  0.00  0.00    +0.006 A 
ATOM     23  C   UNL A   1     -25.810  -0.127  29.334  0.00  0.00    -0.002 A 
ATOM     24  F   UNL A   1     -28.001   0.725  26.690  0.00  0.00    -0.204 F 
BRANCH  21  25
ATOM     25  C   UNL A   1     -23.452   2.189  27.608  0.00  0.00    +0.388 C 
ATOM     26  O   UNL A   1     -22.579   2.258  28.496  0.00  0.00    -0.241 OA
ATOM     27  O   UNL A   1     -23.396   2.828  26.493  0.00  0.00    -0.241 OA
ENDBRANCH  21  25
ENDBRANCH  17  18
ENDBRANCH   1  17
TORSDOF 5
