MODEL 3380
MODEL 1
REMARK VINA RESULT:    -8.155      0.000      0.000
REMARK INTER + INTRA:         -12.541
REMARK INTER:                 -10.538
REMARK INTRA:                  -2.003
REMARK UNBOUND:                -2.003
REMARK  Name = No_3380-gen_results/8p0m/2024-11-26-14-13-15/
REMARK  5 active torsions:
REMARK  status: ('A' for Active; 'I' for Inactive)
REMARK    1  A    between atoms: C_1  and  C_2
REMARK    2  A    between atoms: C_1  and  C_8
REMARK    3  A    between atoms: C_5  and  C_10
REMARK    4  A    between atoms: C_9  and  C_13
REMARK    5  A    between atoms: C_15  and  C_24
REMARK                            x       y       z     vdW  Elec       q    Type
REMARK                         _______ _______ _______ _____ _____    ______ ____
ROOT
ATOM      1  C   UNL A   1     -25.272  -1.399  30.363  0.00  0.00    -0.018 A 
ATOM      2  C   UNL A   1     -24.404  -1.542  29.190  0.00  0.00    -0.004 A 
ATOM      3  C   UNL A   1     -26.344  -2.375  30.594  0.00  0.00    -0.004 A 
ATOM      4  C   UNL A   1     -26.196  -3.565  30.037  0.00  0.00    -0.000 A 
ATOM      5  C   UNL A   1     -25.356  -3.729  28.934  0.00  0.00    -0.000 A 
ATOM      6  C   UNL A   1     -24.510  -2.820  28.601  0.00  0.00    -0.000 A 
ENDROOT
BRANCH   2   7
ATOM      7  C   UNL A   1     -23.625  -0.751  28.986  0.00  0.00    -0.000 A 
ATOM      8  C   UNL A   1     -23.817   0.030  27.726  0.00  0.00    +0.004 A 
ATOM      9  C   UNL A   1     -22.876   1.069  27.408  0.00  0.00    +0.071 A 
ATOM     10  C   UNL A   1     -21.634   1.051  28.002  0.00  0.00    +0.004 A 
ATOM     11  C   UNL A   1     -21.273  -0.017  28.811  0.00  0.00    -0.000 A 
ATOM     12  C   UNL A   1     -22.197  -0.980  29.198  0.00  0.00    -0.000 A 
BRANCH   9  13
ATOM     13  C   UNL A   1     -23.165   2.117  26.440  0.00  0.00    +0.419 C 
ATOM     14  F   UNL A   1     -23.711   3.167  26.698  0.00  0.00    -0.166 F 
ATOM     15  F   UNL A   1     -22.106   2.278  25.833  0.00  0.00    -0.166 F 
ATOM     16  F   UNL A   1     -24.038   1.527  25.525  0.00  0.00    -0.166 F 
ENDBRANCH   9  13
ENDBRANCH   2   7
BRANCH   1  17
ATOM     17  C   UNL A   1     -25.223  -0.136  31.150  0.00  0.00    +0.055 C 
BRANCH  17  18
ATOM     18  C   UNL A   1     -25.201  -0.287  32.349  0.00  0.00    +0.010 A 
ATOM     19  C   UNL A   1     -24.155  -0.848  33.063  0.00  0.00    +0.137 A 
ATOM     20  C   UNL A   1     -24.133  -1.114  34.480  0.00  0.00    +0.036 A 
ATOM     21  C   UNL A   1     -25.273  -0.777  35.249  0.00  0.00    +0.082 A 
ATOM     22  C   UNL A   1     -26.380  -0.195  34.579  0.00  0.00    +0.006 A 
ATOM     23  C   UNL A   1     -26.315  -0.010  33.233  0.00  0.00    -0.002 A 
ATOM     24  F   UNL A   1     -23.121  -1.259  32.364  0.00  0.00    -0.204 F 
BRANCH  21  25
ATOM     25  C   UNL A   1     -25.332  -0.995  36.692  0.00  0.00    +0.388 C 
ATOM     26  O   UNL A   1     -26.434  -1.329  37.171  0.00  0.00    -0.241 OA
ATOM     27  O   UNL A   1     -24.288  -0.738  37.398  0.00  0.00    -0.241 OA
ENDBRANCH  21  25
ENDBRANCH  17  18
ENDBRANCH   1  17
TORSDOF 5
ENDMDL
ENDMDL
