MODEL 3381
MODEL 1
REMARK VINA RESULT:    -7.105      0.000      0.000
REMARK INTER + INTRA:          -7.889
REMARK INTER:                  -7.520
REMARK INTRA:                  -0.369
REMARK UNBOUND:                -0.369
REMARK  Name = No_3381-gen_results/8p0m/2024-11-26-14-13-15/
REMARK  1 active torsions:
REMARK  status: ('A' for Active; 'I' for Inactive)
REMARK    1  A    between atoms: C_3  and  C_8
REMARK                            x       y       z     vdW  Elec       q    Type
REMARK                         _______ _______ _______ _____ _____    ______ ____
ROOT
ATOM      1  C   UNL A   1     -23.832   0.513  27.278  0.00  0.00    +0.041 A 
ATOM      2  C   UNL A   1     -24.487  -0.443  27.625  0.00  0.00    +0.141 A 
ATOM      3  C   UNL A   1     -24.091  -1.325  28.629  0.00  0.00    +0.028 A 
ATOM      4  C   UNL A   1     -22.802  -1.139  29.266  0.00  0.00    +0.003 A 
ATOM      5  C   UNL A   1     -22.090  -0.008  28.803  0.00  0.00    +0.011 A 
ATOM      6  C   UNL A   1     -22.541   0.762  27.847  0.00  0.00    +0.060 A 
ATOM      7 CL   UNL A   1     -21.457   2.057  27.448  0.00  0.00    -0.082 Cl
ATOM      8  F   UNL A   1     -25.738  -0.672  27.109  0.00  0.00    -0.204 F 
ENDROOT
BRANCH   3   9
ATOM      9  C   UNL A   1     -24.865  -2.525  29.107  0.00  0.00    +0.004 A 
ATOM     10  C   UNL A   1     -24.538  -3.763  28.754  0.00  0.00    +0.030 A 
ATOM     11  C   UNL A   1     -25.341  -4.871  29.160  0.00  0.00    +0.140 A 
ATOM     12  C   UNL A   1     -26.526  -4.737  29.817  0.00  0.00    +0.030 A 
ATOM     13  C   UNL A   1     -26.136  -2.364  29.786  0.00  0.00    +0.000 A 
ATOM     14  C   UNL A   1     -26.938  -3.470  30.140  0.00  0.00    +0.002 A 
ATOM     15  F   UNL A   1     -24.893  -6.113  28.814  0.00  0.00    -0.204 F 
ENDBRANCH   3   9
TORSDOF 1
ENDMDL
ENDMDL
