REMARK  Name = No_3381-gen_results/8p0m/2024-11-26-14-13-15/
REMARK  1 active torsions:
REMARK  status: ('A' for Active; 'I' for Inactive)
REMARK    1  A    between atoms: C_3  and  C_8
REMARK                            x       y       z     vdW  Elec       q    Type
REMARK                         _______ _______ _______ _____ _____    ______ ____
ROOT
ATOM      1  C   UNL A   1     -28.016  -0.814  28.878  0.00  0.00    +0.041 A 
ATOM      2  C   UNL A   1     -27.064  -0.119  28.608  0.00  0.00    +0.141 A 
ATOM      3  C   UNL A   1     -25.765  -0.390  29.036  0.00  0.00    +0.028 A 
ATOM      4  C   UNL A   1     -25.530  -1.530  29.901  0.00  0.00    +0.003 A 
ATOM      5  C   UNL A   1     -26.689  -2.289  30.181  0.00  0.00    +0.011 A 
ATOM      6  C   UNL A   1     -27.873  -1.951  29.737  0.00  0.00    +0.060 A 
ATOM      7 CL   UNL A   1     -29.127  -3.033  30.255  0.00  0.00    -0.082 Cl
ATOM      8  F   UNL A   1     -27.185   0.954  27.760  0.00  0.00    -0.204 F 
ENDROOT
BRANCH   3   9
ATOM      9  C   UNL A   1     -24.542   0.432  28.727  0.00  0.00    +0.004 A 
ATOM     10  C   UNL A   1     -24.496   1.271  27.699  0.00  0.00    +0.030 A 
ATOM     11  C   UNL A   1     -23.294   1.974  27.387  0.00  0.00    +0.140 A 
ATOM     12  C   UNL A   1     -22.111   1.756  28.025  0.00  0.00    +0.030 A 
ATOM     13  C   UNL A   1     -23.285   0.171  29.401  0.00  0.00    +0.000 A 
ATOM     14  C   UNL A   1     -22.096   0.844  29.049  0.00  0.00    +0.002 A 
ATOM     15  F   UNL A   1     -23.355   2.870  26.359  0.00  0.00    -0.204 F 
ENDBRANCH   3   9
TORSDOF 1
