MODEL 3382
MODEL 1
REMARK VINA RESULT:    -6.341      0.000      0.000
REMARK INTER + INTRA:          -6.341
REMARK INTER:                  -6.341
REMARK INTRA:                   0.000
REMARK UNBOUND:                 0.000
REMARK  Name = No_3382-gen_results/8p0m/2024-11-26-14-13-15/
REMARK  0 active torsions:
REMARK  status: ('A' for Active; 'I' for Inactive)
REMARK                            x       y       z     vdW  Elec       q    Type
REMARK                         _______ _______ _______ _____ _____    ______ ____
ROOT
ATOM      1  C   UNL A   1     -30.588 -10.139  28.624  0.00  0.00    +0.012 A 
ATOM      2  C   UNL A   1     -30.216 -10.130  29.775  0.00  0.00    +0.011 A 
ATOM      3  C   UNL A   1     -29.458 -11.174  30.293  0.00  0.00    +0.001 A 
ATOM      4  C   UNL A   1     -29.130 -12.322  29.487  0.00  0.00    +0.001 A 
ATOM      5  C   UNL A   1     -29.619 -12.261  28.176  0.00  0.00    +0.011 A 
ATOM      6  C   UNL A   1     -30.347 -11.258  27.740  0.00  0.00    +0.058 A 
ATOM      7  C   UNL A   1     -30.648  -9.004  30.603  0.00  0.00    +0.058 A 
ATOM      8  C   UNL A   1     -30.290  -9.022  31.918  0.00  0.00    +0.011 A 
ATOM      9  C   UNL A   1     -29.434 -10.129  32.464  0.00  0.00    +0.001 A 
ATOM     10  C   UNL A   1     -29.070 -11.190  31.694  0.00  0.00    +0.003 A 
ATOM     11  C   UNL A   1     -28.243 -12.252  32.289  0.00  0.00    +0.042 A 
ATOM     12  C   UNL A   1     -27.339 -12.005  33.246  0.00  0.00    +0.196 A 
ATOM     13  C   UNL A   1     -27.609 -10.873  34.117  0.00  0.00    +0.042 A 
ATOM     14  C   UNL A   1     -28.731  -9.910  33.799  0.00  0.00    +0.003 A 
ATOM     15 CL   UNL A   1     -31.505  -7.737  30.035  0.00  0.00    -0.082 Cl
ATOM     16 CL   UNL A   1     -30.901 -11.245  26.119  0.00  0.00    -0.082 Cl
ATOM     17  O   UNL A   1     -26.465 -12.648  33.795  0.00  0.00    -0.287 OA
ENDROOT
TORSDOF 0
ENDMDL
ENDMDL
