REMARK  Name = No_3382-gen_results/8p0m/2024-11-26-14-13-15/
REMARK  0 active torsions:
REMARK  status: ('A' for Active; 'I' for Inactive)
REMARK                            x       y       z     vdW  Elec       q    Type
REMARK                         _______ _______ _______ _____ _____    ______ ____
ROOT
ATOM      1  C   UNL A   1     -28.016  -0.814  28.878  0.00  0.00    +0.012 A 
ATOM      2  C   UNL A   1     -27.064  -0.119  28.608  0.00  0.00    +0.011 A 
ATOM      3  C   UNL A   1     -25.792  -0.430  29.076  0.00  0.00    +0.001 A 
ATOM      4  C   UNL A   1     -25.576  -1.565  29.936  0.00  0.00    +0.001 A 
ATOM      5  C   UNL A   1     -26.735  -2.300  30.217  0.00  0.00    +0.011 A 
ATOM      6  C   UNL A   1     -27.918  -1.954  29.763  0.00  0.00    +0.058 A 
ATOM      7  C   UNL A   1     -27.324   1.085  27.819  0.00  0.00    +0.058 A 
ATOM      8  C   UNL A   1     -26.267   1.909  27.570  0.00  0.00    +0.011 A 
ATOM      9  C   UNL A   1     -24.887   1.548  28.039  0.00  0.00    +0.001 A 
ATOM     10  C   UNL A   1     -24.663   0.445  28.804  0.00  0.00    +0.003 A 
ATOM     11  C   UNL A   1     -23.291   0.151  29.247  0.00  0.00    +0.042 A 
ATOM     12  C   UNL A   1     -22.217   0.465  28.510  0.00  0.00    +0.196 A 
ATOM     13  C   UNL A   1     -22.348   1.615  27.630  0.00  0.00    +0.042 A 
ATOM     14  C   UNL A   1     -23.697   2.261  27.407  0.00  0.00    +0.003 A 
ATOM     15 CL   UNL A   1     -28.789   1.475  27.215  0.00  0.00    -0.082 Cl
ATOM     16 CL   UNL A   1     -29.290  -2.909  30.138  0.00  0.00    -0.082 Cl
ATOM     17  O   UNL A   1     -21.027   0.227  28.574  0.00  0.00    -0.287 OA
ENDROOT
TORSDOF 0
