REMARK  Name = No_3383-gen_results/8p0m/2024-11-26-14-13-15/
REMARK  8 active torsions:
REMARK  status: ('A' for Active; 'I' for Inactive)
REMARK    1  A    between atoms: C_2  and  O_7
REMARK    2  A    between atoms: C_6  and  C_14
REMARK    3  A    between atoms: O_7  and  C_8
REMARK    4  A    between atoms: C_16  and  C_19
REMARK    5  A    between atoms: C_17  and  C_18
REMARK    6  A    between atoms: C_19  and  O_29
REMARK    7  A    between atoms: O_29  and  C_30
REMARK    8  A    between atoms: C_30  and  C_31
REMARK                            x       y       z     vdW  Elec       q    Type
REMARK                         _______ _______ _______ _____ _____    ______ ____
ROOT
ATOM      1  C   UNL A   1     -30.137   1.521  30.984  0.00  0.00    +0.085 C 
ATOM      2 BR   UNL A   1     -31.274   1.056  30.868  0.00  0.00    -0.077 Br
ATOM      3  C   UNL A   1     -29.578   1.602  32.411  0.00  0.00    +0.117 C 
ATOM      4  C   UNL A   1     -30.025   3.066  30.515  0.00  0.00    +0.058 C 
ATOM      5  C   UNL A   1     -29.479   2.821  33.169  0.00  0.00    +0.038 C 
ATOM      6  C   UNL A   1     -29.185   4.021  31.204  0.00  0.00    -0.025 C 
ATOM      7  C   UNL A   1     -28.658   4.062  32.119  0.00  0.00    -0.030 C 
ENDROOT
BRANCH   1  13
ATOM      8  C   UNL A   1     -28.016  -0.814  28.878  0.00  0.00    +0.037 A 
ATOM      9  C   UNL A   1     -27.064  -0.119  28.608  0.00  0.00    +0.145 A 
ATOM     10  C   UNL A   1     -26.929   1.171  29.008  0.00  0.00    +0.037 A 
ATOM     11  C   UNL A   1     -27.956   1.741  29.784  0.00  0.00    -0.000 A 
ATOM     12  C   UNL A   1     -29.057  -0.327  29.747  0.00  0.00    -0.000 A 
ATOM     13  C   UNL A   1     -28.983   0.972  30.152  0.00  0.00    -0.012 A 
BRANCH   9  14
ATOM     14  O   UNL A   1     -25.983  -0.607  27.864  0.00  0.00    -0.454 OA
BRANCH  14  15
ATOM     15  C   UNL A   1     -24.887  -1.140  28.602  0.00  0.00    +0.145 A 
ATOM     16  C   UNL A   1     -23.952  -0.666  28.716  0.00  0.00    +0.037 A 
ATOM     17  C   UNL A   1     -25.213  -2.393  29.275  0.00  0.00    +0.037 A 
ATOM     18  C   UNL A   1     -22.818  -1.198  29.487  0.00  0.00    +0.003 A 
ATOM     19  C   UNL A   1     -24.237  -3.028  29.960  0.00  0.00    +0.003 A 
ATOM     20  C   UNL A   1     -23.033  -2.379  30.145  0.00  0.00    +0.000 A 
ENDBRANCH  14  15
ENDBRANCH   9  14
ENDBRANCH   1  13
BRANCH   4  21
ATOM     21  C   UNL A   1     -30.732   3.464  29.521  0.00  0.00    -0.017 A 
ATOM     22  C   UNL A   1     -31.954   3.395  29.349  0.00  0.00    -0.004 A 
ATOM     23  C   UNL A   1     -29.907   3.584  28.271  0.00  0.00    -0.004 A 
ATOM     24  C   UNL A   1     -30.507   3.895  27.073  0.00  0.00    -0.000 A 
ATOM     25  C   UNL A   1     -32.664   3.827  28.171  0.00  0.00    -0.000 A 
ATOM     26  C   UNL A   1     -31.879   4.057  27.048  0.00  0.00    -0.000 A 
ENDBRANCH   4  21
BRANCH   3  27
ATOM     27  C   UNL A   1     -29.236   0.514  33.030  0.00  0.00    +0.318 C 
ATOM     28  O   UNL A   1     -28.483   0.185  33.632  0.00  0.00    -0.250 OA
BRANCH  27  29
ATOM     29  O   UNL A   1     -30.139  -0.590  32.740  0.00  0.00    -0.440 OA
BRANCH  29  30
ATOM     30  C   UNL A   1     -30.026  -1.651  33.641  0.00  0.00    +0.280 C 
BRANCH  30  31
ATOM     31  C   UNL A   1     -29.946  -2.922  32.830  0.00  0.00    +0.255 C 
ATOM     32  O   UNL A   1     -29.228  -2.909  31.883  0.00  0.00    -0.284 OA
ENDBRANCH  30  31
ENDBRANCH  29  30
ENDBRANCH  27  29
ENDBRANCH   3  27
TORSDOF 8
