MODEL 3383
MODEL 1
REMARK VINA RESULT:    -7.360      0.000      0.000
REMARK INTER + INTRA:         -11.713
REMARK INTER:                 -10.802
REMARK INTRA:                  -0.911
REMARK UNBOUND:                -0.911
REMARK  Name = No_3383-gen_results/8p0m/2024-11-26-14-13-15/
REMARK  8 active torsions:
REMARK  status: ('A' for Active; 'I' for Inactive)
REMARK    1  A    between atoms: C_2  and  O_7
REMARK    2  A    between atoms: C_6  and  C_14
REMARK    3  A    between atoms: O_7  and  C_8
REMARK    4  A    between atoms: C_16  and  C_19
REMARK    5  A    between atoms: C_17  and  C_18
REMARK    6  A    between atoms: C_19  and  O_29
REMARK    7  A    between atoms: O_29  and  C_30
REMARK    8  A    between atoms: C_30  and  C_31
REMARK                            x       y       z     vdW  Elec       q    Type
REMARK                         _______ _______ _______ _____ _____    ______ ____
ROOT
ATOM      1  C   UNL A   1     -25.068  -0.157  29.016  0.00  0.00    +0.085 C 
ATOM      2 BR   UNL A   1     -25.953  -0.314  28.171  0.00  0.00    -0.077 Br
ATOM      3  C   UNL A   1     -23.997   0.894  28.692  0.00  0.00    +0.117 C 
ATOM      4  C   UNL A   1     -24.156  -1.475  29.242  0.00  0.00    +0.058 C 
ATOM      5  C   UNL A   1     -22.662   0.576  28.260  0.00  0.00    +0.038 C 
ATOM      6  C   UNL A   1     -22.732  -1.394  29.486  0.00  0.00    -0.025 C 
ATOM      7  C   UNL A   1     -21.982  -0.653  29.420  0.00  0.00    -0.030 C 
ENDROOT
BRANCH   1  13
ATOM      8  C   UNL A   1     -27.082   0.397  32.182  0.00  0.00    +0.037 A 
ATOM      9  C   UNL A   1     -26.217   0.471  33.024  0.00  0.00    +0.145 A 
ATOM     10  C   UNL A   1     -24.891   0.344  32.763  0.00  0.00    +0.037 A 
ATOM     11  C   UNL A   1     -24.491   0.113  31.433  0.00  0.00    -0.000 A 
ATOM     12  C   UNL A   1     -26.740   0.258  30.790  0.00  0.00    -0.000 A 
ATOM     13  C   UNL A   1     -25.423   0.097  30.477  0.00  0.00    -0.012 A 
BRANCH   9  14
ATOM     14  O   UNL A   1     -26.517   0.725  34.368  0.00  0.00    -0.454 OA
BRANCH  14  15
ATOM     15  C   UNL A   1     -26.784  -0.409  35.189  0.00  0.00    +0.145 A 
ATOM     16  C   UNL A   1     -27.705  -0.921  35.225  0.00  0.00    +0.037 A 
ATOM     17  C   UNL A   1     -25.611  -0.860  35.931  0.00  0.00    +0.037 A 
ATOM     18  C   UNL A   1     -27.989  -2.101  36.056  0.00  0.00    +0.003 A 
ATOM     19  C   UNL A   1     -25.753  -1.893  36.791  0.00  0.00    +0.003 A 
ATOM     20  C   UNL A   1     -26.945  -2.588  36.795  0.00  0.00    +0.000 A 
ENDBRANCH  14  15
ENDBRANCH   9  14
ENDBRANCH   1  13
BRANCH   4  21
ATOM     21  C   UNL A   1     -24.708  -2.630  29.167  0.00  0.00    -0.017 A 
ATOM     22  C   UNL A   1     -25.682  -3.077  29.784  0.00  0.00    -0.004 A 
ATOM     23  C   UNL A   1     -23.761  -3.659  28.617  0.00  0.00    -0.004 A 
ATOM     24  C   UNL A   1     -24.134  -4.982  28.559  0.00  0.00    -0.000 A 
ATOM     25  C   UNL A   1     -26.209  -4.414  29.671  0.00  0.00    -0.000 A 
ATOM     26  C   UNL A   1     -25.377  -5.337  29.049  0.00  0.00    -0.000 A 
ENDBRANCH   4  21
BRANCH   3  27
ATOM     27  C   UNL A   1     -24.303   2.154  28.725  0.00  0.00    +0.318 C 
ATOM     28  O   UNL A   1     -24.976   2.763  29.189  0.00  0.00    -0.250 OA
BRANCH  27  29
ATOM     29  O   UNL A   1     -23.516   2.936  27.783  0.00  0.00    -0.440 OA
BRANCH  29  30
ATOM     30  C   UNL A   1     -24.263   3.435  26.714  0.00  0.00    +0.280 C 
BRANCH  30  31
ATOM     31  C   UNL A   1     -23.917   2.609  25.499  0.00  0.00    +0.255 C 
ATOM     32  O   UNL A   1     -22.778   2.610  25.157  0.00  0.00    -0.284 OA
ENDBRANCH  30  31
ENDBRANCH  29  30
ENDBRANCH  27  29
ENDBRANCH   3  27
TORSDOF 8
ENDMDL
ENDMDL
