REMARK  Name = No_3384-gen_results/8p0m/2024-11-26-14-13-15/
REMARK  5 active torsions:
REMARK  status: ('A' for Active; 'I' for Inactive)
REMARK    1  A    between atoms: C_1  and  C_2
REMARK    2  A    between atoms: C_1  and  N_8
REMARK    3  A    between atoms: C_3  and  O_24
REMARK    4  A    between atoms: C_13  and  C_20
REMARK    5  A    between atoms: O_24  and  C_25
REMARK                            x       y       z     vdW  Elec       q    Type
REMARK                         _______ _______ _______ _____ _____    ______ ____
ROOT
ATOM      1  C   UNL A   1     -27.064  -0.119  28.608  0.00  0.00    +0.040 A 
ATOM      2  C   UNL A   1     -25.792  -0.430  29.076  0.00  0.00    +0.146 A 
ATOM      3  C   UNL A   1     -24.546   0.349  28.823  0.00  0.00    +0.063 A 
ATOM      4  C   UNL A   1     -24.659   1.420  27.888  0.00  0.00    +0.017 A 
ATOM      5  C   UNL A   1     -25.947   1.681  27.379  0.00  0.00    +0.068 A 
ATOM      6  C   UNL A   1     -27.044   0.974  27.687  0.00  0.00    +0.069 A 
ATOM      7  C   UNL A   1     -23.449   2.134  27.550  0.00  0.00    +0.001 A 
ATOM      8  C   UNL A   1     -22.178   1.664  28.078  0.00  0.00    +0.002 A 
ATOM      9  C   UNL A   1     -22.143   0.591  28.976  0.00  0.00    +0.030 A 
ATOM     10  C   UNL A   1     -23.295  -0.084  29.340  0.00  0.00    +0.143 A 
ATOM     11 CL   UNL A   1     -28.543   1.433  26.974  0.00  0.00    -0.082 Cl
ATOM     12  F   UNL A   1     -23.228  -1.119  30.122  0.00  0.00    -0.204 F 
ATOM     13 CL   UNL A   1     -26.010   3.050  26.290  0.00  0.00    -0.081 Cl
ENDROOT
BRANCH   1  14
ATOM     14  C   UNL A   1     -28.016  -0.814  28.878  0.00  0.00    +0.103 C 
BRANCH  14  15
ATOM     15  N   UNL A   1     -28.657  -0.553  30.096  0.00  0.00    -0.269 NA
ATOM     16  C   UNL A   1     -28.584   0.251  30.738  0.00  0.00    +0.073 C 
ATOM     17  C   UNL A   1     -29.370   0.237  32.098  0.00  0.00    +0.029 C 
ATOM     18  C   UNL A   1     -29.478  -1.804  30.604  0.00  0.00    +0.073 C 
ATOM     19  C   UNL A   1     -30.174  -1.788  31.707  0.00  0.00    +0.029 C 
ATOM     20  C   UNL A   1     -30.052  -0.684  32.528  0.00  0.00    +0.106 C 
BRANCH  20  21
ATOM     21  C   UNL A   1     -30.833  -0.639  33.809  0.00  0.00    +0.364 C 
ATOM     22  O   UNL A   1     -30.678   0.198  34.580  0.00  0.00    -0.246 OA
ATOM     23  O   UNL A   1     -31.619  -1.665  34.006  0.00  0.00    -0.246 OA
ENDBRANCH  20  21
ENDBRANCH  14  15
ENDBRANCH   1  14
BRANCH   2  24
ATOM     24  O   UNL A   1     -25.647  -1.407  29.930  0.00  0.00    -0.451 OA
BRANCH  24  25
ATOM     25  C   UNL A   1     -26.360  -2.551  29.755  0.00  0.00    +0.177 C 
ATOM     26  C   UNL A   1     -25.380  -3.743  29.537  0.00  0.00    +0.036 C 
ATOM     27  C   UNL A   1     -25.934  -4.999  29.350  0.00  0.00    +0.092 C 
ATOM     28  N   UNL A   1     -24.951  -5.876  28.996  0.00  0.00    -0.269 NA
ATOM     29  C   UNL A   1     -24.191  -3.686  28.850  0.00  0.00    +0.057 C 
ATOM     30  C   UNL A   1     -23.890  -5.061  28.640  0.00  0.00    +0.130 C 
ENDBRANCH  24  25
ENDBRANCH   2  24
TORSDOF 5
