REMARK  Name = No_3385-gen_results/8p0m/2024-11-26-14-13-15/
REMARK  2 active torsions:
REMARK  status: ('A' for Active; 'I' for Inactive)
REMARK    1  A    between atoms: C_3  and  C_11
REMARK    2  A    between atoms: C_5  and  C_7
REMARK                            x       y       z     vdW  Elec       q    Type
REMARK                         _______ _______ _______ _____ _____    ______ ____
ROOT
ATOM      1  C   UNL A   1     -28.016  -0.814  28.878  0.00  0.00    +0.000 A 
ATOM      2  C   UNL A   1     -27.064  -0.119  28.608  0.00  0.00    +0.004 A 
ATOM      3  C   UNL A   1     -26.972   0.714  27.506  0.00  0.00    +0.053 A 
ATOM      4  C   UNL A   1     -28.105   0.774  26.642  0.00  0.00    +0.008 A 
ATOM      5  C   UNL A   1     -29.201   0.104  27.053  0.00  0.00    +0.072 A 
ATOM      6  C   UNL A   1     -29.210  -0.603  28.185  0.00  0.00    +0.004 A 
ENDROOT
BRANCH   3   7
ATOM      7  C   UNL A   1     -25.677   1.410  27.115  0.00  0.00    +0.249 C 
ATOM      8  O   UNL A   1     -24.661   0.903  27.404  0.00  0.00    -0.270 OA
ATOM      9  N   UNL A   1     -25.748   2.568  26.427  0.00  0.00    -0.273 N 
ATOM     10  C   UNL A   1     -24.575   3.339  26.108  0.00  0.00    +0.115 C 
ATOM     11  C   UNL A   1     -26.992   3.236  26.039  0.00  0.00    +0.115 C 
ENDBRANCH   3   7
BRANCH   5  12
ATOM     12  C   UNL A   1     -30.375   0.223  26.167  0.00  0.00    +0.419 C 
ATOM     13  F   UNL A   1     -30.869   1.309  26.162  0.00  0.00    -0.166 F 
ATOM     14  F   UNL A   1     -31.321  -0.666  26.659  0.00  0.00    -0.166 F 
ATOM     15  F   UNL A   1     -30.099  -0.218  24.919  0.00  0.00    -0.166 F 
ENDBRANCH   5  12
TORSDOF 2
