MODEL 3386
MODEL 1
REMARK VINA RESULT:    -5.240      0.000      0.000
REMARK INTER + INTRA:          -6.733
REMARK INTER:                  -6.465
REMARK INTRA:                  -0.267
REMARK UNBOUND:                -0.267
REMARK  Name = No_3386-gen_results/8p0m/2024-11-26-14-13-15/
REMARK  4 active torsions:
REMARK  status: ('A' for Active; 'I' for Inactive)
REMARK    1  A    between atoms: C_1  and  C_2
REMARK    2  A    between atoms: C_1  and  N_8
REMARK    3  A    between atoms: C_5  and  C_10
REMARK    4  A    between atoms: N_8  and  C_9
REMARK                            x       y       z     vdW  Elec       q    Type
REMARK                         _______ _______ _______ _____ _____    ______ ____
ROOT
ATOM      1  C   UNL A   1     -29.695 -10.622  30.331  0.00  0.00    -0.001 A 
ATOM      2  C   UNL A   1     -29.879 -10.046  31.546  0.00  0.00    -0.002 A 
ATOM      3  C   UNL A   1     -29.091 -10.367  32.757  0.00  0.00    +0.006 A 
ATOM      4  C   UNL A   1     -28.081 -11.376  32.625  0.00  0.00    +0.080 A 
ATOM      5  C   UNL A   1     -27.969 -12.003  31.364  0.00  0.00    +0.006 A 
ATOM      6  C   UNL A   1     -28.736 -11.652  30.283  0.00  0.00    -0.002 A 
ENDROOT
BRANCH   4   7
ATOM      7  C   UNL A   1     -27.277 -11.809  33.737  0.00  0.00    +0.388 C 
ATOM      8  O   UNL A   1     -26.615 -12.773  33.800  0.00  0.00    -0.241 OA
ATOM      9  O   UNL A   1     -26.911 -10.745  34.555  0.00  0.00    -0.241 OA
ENDBRANCH   4   7
BRANCH   1  10
ATOM     10  C   UNL A   1     -30.347 -10.352  29.349  0.00  0.00    +0.139 C 
BRANCH  10  11
ATOM     11  N   UNL A   1     -30.571 -11.237  28.465  0.00  0.00    -0.232 NA
BRANCH  11  12
ATOM     12  C   UNL A   1     -30.402 -10.960  27.104  0.00  0.00    +0.081 C 
ATOM     13  C   UNL A   1     -29.468 -11.635  26.333  0.00  0.00    +0.019 C 
ENDBRANCH  11  12
ENDBRANCH  10  11
ENDBRANCH   1  10
TORSDOF 4
ENDMDL
ENDMDL
