REMARK  Name = No_3387-gen_results/8p0m/2024-11-26-14-13-15/
REMARK  4 active torsions:
REMARK  status: ('A' for Active; 'I' for Inactive)
REMARK    1  A    between atoms: C_1  and  C_2
REMARK    2  A    between atoms: C_1  and  C_8
REMARK    3  A    between atoms: C_5  and  C_11
REMARK    4  A    between atoms: C_11  and  N_12
REMARK                            x       y       z     vdW  Elec       q    Type
REMARK                         _______ _______ _______ _____ _____    ______ ____
ROOT
ATOM      1  C   UNL A   1     -27.064  -0.119  28.608  0.00  0.00    -0.013 A 
ATOM      2  C   UNL A   1     -27.001   0.691  27.491  0.00  0.00    -0.004 A 
ATOM      3  C   UNL A   1     -25.777   1.021  26.913  0.00  0.00    +0.004 A 
ATOM      4  C   UNL A   1     -24.509   0.736  27.569  0.00  0.00    +0.055 A 
ATOM      5  C   UNL A   1     -24.593  -0.036  28.739  0.00  0.00    +0.004 A 
ATOM      6  C   UNL A   1     -25.811  -0.477  29.158  0.00  0.00    -0.004 A 
ENDROOT
BRANCH   4   7
ATOM      7  C   UNL A   1     -23.264   1.335  27.098  0.00  0.00    +0.269 C 
ATOM      8  O   UNL A   1     -23.236   2.029  26.044  0.00  0.00    -0.268 OA
BRANCH   7   9
ATOM      9  N   UNL A   1     -22.189   1.308  27.877  0.00  0.00    -0.173 NA
ATOM     10  C   UNL A   1     -22.054   0.684  29.090  0.00  0.00    +0.107 C 
ENDBRANCH   7   9
ENDBRANCH   4   7
BRANCH   1  11
ATOM     11  C   UNL A   1     -28.016  -0.814  28.878  0.00  0.00    +0.112 C 
BRANCH  11  12
ATOM     12  C   UNL A   1     -28.641  -0.402  30.194  0.00  0.00    +0.230 C 
ATOM     13  O   UNL A   1     -28.547   0.558  30.680  0.00  0.00    -0.275 OA
ATOM     14  N   UNL A   1     -29.335  -1.530  30.879  0.00  0.00    -0.279 N 
ATOM     15  C   UNL A   1     -29.552  -2.784  30.388  0.00  0.00    +0.093 C 
ATOM     16  C   UNL A   1     -30.272  -3.612  31.194  0.00  0.00    +0.022 C 
ATOM     17  C   UNL A   1     -30.608  -3.294  32.314  0.00  0.00    +0.004 C 
ATOM     18  C   UNL A   1     -30.388  -2.044  32.918  0.00  0.00    +0.022 C 
ATOM     19  C   UNL A   1     -29.742  -1.129  32.167  0.00  0.00    +0.093 C 
ENDBRANCH  11  12
ENDBRANCH   1  11
TORSDOF 4
