REMARK  Name = No_3388-gen_results/8p0m/2024-11-26-14-13-15/
REMARK  1 active torsions:
REMARK  status: ('A' for Active; 'I' for Inactive)
REMARK    1  A    between atoms: C_8  and  C_11
REMARK                            x       y       z     vdW  Elec       q    Type
REMARK                         _______ _______ _______ _____ _____    ______ ____
ROOT
ATOM      1  C   UNL A   1     -28.016  -0.814  28.878  0.00  0.00    -0.000 A 
ATOM      2  C   UNL A   1     -27.064  -0.119  28.608  0.00  0.00    -0.000 A 
ATOM      3  C   UNL A   1     -25.765  -0.390  29.036  0.00  0.00    -0.000 A 
ATOM      4  C   UNL A   1     -25.530  -1.530  29.901  0.00  0.00    -0.000 A 
ATOM      5  C   UNL A   1     -26.658  -2.292  30.203  0.00  0.00    -0.000 A 
ATOM      6  C   UNL A   1     -27.855  -1.956  29.763  0.00  0.00    -0.000 A 
ATOM      7  C   UNL A   1     -24.544   0.413  28.738  0.00  0.00    +0.004 A 
ATOM      8  C   UNL A   1     -23.323   0.048  29.050  0.00  0.00    +0.071 A 
ATOM      9  C   UNL A   1     -23.202  -1.237  29.757  0.00  0.00    +0.004 A 
ATOM     10  C   UNL A   1     -24.226  -1.965  30.212  0.00  0.00    -0.000 A 
ENDROOT
BRANCH   8  11
ATOM     11  C   UNL A   1     -22.114   0.774  28.721  0.00  0.00    +0.419 C 
ATOM     12  F   UNL A   1     -21.090   0.299  29.101  0.00  0.00    -0.166 F 
ATOM     13  F   UNL A   1     -22.075   2.029  29.184  0.00  0.00    -0.166 F 
ATOM     14  F   UNL A   1     -22.105   0.938  27.346  0.00  0.00    -0.166 F 
ENDBRANCH   8  11
TORSDOF 1
