MODEL 3389
MODEL 1
REMARK VINA RESULT:    -7.852      0.000      0.000
REMARK INTER + INTRA:         -14.058
REMARK INTER:                 -11.983
REMARK INTRA:                  -2.076
REMARK UNBOUND:                -2.076
REMARK  Name = No_3389-gen_results/8p0m/2024-11-26-14-13-15/
REMARK  9 active torsions:
REMARK  status: ('A' for Active; 'I' for Inactive)
REMARK    1  A    between atoms: C_1  and  O_14
REMARK    2  A    between atoms: C_2  and  C_8
REMARK    3  A    between atoms: C_4  and  C_23
REMARK    4  A    between atoms: C_10  and  N_22
REMARK    5  A    between atoms: O_14  and  C_15
REMARK    6  A    between atoms: C_15  and  C_16
REMARK    7  A    between atoms: N_22  and  C_27
REMARK    8  A    between atoms: C_27  and  N_28
REMARK    9  A    between atoms: N_28  and  C_29
REMARK                            x       y       z     vdW  Elec       q    Type
REMARK                         _______ _______ _______ _____ _____    ______ ____
ROOT
ATOM      1  C   UNL A   1     -26.261   2.965  26.167  0.00  0.00    +0.146 A 
ATOM      2  C   UNL A   1     -25.531   3.223  27.095  0.00  0.00    +0.052 A 
ATOM      3  C   UNL A   1     -25.647   4.363  27.866  0.00  0.00    +0.008 A 
ATOM      4  C   UNL A   1     -26.711   5.261  27.572  0.00  0.00    +0.064 A 
ATOM      5  C   UNL A   1     -27.599   4.846  26.640  0.00  0.00    +0.063 A 
ATOM      6  C   UNL A   1     -27.431   3.717  25.978  0.00  0.00    +0.048 A 
ATOM      7 CL   UNL A   1     -28.899   5.897  26.318  0.00  0.00    -0.082 Cl
ENDROOT
BRANCH   2   8
ATOM      8  C   UNL A   1     -24.243   2.369  27.399  0.00  0.00    +0.086 A 
ATOM      9  N   UNL A   1     -24.119   1.679  28.444  0.00  0.00    -0.229 NA
ATOM     10  C   UNL A   1     -23.088   1.047  28.902  0.00  0.00    +0.149 A 
ATOM     11  C   UNL A   1     -21.973   1.006  28.115  0.00  0.00    +0.036 A 
ATOM     12  C   UNL A   1     -23.118   2.462  26.554  0.00  0.00    +0.019 A 
ATOM     13  C   UNL A   1     -21.941   1.727  26.876  0.00  0.00    +0.004 A 
BRANCH  10  14
ATOM     14  N   UNL A   1     -23.060   0.259  29.990  0.00  0.00    -0.196 NA
BRANCH  14  15
ATOM     15  C   UNL A   1     -22.751  -1.101  29.927  0.00  0.00    +0.225 C 
BRANCH  15  16
ATOM     16  N   UNL A   1     -23.086  -1.890  28.901  0.00  0.00    -0.214 NA
BRANCH  16  17
ATOM     17  C   UNL A   1     -24.181  -2.711  28.845  0.00  0.00    +0.067 A 
ATOM     18  C   UNL A   1     -25.306  -2.514  29.755  0.00  0.00    +0.016 A 
ATOM     19  C   UNL A   1     -26.344  -3.495  29.881  0.00  0.00    +0.001 A 
ATOM     20  C   UNL A   1     -26.032  -4.827  29.603  0.00  0.00    +0.000 A 
ATOM     21  C   UNL A   1     -24.757  -5.147  28.996  0.00  0.00    +0.001 A 
ATOM     22  C   UNL A   1     -24.011  -4.116  28.550  0.00  0.00    +0.016 A 
ENDBRANCH  16  17
ENDBRANCH  15  16
ENDBRANCH  14  15
ENDBRANCH  10  14
ENDBRANCH   2   8
BRANCH   4  23
ATOM     23  C   UNL A   1     -26.846   6.445  28.389  0.00  0.00    +0.351 C 
ATOM     24  F   UNL A   1     -25.880   6.564  29.171  0.00  0.00    -0.182 F 
ATOM     25  F   UNL A   1     -26.783   7.543  27.586  0.00  0.00    -0.182 F 
ATOM     26 CL   UNL A   1     -28.325   6.433  29.317  0.00  0.00    -0.042 Cl
ENDBRANCH   4  23
BRANCH   1  27
ATOM     27  O   UNL A   1     -26.138   1.826  25.378  0.00  0.00    -0.424 OA
BRANCH  27  28
ATOM     28  C   UNL A   1     -26.503   0.722  25.300  0.00  0.00    +0.500 C 
ATOM     29  F   UNL A   1     -27.375   0.711  24.233  0.00  0.00    -0.156 F 
ATOM     30  F   UNL A   1     -27.430   0.683  26.318  0.00  0.00    -0.156 F 
BRANCH  28  31
ATOM     31  C   UNL A   1     -25.641  -0.306  25.272  0.00  0.00    +0.497 C 
ATOM     32  F   UNL A   1     -25.092  -0.667  26.313  0.00  0.00    -0.162 F 
ATOM     33  F   UNL A   1     -26.023  -1.275  24.474  0.00  0.00    -0.162 F 
ATOM     34  F   UNL A   1     -24.464   0.118  24.530  0.00  0.00    -0.162 F 
ENDBRANCH  28  31
ENDBRANCH  27  28
ENDBRANCH   1  27
TORSDOF 9
ENDMDL
ENDMDL
