MODEL 338
MODEL 1
REMARK VINA RESULT:    -4.773      0.000      0.000
REMARK INTER + INTRA:          -4.773
REMARK INTER:                  -4.773
REMARK INTRA:                   0.000
REMARK UNBOUND:                 0.000
REMARK  Name = No_338-gen_results/8p0m/2024-11-26-14-13-15/
REMARK  0 active torsions:
REMARK  status: ('A' for Active; 'I' for Inactive)
REMARK                            x       y       z     vdW  Elec       q    Type
REMARK                         _______ _______ _______ _____ _____    ______ ____
ROOT
ATOM      1  C   UNL A   1     -10.282  -9.030  19.676  0.00  0.00    -0.000 A 
ATOM      2  C   UNL A   1      -9.414  -9.180  20.255  0.00  0.00    -0.004 A 
ATOM      3  C   UNL A   1     -10.266  -9.754  18.399  0.00  0.00    -0.000 A 
ATOM      4  C   UNL A   1      -9.181 -10.384  17.946  0.00  0.00    -0.000 A 
ATOM      5  C   UNL A   1      -8.135  -9.787  19.977  0.00  0.00    -0.022 A 
ATOM      6  C   UNL A   1      -7.009  -9.818  20.850  0.00  0.00    +0.031 C 
ATOM      7  C   UNL A   1      -8.144 -10.421  18.774  0.00  0.00    -0.004 A 
ENDROOT
TORSDOF 0
ENDMDL
ENDMDL
