REMARK  Name = No_339-gen_results/8p0m/2024-11-26-14-13-15/
REMARK  7 active torsions:
REMARK  status: ('A' for Active; 'I' for Inactive)
REMARK    1  A    between atoms: C_1  and  C_3
REMARK    2  A    between atoms: C_3  and  C_4
REMARK    3  A    between atoms: C_4  and  C_5
REMARK    4  A    between atoms: C_4  and  C_20
REMARK    5  A    between atoms: C_5  and  C_6
REMARK    6  A    between atoms: C_6  and  C_7
REMARK    7  A    between atoms: C_16  and  O_17
REMARK                            x       y       z     vdW  Elec       q    Type
REMARK                         _______ _______ _______ _____ _____    ______ ____
ROOT
ATOM      1  C   UNL A   1     -26.439   0.833  26.614  0.00  0.00    +0.019 C 
ATOM      2  C   UNL A   1     -26.495   2.249  25.781  0.00  0.00    +0.001 C 
ENDROOT
BRANCH   1   3
ATOM      3  C   UNL A   1     -25.214   0.662  26.702  0.00  0.00    +0.026 C 
ATOM      4  C   UNL A   1     -24.475   0.500  25.431  0.00  0.00    +0.005 C 
BRANCH   3   5
ATOM      5  C   UNL A   1     -24.398   0.043  27.700  0.00  0.00    +0.007 A 
ATOM      6  C   UNL A   1     -23.227   0.534  28.227  0.00  0.00    -0.023 A 
ATOM      7  C   UNL A   1     -22.541  -0.125  29.295  0.00  0.00    -0.004 A 
ATOM      8  C   UNL A   1     -23.063  -1.293  29.796  0.00  0.00    +0.003 A 
ATOM      9  C   UNL A   1     -24.129  -1.902  29.278  0.00  0.00    +0.037 A 
ATOM     10  C   UNL A   1     -24.853  -1.200  28.235  0.00  0.00    +0.134 A 
ATOM     11  C   UNL A   1     -22.623   1.798  27.764  0.00  0.00    +0.031 C 
BRANCH  10  12
ATOM     12  O   UNL A   1     -24.965  -1.948  27.156  0.00  0.00    -0.472 OA
ATOM     13  C   UNL A   1     -24.154  -2.695  26.719  0.00  0.00    +0.253 C 
ENDBRANCH  10  12
ENDBRANCH   3   5
ENDBRANCH   1   3
BRANCH   1  14
ATOM     14  C   UNL A   1     -27.442   0.510  26.795  0.00  0.00    +0.127 C 
BRANCH  14  15
ATOM     15  C   UNL A   1     -28.196   0.348  28.055  0.00  0.00    +0.182 C 
ATOM     16  O   UNL A   1     -29.131   1.212  28.340  0.00  0.00    -0.291 OA
BRANCH  15  17
ATOM     17  C   UNL A   1     -28.016  -0.814  28.878  0.00  0.00    +0.063 A 
ATOM     18  C   UNL A   1     -28.469  -0.785  29.829  0.00  0.00    +0.005 A 
ATOM     19  C   UNL A   1     -28.212  -1.899  30.927  0.00  0.00    +0.000 A 
ATOM     20  C   UNL A   1     -27.337  -2.872  30.477  0.00  0.00    +0.002 A 
ATOM     21  C   UNL A   1     -26.597  -2.718  29.361  0.00  0.00    +0.030 A 
ATOM     22  C   UNL A   1     -26.795  -1.583  28.554  0.00  0.00    +0.143 A 
ATOM     23  F   UNL A   1     -26.743  -1.638  27.258  0.00  0.00    -0.204 F 
ENDBRANCH  15  17
ENDBRANCH  14  15
BRANCH  14  24
ATOM     24  C   UNL A   1     -28.449   0.125  25.776  0.00  0.00    +0.215 C 
ATOM     25  O   UNL A   1     -29.587   0.366  25.823  0.00  0.00    -0.288 OA
ENDBRANCH  14  24
ENDBRANCH   1  14
TORSDOF 7
