REMARK  Name = No_3390-gen_results/8p0m/2024-11-26-14-13-15/
REMARK  9 active torsions:
REMARK  status: ('A' for Active; 'I' for Inactive)
REMARK    1  A    between atoms: C_5  and  C_8
REMARK    2  A    between atoms: C_7  and  C_11
REMARK    3  A    between atoms: C_11  and  O_13
REMARK    4  A    between atoms: O_13  and  C_14
REMARK    5  A    between atoms: C_14  and  C_15
REMARK    6  A    between atoms: C_17  and  C_26
REMARK    7  A    between atoms: C_20  and  C_22
REMARK    8  A    between atoms: C_27  and  C_28
REMARK    9  A    between atoms: C_29  and  C_30
REMARK                            x       y       z     vdW  Elec       q    Type
REMARK                         _______ _______ _______ _____ _____    ______ ____
ROOT
ATOM      1  C   UNL A   1     -29.077   2.997  31.764  0.00  0.00    +0.025 A 
ATOM      2  C   UNL A   1     -29.487   2.801  32.916  0.00  0.00    +0.000 A 
ATOM      3  C   UNL A   1     -30.195   3.774  33.773  0.00  0.00    +0.010 A 
ATOM      4  C   UNL A   1     -30.417   5.021  33.127  0.00  0.00    +0.058 A 
ATOM      5  C   UNL A   1     -30.022   5.308  31.896  0.00  0.00    +0.015 A 
ATOM      6  C   UNL A   1     -29.269   4.312  31.116  0.00  0.00    +0.072 A 
ATOM      7 CL   UNL A   1     -31.241   6.197  34.095  0.00  0.00    -0.082 Cl
ENDROOT
BRANCH   6   8
ATOM      8  C   UNL A   1     -28.858   4.627  29.800  0.00  0.00    +0.418 C 
ATOM      9  F   UNL A   1     -29.336   5.514  29.358  0.00  0.00    -0.166 F 
ATOM     10  F   UNL A   1     -29.022   3.490  29.056  0.00  0.00    -0.166 F 
ATOM     11  F   UNL A   1     -27.461   4.798  29.841  0.00  0.00    -0.166 F 
ENDBRANCH   6   8
BRANCH   3  12
ATOM     12  C   UNL A   1     -30.637   3.438  35.118  0.00  0.00    +0.001 C 
ATOM     13  C   UNL A   1     -29.845   3.753  36.120  0.00  0.00    +0.000 C 
BRANCH  13  14
ATOM     14  C   UNL A   1     -28.512   4.221  35.971  0.00  0.00    +0.000 C 
ATOM     15  C   UNL A   1     -27.849   4.269  34.928  0.00  0.00    +0.000 C 
BRANCH  15  16
ATOM     16  C   UNL A   1     -26.424   4.793  35.063  0.00  0.00    +0.000 A 
ATOM     17  C   UNL A   1     -25.582   4.922  33.880  0.00  0.00    +0.000 A 
ATOM     18  C   UNL A   1     -24.531   5.781  33.929  0.00  0.00    +0.000 A 
ATOM     19  C   UNL A   1     -24.286   6.649  34.975  0.00  0.00    +0.000 A 
ATOM     20  C   UNL A   1     -25.070   6.555  36.086  0.00  0.00    +0.000 A 
ATOM     21  C   UNL A   1     -26.179   5.739  36.142  0.00  0.00    +0.000 A 
ENDBRANCH  15  16
ENDBRANCH  13  14
ENDBRANCH   3  12
BRANCH   1  22
ATOM     22  C   UNL A   1     -28.369   2.017  30.965  0.00  0.00    +0.235 C 
BRANCH  22  23
ATOM     23  O   UNL A   1     -28.125   1.011  31.480  0.00  0.00    -0.440 OA
BRANCH  23  24
ATOM     24  C   UNL A   1     -27.074   0.345  31.432  0.00  0.00    +0.342 C 
ATOM     25  O   UNL A   1     -26.605  -0.323  32.270  0.00  0.00    -0.245 OA
BRANCH  24  32
ATOM     26 CL   UNL A   1     -28.149  -0.820  28.908  0.00  0.00    -0.082 Cl
ATOM     27  C   UNL A   1     -26.912  -0.080  28.945  0.00  0.00    +0.064 A 
ATOM     28  C   UNL A   1     -26.049  -0.072  27.859  0.00  0.00    +0.012 A 
ATOM     29  C   UNL A   1     -24.719   0.403  27.917  0.00  0.00    +0.007 A 
ATOM     30  C   UNL A   1     -24.210   0.930  29.084  0.00  0.00    +0.080 A 
ATOM     31  C   UNL A   1     -25.023   0.908  30.188  0.00  0.00    +0.014 A 
ATOM     32  C   UNL A   1     -26.253   0.390  30.140  0.00  0.00    +0.086 A 
BRANCH  30  33
ATOM     33  C   UNL A   1     -22.850   1.448  29.059  0.00  0.00    +0.388 C 
ATOM     34  O   UNL A   1     -22.135   1.655  28.105  0.00  0.00    -0.241 OA
ATOM     35  O   UNL A   1     -22.352   1.662  30.323  0.00  0.00    -0.241 OA
ENDBRANCH  30  33
ENDBRANCH  24  32
ENDBRANCH  23  24
ENDBRANCH  22  23
ENDBRANCH   1  22
TORSDOF 9
