MODEL 3391
MODEL 1
REMARK VINA RESULT:    -6.810      0.000      0.000
REMARK INTER + INTRA:          -7.610
REMARK INTER:                  -7.208
REMARK INTRA:                  -0.402
REMARK UNBOUND:                -0.402
REMARK  Name = No_3391-gen_results/8p0m/2024-11-26-14-13-15/
REMARK  1 active torsions:
REMARK  status: ('A' for Active; 'I' for Inactive)
REMARK    1  A    between atoms: C_8  and  C_14
REMARK                            x       y       z     vdW  Elec       q    Type
REMARK                         _______ _______ _______ _____ _____    ______ ____
ROOT
ATOM      1  C   UNL A   1      -7.783   1.464  11.686  0.00  0.00    +0.036 C 
ATOM      2  C   UNL A   1      -8.338   1.343  10.619  0.00  0.00    +0.066 C 
ATOM      3  C   UNL A   1      -9.069   2.390  10.068  0.00  0.00    +0.029 C 
ATOM      4  C   UNL A   1     -10.185   2.593  10.149  0.00  0.00    -0.011 C 
ATOM      5  C   UNL A   1      -8.573   1.347  12.746  0.00  0.00    -0.030 C 
ATOM      6  C   UNL A   1      -9.922   2.073  12.865  0.00  0.00    -0.027 C 
ATOM      7  C   UNL A   1     -10.725   2.578  11.736  0.00  0.00    +0.045 C 
ATOM      8  C   UNL A   1      -7.516   0.758   9.402  0.00  0.00    +0.033 C 
ATOM      9  C   UNL A   1      -7.802   1.055   8.140  0.00  0.00    -0.024 C 
ATOM     10  C   UNL A   1      -8.572   2.237   7.925  0.00  0.00    +0.048 C 
ATOM     11  N   UNL A   1      -8.436   3.393   9.478  0.00  0.00    -0.293 N 
ATOM     12  C   UNL A   1      -8.197   3.671   8.167  0.00  0.00    +0.100 C 
ATOM     13  C   UNL A   1      -8.437   4.635  10.188  0.00  0.00    +0.029 C 
ATOM     14  C   UNL A   1      -7.503   5.595   9.976  0.00  0.00    +0.011 C 
ATOM     15  C   UNL A   1      -9.097   4.747  11.460  0.00  0.00    +0.042 C 
ATOM     16  C   UNL A   1     -10.489   4.190  11.877  0.00  0.00    +0.015 C 
ENDROOT
BRANCH   8  17
ATOM     17  C   UNL A   1      -6.625  -0.401   9.613  0.00  0.00    +0.245 C 
ATOM     18  N   UNL A   1      -5.450  -0.334   9.238  0.00  0.00    -0.273 N 
ATOM     19  C   UNL A   1      -4.559   0.329  10.051  0.00  0.00    +0.115 C 
ATOM     20  C   UNL A   1      -4.832  -1.126   8.162  0.00  0.00    +0.115 C 
ATOM     21  O   UNL A   1      -7.176  -1.473   9.810  0.00  0.00    -0.270 OA
ENDBRANCH   8  17
TORSDOF 1
ENDMDL
ENDMDL
