REMARK  Name = No_3391-gen_results/8p0m/2024-11-26-14-13-15/
REMARK  1 active torsions:
REMARK  status: ('A' for Active; 'I' for Inactive)
REMARK    1  A    between atoms: C_8  and  C_14
REMARK                            x       y       z     vdW  Elec       q    Type
REMARK                         _______ _______ _______ _____ _____    ______ ____
ROOT
ATOM      1  C   UNL A   1     -28.016  -0.814  28.878  0.00  0.00    +0.036 C 
ATOM      2  C   UNL A   1     -27.064  -0.119  28.608  0.00  0.00    +0.066 C 
ATOM      3  C   UNL A   1     -25.792  -0.430  29.076  0.00  0.00    +0.029 C 
ATOM      4  C   UNL A   1     -25.270  -0.049  30.012  0.00  0.00    -0.011 C 
ATOM      5  C   UNL A   1     -28.519  -0.630  30.092  0.00  0.00    -0.030 C 
ATOM      6  C   UNL A   1     -27.646  -0.565  31.356  0.00  0.00    -0.027 C 
ATOM      7  C   UNL A   1     -26.210  -0.230  31.388  0.00  0.00    +0.045 C 
ATOM      8  C   UNL A   1     -26.835   0.295  27.100  0.00  0.00    +0.033 C 
ATOM      9  C   UNL A   1     -25.632   0.573  26.612  0.00  0.00    -0.024 C 
ATOM     10  C   UNL A   1     -24.517   0.073  27.349  0.00  0.00    +0.048 C 
ATOM     11  N   UNL A   1     -25.093  -1.389  28.487  0.00  0.00    -0.293 N 
ATOM     12  C   UNL A   1     -24.087  -1.348  27.572  0.00  0.00    +0.100 C 
ATOM     13  C   UNL A   1     -24.948  -2.602  29.232  0.00  0.00    +0.029 C 
ATOM     14  C   UNL A   1     -24.676  -3.791  28.640  0.00  0.00    +0.011 C 
ATOM     15  C   UNL A   1     -25.539  -2.732  30.536  0.00  0.00    +0.042 C 
ATOM     16  C   UNL A   1     -25.552  -1.695  31.697  0.00  0.00    +0.015 C 
ENDROOT
BRANCH   8  17
ATOM     17  C   UNL A   1     -27.986   0.715  26.275  0.00  0.00    +0.245 C 
ATOM     18  N   UNL A   1     -28.952   1.258  26.819  0.00  0.00    -0.273 N 
ATOM     19  C   UNL A   1     -28.846   2.598  27.114  0.00  0.00    +0.115 C 
ATOM     20  C   UNL A   1     -30.313   0.708  26.932  0.00  0.00    +0.115 C 
ATOM     21  O   UNL A   1     -28.081   0.186  25.178  0.00  0.00    -0.270 OA
ENDBRANCH   8  17
TORSDOF 1
