MODEL 3392
MODEL 1
REMARK VINA RESULT:    -6.274      0.000      0.000
REMARK INTER + INTRA:         -14.789
REMARK INTER:                 -10.675
REMARK INTRA:                  -4.114
REMARK UNBOUND:                -4.114
REMARK  Name = No_3392-gen_results/8p0m/2024-11-26-14-13-15/
REMARK  12 active torsions:
REMARK  status: ('A' for Active; 'I' for Inactive)
REMARK    1  A    between atoms: C_3  and  C_7
REMARK    2  A    between atoms: C_6  and  O_21
REMARK    3  A    between atoms: C_8  and  C_13
REMARK    4  A    between atoms: C_13  and  O_14
REMARK    5  A    between atoms: O_14  and  C_15
REMARK    6  A    between atoms: O_21  and  C_22
REMARK    7  A    between atoms: C_22  and  C_23
REMARK    8  A    between atoms: C_23  and  O_24
REMARK    9  A    between atoms: O_24  and  C_25
REMARK   10  A    between atoms: C_25  and  C_26
REMARK   11  A    between atoms: C_26  and  C_27
REMARK   12  A    between atoms: C_26  and  C_33
REMARK                            x       y       z     vdW  Elec       q    Type
REMARK                         _______ _______ _______ _____ _____    ______ ____
ROOT
ATOM      1  C   UNL A   1     -23.160   0.559  28.900  0.00  0.00    +0.037 A 
ATOM      2  C   UNL A   1     -23.405  -0.596  29.162  0.00  0.00    +0.003 A 
ATOM      3  C   UNL A   1     -24.349  -1.359  28.475  0.00  0.00    +0.000 A 
ATOM      4  C   UNL A   1     -25.132  -0.736  27.426  0.00  0.00    +0.003 A 
ATOM      5  C   UNL A   1     -24.831   0.601  27.171  0.00  0.00    +0.037 A 
ATOM      6  C   UNL A   1     -23.928   1.252  27.879  0.00  0.00    +0.139 A 
ENDROOT
BRANCH   3   7
ATOM      7  C   UNL A   1     -24.698  -2.786  28.734  0.00  0.00    -0.001 A 
ATOM      8  C   UNL A   1     -25.790  -3.141  29.453  0.00  0.00    +0.021 A 
ATOM      9  C   UNL A   1     -26.070  -4.486  29.715  0.00  0.00    -0.001 A 
ATOM     10  C   UNL A   1     -25.238  -5.535  29.204  0.00  0.00    -0.000 A 
ATOM     11  C   UNL A   1     -23.912  -3.883  28.311  0.00  0.00    -0.000 A 
ATOM     12  C   UNL A   1     -24.174  -5.180  28.551  0.00  0.00    -0.000 A 
BRANCH   8  13
ATOM     13  C   UNL A   1     -26.777  -2.110  29.932  0.00  0.00    +0.232 C 
BRANCH  13  14
ATOM     14  O   UNL A   1     -26.762  -1.860  31.050  0.00  0.00    -0.471 OA
BRANCH  14  15
ATOM     15  C   UNL A   1     -26.248  -0.615  31.368  0.00  0.00    +0.139 A 
ATOM     16  C   UNL A   1     -25.683  -0.526  32.194  0.00  0.00    +0.037 A 
ATOM     17  C   UNL A   1     -26.786   0.476  30.564  0.00  0.00    +0.037 A 
ATOM     18  C   UNL A   1     -25.007   0.810  32.619  0.00  0.00    +0.003 A 
ATOM     19  C   UNL A   1     -26.216   1.742  30.772  0.00  0.00    +0.003 A 
ATOM     20  C   UNL A   1     -25.383   1.904  31.924  0.00  0.00    +0.000 A 
ENDBRANCH  14  15
ENDBRANCH  13  14
ENDBRANCH   8  13
ENDBRANCH   3   7
BRANCH   6  21
ATOM     21  O   UNL A   1     -23.620   2.533  27.585  0.00  0.00    -0.473 OA
BRANCH  21  22
ATOM     22  C   UNL A   1     -23.781   2.998  26.307  0.00  0.00    +0.237 C 
BRANCH  22  23
ATOM     23  C   UNL A   1     -24.608   4.115  26.283  0.00  0.00    +0.189 C 
BRANCH  23  24
ATOM     24  O   UNL A   1     -25.790   4.092  26.337  0.00  0.00    -0.349 OA
BRANCH  24  25
ATOM     25  C   UNL A   1     -26.545   3.154  25.578  0.00  0.00    +0.151 C 
BRANCH  25  26
ATOM     26  C   UNL A   1     -27.797   3.301  25.708  0.00  0.00    +0.075 C 
BRANCH  26  27
ATOM     27  C   UNL A   1     -28.419   3.399  26.741  0.00  0.00    +0.003 A 
ATOM     28  C   UNL A   1     -29.302   4.494  26.825  0.00  0.00    +0.095 A 
ATOM     29  C   UNL A   1     -28.555   2.562  27.967  0.00  0.00    -0.001 A 
ATOM     30  C   UNL A   1     -29.445   2.540  28.800  0.00  0.00    +0.020 A 
ATOM     31  N   UNL A   1     -30.260   4.578  27.961  0.00  0.00    -0.243 NA
ATOM     32  C   UNL A   1     -30.320   3.640  28.837  0.00  0.00    +0.099 A 
ENDBRANCH  26  27
BRANCH  26  33
ATOM     33  C   UNL A   1     -28.459   2.307  24.691  0.00  0.00    -0.024 C 
ATOM     34  C   UNL A   1     -27.876   1.228  24.510  0.00  0.00    -0.030 C 
ATOM     35  C   UNL A   1     -28.387   0.208  23.611  0.00  0.00    +0.030 C 
ENDBRANCH  26  33
ENDBRANCH  25  26
ENDBRANCH  24  25
ENDBRANCH  23  24
ENDBRANCH  22  23
ENDBRANCH  21  22
ENDBRANCH   6  21
TORSDOF 12
ENDMDL
ENDMDL
