REMARK  Name = No_3392-gen_results/8p0m/2024-11-26-14-13-15/
REMARK  12 active torsions:
REMARK  status: ('A' for Active; 'I' for Inactive)
REMARK    1  A    between atoms: C_3  and  C_7
REMARK    2  A    between atoms: C_6  and  O_21
REMARK    3  A    between atoms: C_8  and  C_13
REMARK    4  A    between atoms: C_13  and  O_14
REMARK    5  A    between atoms: O_14  and  C_15
REMARK    6  A    between atoms: O_21  and  C_22
REMARK    7  A    between atoms: C_22  and  C_23
REMARK    8  A    between atoms: C_23  and  O_24
REMARK    9  A    between atoms: O_24  and  C_25
REMARK   10  A    between atoms: C_25  and  C_26
REMARK   11  A    between atoms: C_26  and  C_27
REMARK   12  A    between atoms: C_26  and  C_33
REMARK                            x       y       z     vdW  Elec       q    Type
REMARK                         _______ _______ _______ _____ _____    ______ ____
ROOT
ATOM      1  C   UNL A   1     -28.016  -0.814  28.878  0.00  0.00    +0.037 A 
ATOM      2  C   UNL A   1     -27.064  -0.119  28.608  0.00  0.00    +0.003 A 
ATOM      3  C   UNL A   1     -25.765  -0.390  29.036  0.00  0.00    +0.000 A 
ATOM      4  C   UNL A   1     -25.530  -1.530  29.901  0.00  0.00    +0.003 A 
ATOM      5  C   UNL A   1     -26.658  -2.292  30.203  0.00  0.00    +0.037 A 
ATOM      6  C   UNL A   1     -27.855  -1.956  29.763  0.00  0.00    +0.139 A 
ENDROOT
BRANCH   3   7
ATOM      7  C   UNL A   1     -24.544   0.413  28.738  0.00  0.00    -0.001 A 
ATOM      8  C   UNL A   1     -24.095   1.379  29.575  0.00  0.00    +0.021 A 
ATOM      9  C   UNL A   1     -22.971   2.145  29.249  0.00  0.00    -0.001 A 
ATOM     10  C   UNL A   1     -22.234   1.913  28.042  0.00  0.00    -0.000 A 
ATOM     11  C   UNL A   1     -23.783   0.287  27.552  0.00  0.00    -0.000 A 
ATOM     12  C   UNL A   1     -22.697   1.012  27.231  0.00  0.00    -0.000 A 
BRANCH   8  13
ATOM     13  C   UNL A   1     -24.743   1.613  30.914  0.00  0.00    +0.232 C 
BRANCH  13  14
ATOM     14  O   UNL A   1     -25.865   1.848  30.911  0.00  0.00    -0.471 OA
BRANCH  14  15
ATOM     15  C   UNL A   1     -26.185   3.192  30.835  0.00  0.00    +0.139 A 
ATOM     16  C   UNL A   1     -25.708   3.834  31.442  0.00  0.00    +0.037 A 
ATOM     17  C   UNL A   1     -27.357   3.481  30.017  0.00  0.00    +0.037 A 
ATOM     18  C   UNL A   1     -25.945   5.372  31.406  0.00  0.00    +0.003 A 
ATOM     19  C   UNL A   1     -27.658   4.838  29.818  0.00  0.00    +0.003 A 
ATOM     20  C   UNL A   1     -26.980   5.787  30.646  0.00  0.00    +0.000 A 
ENDBRANCH  14  15
ENDBRANCH  13  14
ENDBRANCH   8  13
ENDBRANCH   3   7
BRANCH   6  21
ATOM     21  O   UNL A   1     -28.926  -2.733  30.030  0.00  0.00    -0.473 OA
BRANCH  21  22
ATOM     22  C   UNL A   1     -28.748  -3.978  30.573  0.00  0.00    +0.237 C 
BRANCH  22  23
ATOM     23  C   UNL A   1     -29.744  -4.852  30.152  0.00  0.00    +0.189 C 
BRANCH  23  24
ATOM     24  O   UNL A   1     -30.245  -4.853  29.080  0.00  0.00    -0.349 OA
BRANCH  24  25
ATOM     25  C   UNL A   1     -31.592  -5.272  28.895  0.00  0.00    +0.151 C 
BRANCH  25  26
ATOM     26  C   UNL A   1     -31.718  -6.532  28.836  0.00  0.00    +0.075 C 
BRANCH  26  27
ATOM     27  C   UNL A   1     -31.765  -7.216  27.839  0.00  0.00    +0.003 A 
ATOM     28  C   UNL A   1     -31.545  -6.541  26.621  0.00  0.00    +0.095 A 
ATOM     29  C   UNL A   1     -31.917  -8.674  27.573  0.00  0.00    -0.001 A 
ATOM     30  C   UNL A   1     -31.610  -9.322  26.587  0.00  0.00    +0.020 A 
ATOM     31  N   UNL A   1     -31.372  -7.327  25.369  0.00  0.00    -0.243 NA
ATOM     32  C   UNL A   1     -31.376  -8.611  25.396  0.00  0.00    +0.099 A 
ENDBRANCH  26  27
BRANCH  26  33
ATOM     33  C   UNL A   1     -32.823  -6.907  29.884  0.00  0.00    -0.024 C 
ATOM     34  C   UNL A   1     -32.520  -7.763  30.729  0.00  0.00    -0.030 C 
ATOM     35  C   UNL A   1     -33.440  -8.190  31.769  0.00  0.00    +0.030 C 
ENDBRANCH  26  33
ENDBRANCH  25  26
ENDBRANCH  24  25
ENDBRANCH  23  24
ENDBRANCH  22  23
ENDBRANCH  21  22
ENDBRANCH   6  21
TORSDOF 12
