MODEL 3394
MODEL 1
REMARK VINA RESULT:    -7.689      0.000      0.000
REMARK INTER + INTRA:         -10.310
REMARK INTER:                  -9.487
REMARK INTRA:                  -0.824
REMARK UNBOUND:                -0.824
REMARK  Name = No_3394-gen_results/8p0m/2024-11-26-14-13-15/
REMARK  4 active torsions:
REMARK  status: ('A' for Active; 'I' for Inactive)
REMARK    1  A    between atoms: C_2  and  O_7
REMARK    2  A    between atoms: O_7  and  C_9
REMARK    3  A    between atoms: C_22  and  O_24
REMARK    4  A    between atoms: O_24  and  C_25
REMARK                            x       y       z     vdW  Elec       q    Type
REMARK                         _______ _______ _______ _____ _____    ______ ____
ROOT
ATOM      1  C   UNL A   1     -23.231  -0.241  29.034  0.00  0.00    +0.145 A 
ATOM      2  C   UNL A   1     -22.082  -0.310  29.090  0.00  0.00    +0.040 A 
ATOM      3  C   UNL A   1     -21.223   0.567  28.228  0.00  0.00    +0.033 A 
ATOM      4  C   UNL A   1     -21.891   1.428  27.338  0.00  0.00    +0.138 A 
ATOM      5  C   UNL A   1     -23.268   1.435  27.342  0.00  0.00    +0.028 A 
ATOM      6  C   UNL A   1     -23.992   0.653  28.159  0.00  0.00    +0.053 A 
ATOM      7  F   UNL A   1     -21.162   2.160  26.544  0.00  0.00    -0.204 F 
ATOM      8  C   UNL A   1     -24.006   2.343  26.410  0.00  0.00    +0.120 C 
ATOM      9  N   UNL A   1     -25.270   2.380  26.455  0.00  0.00    -0.300 N 
ATOM     10  C   UNL A   1     -26.059   2.974  25.525  0.00  0.00    +0.057 C 
ATOM     11  C   UNL A   1     -27.413   2.698  25.795  0.00  0.00    -0.009 C 
ATOM     12  C   UNL A   1     -27.435   2.024  27.063  0.00  0.00    +0.051 C 
ATOM     13  C   UNL A   1     -26.117   1.817  27.365  0.00  0.00    +0.122 C 
ATOM     14  C   UNL A   1     -25.456   0.805  28.158  0.00  0.00    +0.209 C 
ENDROOT
BRANCH   1  15
ATOM     15  O   UNL A   1     -23.932  -1.006  29.876  0.00  0.00    -0.451 OA
BRANCH  15  17
ATOM     16  C   UNL A   1     -23.571  -2.955  28.974  0.00  0.00    +0.043 A 
ATOM     17  C   UNL A   1     -24.270  -2.390  29.524  0.00  0.00    +0.184 A 
ATOM     18  C   UNL A   1     -23.977  -4.317  28.593  0.00  0.00    +0.033 A 
ATOM     19  C   UNL A   1     -25.050  -4.777  28.965  0.00  0.00    +0.143 A 
ATOM     20  C   UNL A   1     -25.645  -2.680  29.973  0.00  0.00    +0.232 A 
ATOM     21  C   UNL A   1     -26.003  -3.960  29.680  0.00  0.00    +0.075 A 
ATOM     22  F   UNL A   1     -25.454  -6.041  28.686  0.00  0.00    -0.204 F 
ATOM     23  O   UNL A   1     -26.077  -2.021  30.944  0.00  0.00    -0.283 OA
ENDBRANCH  15  17
ENDBRANCH   1  15
BRANCH  14  24
ATOM     24  O   UNL A   1     -25.673   1.752  29.215  0.00  0.00    -0.470 OA
BRANCH  24  25
ATOM     25  C   UNL A   1     -25.299   2.589  30.054  0.00  0.00    +0.168 C 
ATOM     26  C   UNL A   1     -25.274   2.297  31.426  0.00  0.00    +0.014 C 
ATOM     27  C   UNL A   1     -24.856   3.201  32.296  0.00  0.00    +0.034 C 
ENDBRANCH  24  25
ENDBRANCH  14  24
TORSDOF 4
ENDMDL
ENDMDL
