REMARK  Name = No_3394-gen_results/8p0m/2024-11-26-14-13-15/
REMARK  4 active torsions:
REMARK  status: ('A' for Active; 'I' for Inactive)
REMARK    1  A    between atoms: C_2  and  O_7
REMARK    2  A    between atoms: O_7  and  C_9
REMARK    3  A    between atoms: C_22  and  O_24
REMARK    4  A    between atoms: O_24  and  C_25
REMARK                            x       y       z     vdW  Elec       q    Type
REMARK                         _______ _______ _______ _____ _____    ______ ____
ROOT
ATOM      1  C   UNL A   1     -30.591   0.308  30.320  0.00  0.00    +0.145 A 
ATOM      2  C   UNL A   1     -31.724   0.353  30.112  0.00  0.00    +0.040 A 
ATOM      3  C   UNL A   1     -32.518   1.570  30.479  0.00  0.00    +0.033 A 
ATOM      4  C   UNL A   1     -31.820   2.613  31.117  0.00  0.00    +0.138 A 
ATOM      5  C   UNL A   1     -30.467   2.464  31.326  0.00  0.00    +0.028 A 
ATOM      6  C   UNL A   1     -29.795   1.365  30.947  0.00  0.00    +0.053 A 
ATOM      7  F   UNL A   1     -32.504   3.657  31.491  0.00  0.00    -0.204 F 
ATOM      8  C   UNL A   1     -29.698   3.556  31.997  0.00  0.00    +0.120 C 
ATOM      9  N   UNL A   1     -28.447   3.433  32.140  0.00  0.00    -0.300 N 
ATOM     10  C   UNL A   1     -27.677   4.229  32.924  0.00  0.00    +0.057 C 
ATOM     11  C   UNL A   1     -26.363   3.724  32.979  0.00  0.00    -0.009 C 
ATOM     12  C   UNL A   1     -26.314   2.643  32.036  0.00  0.00    +0.051 C 
ATOM     13  C   UNL A   1     -27.608   2.490  31.620  0.00  0.00    +0.122 C 
ATOM     14  C   UNL A   1     -28.334   1.342  31.125  0.00  0.00    +0.209 C 
ENDROOT
BRANCH   1  15
ATOM     15  O   UNL A   1     -29.935  -0.781  29.908  0.00  0.00    -0.451 OA
BRANCH  15  17
ATOM     16  C   UNL A   1     -28.016  -0.814  28.878  0.00  0.00    +0.043 A 
ATOM     17  C   UNL A   1     -28.469  -0.785  29.829  0.00  0.00    +0.184 A 
ATOM     18  C   UNL A   1     -26.546  -0.876  28.850  0.00  0.00    +0.033 A 
ATOM     19  C   UNL A   1     -25.897  -0.827  29.889  0.00  0.00    +0.143 A 
ATOM     20  C   UNL A   1     -27.913  -0.839  31.194  0.00  0.00    +0.232 A 
ATOM     21  C   UNL A   1     -26.552  -0.832  31.177  0.00  0.00    +0.075 A 
ATOM     22  F   UNL A   1     -24.542  -0.830  29.920  0.00  0.00    -0.204 F 
ATOM     23  O   UNL A   1     -28.619  -0.371  32.115  0.00  0.00    -0.283 OA
ENDBRANCH  15  17
ENDBRANCH   1  15
BRANCH  14  24
ATOM     24  O   UNL A   1     -27.857   1.817  29.857  0.00  0.00    -0.470 OA
BRANCH  24  25
ATOM     25  C   UNL A   1     -27.081   2.459  29.128  0.00  0.00    +0.168 C 
ATOM     26  C   UNL A   1     -27.500   3.604  28.434  0.00  0.00    +0.014 C 
ATOM     27  C   UNL A   1     -26.649   4.278  27.678  0.00  0.00    +0.034 C 
ENDBRANCH  24  25
ENDBRANCH  14  24
TORSDOF 4
