MODEL 3395
MODEL 1
REMARK VINA RESULT:    -5.940      0.000      0.000
REMARK INTER + INTRA:          -6.957
REMARK INTER:                  -6.635
REMARK INTRA:                  -0.322
REMARK UNBOUND:                -0.322
REMARK  Name = No_3395-gen_results/8p0m/2024-11-26-14-13-15/
REMARK  2 active torsions:
REMARK  status: ('A' for Active; 'I' for Inactive)
REMARK    1  A    between atoms: C_3  and  C_4
REMARK    2  A    between atoms: C_8  and  C_9
REMARK                            x       y       z     vdW  Elec       q    Type
REMARK                         _______ _______ _______ _____ _____    ______ ____
ROOT
ATOM      1  C   UNL A   1     -24.155  -4.350  28.815  0.00  0.00    -0.000 A 
ATOM      2  C   UNL A   1     -24.948  -4.999  29.060  0.00  0.00    +0.000 A 
ATOM      3  C   UNL A   1     -24.303  -2.981  29.127  0.00  0.00    -0.000 A 
ATOM      4  C   UNL A   1     -26.257  -4.741  29.686  0.00  0.00    +0.000 A 
ATOM      5  C   UNL A   1     -26.475  -3.404  30.021  0.00  0.00    +0.000 A 
ATOM      6  C   UNL A   1     -25.491  -2.496  29.795  0.00  0.00    -0.000 A 
ENDROOT
BRANCH   3   7
ATOM      7  C   UNL A   1     -23.241  -1.956  28.949  0.00  0.00    -0.000 C 
ATOM      8  C   UNL A   1     -23.193  -0.825  28.995  0.00  0.00    -0.000 C 
BRANCH   8   9
ATOM      9  C   UNL A   1     -22.098   0.077  28.827  0.00  0.00    -0.005 C 
ATOM     10  C   UNL A   1     -22.089   1.157  27.961  0.00  0.00    -0.026 C 
ATOM     11  C   UNL A   1     -23.211   1.355  27.150  0.00  0.00    +0.031 C 
ENDBRANCH   8   9
ENDBRANCH   3   7
TORSDOF 2
ENDMDL
ENDMDL
