REMARK  Name = No_3396-gen_results/8p0m/2024-11-26-14-13-15/
REMARK  2 active torsions:
REMARK  status: ('A' for Active; 'I' for Inactive)
REMARK    1  A    between atoms: C_1  and  C_2
REMARK    2  A    between atoms: C_1  and  C_3
REMARK                            x       y       z     vdW  Elec       q    Type
REMARK                         _______ _______ _______ _____ _____    ______ ____
ROOT
ATOM      1  C   UNL A   1     -28.016  -0.814  28.878  0.00  0.00    +0.053 C 
ENDROOT
BRANCH   1   2
ATOM      2  C   UNL A   1     -28.469  -0.785  29.829  0.00  0.00    -0.018 A 
ATOM      3  C   UNL A   1     -29.607  -1.627  30.134  0.00  0.00    -0.004 A 
ATOM      4  C   UNL A   1     -30.481  -1.301  31.031  0.00  0.00    -0.000 A 
ATOM      5  C   UNL A   1     -30.147  -0.383  32.099  0.00  0.00    -0.000 A 
ATOM      6  C   UNL A   1     -29.017   0.337  31.982  0.00  0.00    -0.000 A 
ATOM      7  C   UNL A   1     -28.254   0.230  30.929  0.00  0.00    -0.004 A 
ENDBRANCH   1   2
BRANCH   1   8
ATOM      8  C   UNL A   1     -27.087   0.290  28.638  0.00  0.00    -0.018 A 
ATOM      9  C   UNL A   1     -26.910   0.849  27.420  0.00  0.00    -0.004 A 
ATOM     10  C   UNL A   1     -25.723   1.321  27.041  0.00  0.00    -0.000 A 
ATOM     11  C   UNL A   1     -24.623   1.536  27.941  0.00  0.00    -0.000 A 
ATOM     12  C   UNL A   1     -24.767   0.941  29.193  0.00  0.00    -0.000 A 
ATOM     13  C   UNL A   1     -25.951   0.247  29.456  0.00  0.00    -0.004 A 
ENDBRANCH   1   8
TORSDOF 2
