MODEL 3396
MODEL 1
REMARK VINA RESULT:    -6.264      0.000      0.000
REMARK INTER + INTRA:          -7.595
REMARK INTER:                  -6.996
REMARK INTRA:                  -0.598
REMARK UNBOUND:                -0.598
REMARK  Name = No_3396-gen_results/8p0m/2024-11-26-14-13-15/
REMARK  2 active torsions:
REMARK  status: ('A' for Active; 'I' for Inactive)
REMARK    1  A    between atoms: C_1  and  C_2
REMARK    2  A    between atoms: C_1  and  C_3
REMARK                            x       y       z     vdW  Elec       q    Type
REMARK                         _______ _______ _______ _____ _____    ______ ____
ROOT
ATOM      1  C   UNL A   1     -24.354  -1.087  29.428  0.00  0.00    +0.053 C 
ENDROOT
BRANCH   1   2
ATOM      2  C   UNL A   1     -24.637  -2.074  29.190  0.00  0.00    -0.018 A 
ATOM      3  C   UNL A   1     -25.949  -2.575  29.543  0.00  0.00    -0.004 A 
ATOM      4  C   UNL A   1     -26.172  -3.834  29.742  0.00  0.00    -0.000 A 
ATOM      5  C   UNL A   1     -25.310  -4.845  29.166  0.00  0.00    -0.000 A 
ATOM      6  C   UNL A   1     -24.126  -4.453  28.664  0.00  0.00    -0.000 A 
ATOM      7  C   UNL A   1     -23.751  -3.204  28.713  0.00  0.00    -0.004 A 
ENDBRANCH   1   2
BRANCH   1   8
ATOM      8  C   UNL A   1     -23.678  -0.392  28.333  0.00  0.00    -0.018 A 
ATOM      9  C   UNL A   1     -22.527   0.297  28.500  0.00  0.00    -0.004 A 
ATOM     10  C   UNL A   1     -22.268   1.395  27.791  0.00  0.00    -0.000 A 
ATOM     11  C   UNL A   1     -23.015   1.791  26.629  0.00  0.00    -0.000 A 
ATOM     12  C   UNL A   1     -24.222   1.119  26.452  0.00  0.00    -0.000 A 
ATOM     13  C   UNL A   1     -24.560   0.125  27.375  0.00  0.00    -0.004 A 
ENDBRANCH   1   8
TORSDOF 2
ENDMDL
ENDMDL
