REMARK  Name = No_3397-gen_results/8p0m/2024-11-26-14-13-15/
REMARK  0 active torsions:
REMARK  status: ('A' for Active; 'I' for Inactive)
REMARK                            x       y       z     vdW  Elec       q    Type
REMARK                         _______ _______ _______ _____ _____    ______ ____
ROOT
ATOM      1  C   UNL A   1     -28.016  -0.814  28.878  0.00  0.00    +0.004 A 
ATOM      2  C   UNL A   1     -28.469  -0.785  29.829  0.00  0.00    +0.050 A 
ATOM      3  C   UNL A   1     -26.504  -0.778  28.877  0.00  0.00    +0.000 A 
ATOM      4  C   UNL A   1     -25.810  -0.853  30.103  0.00  0.00    -0.000 A 
ATOM      5  C   UNL A   1     -27.991  -0.892  31.226  0.00  0.00    -0.016 A 
ATOM      6  C   UNL A   1     -26.604  -0.868  31.265  0.00  0.00    -0.004 A 
ATOM      7  C   UNL A   1     -30.074  -0.836  29.861  0.00  0.00    +0.249 C 
ATOM      8  O   UNL A   1     -30.561  -0.442  28.942  0.00  0.00    -0.270 OA
ATOM      9  N   UNL A   1     -30.743  -1.043  31.056  0.00  0.00    -0.277 N 
ATOM     10  C   UNL A   1     -32.178  -1.035  31.037  0.00  0.00    +0.094 C 
ATOM     11  C   UNL A   1     -32.716  -1.528  32.020  0.00  0.00    +0.022 C 
ATOM     12  C   UNL A   1     -32.001  -1.943  33.237  0.00  0.00    +0.004 C 
ATOM     13  C   UNL A   1     -30.602  -1.957  33.178  0.00  0.00    +0.020 C 
ATOM     14  C   UNL A   1     -29.959  -1.632  32.101  0.00  0.00    +0.080 C 
ATOM     15  C   UNL A   1     -28.746  -2.008  32.070  0.00  0.00    +0.046 C 
ENDROOT
TORSDOF 0
