REMARK  Name = No_3398-gen_results/8p0m/2024-11-26-14-13-15/
REMARK  8 active torsions:
REMARK  status: ('A' for Active; 'I' for Inactive)
REMARK    1  A    between atoms: C_1  and  C_2
REMARK    2  A    between atoms: C_5  and  C_11
REMARK    3  A    between atoms: N_8  and  C_10
REMARK    4  A    between atoms: C_10  and  C_15
REMARK    5  A    between atoms: C_15  and  C_16
REMARK    6  A    between atoms: C_16  and  C_17
REMARK    7  A    between atoms: C_17  and  N_18
REMARK    8  A    between atoms: N_18  and  C_19
REMARK                            x       y       z     vdW  Elec       q    Type
REMARK                         _______ _______ _______ _____ _____    ______ ____
ROOT
ATOM      1  C   UNL A   1     -28.016  -0.814  28.878  0.00  0.00    +0.265 C 
ATOM      2  N   UNL A   1     -27.952  -1.752  29.938  0.00  0.00    -0.202 NA
ATOM      3  O   UNL A   1     -29.211  -0.338  28.743  0.00  0.00    -0.268 OA
ENDROOT
BRANCH   1   4
ATOM      4  C   UNL A   1     -27.064  -0.119  28.608  0.00  0.00    +0.055 A 
ATOM      5  C   UNL A   1     -25.792  -0.430  29.076  0.00  0.00    +0.004 A 
ATOM      6  C   UNL A   1     -24.546   0.349  28.823  0.00  0.00    +0.004 A 
ATOM      7  C   UNL A   1     -24.659   1.420  27.888  0.00  0.00    +0.071 A 
ATOM      8  C   UNL A   1     -25.947   1.681  27.379  0.00  0.00    +0.004 A 
ATOM      9  C   UNL A   1     -27.044   0.974  27.687  0.00  0.00    +0.004 A 
BRANCH   7  10
ATOM     10  C   UNL A   1     -23.460   2.165  27.597  0.00  0.00    +0.419 C 
ATOM     11  F   UNL A   1     -22.546   2.025  28.274  0.00  0.00    -0.166 F 
ATOM     12  F   UNL A   1     -23.082   1.878  26.223  0.00  0.00    -0.166 F 
ATOM     13  F   UNL A   1     -23.851   3.505  27.488  0.00  0.00    -0.166 F 
ENDBRANCH   7  10
ENDBRANCH   1   4
BRANCH   2  14
ATOM     14  C   UNL A   1     -29.027  -2.537  30.497  0.00  0.00    +0.116 C 
BRANCH  14  15
ATOM     15  C   UNL A   1     -28.851  -3.931  30.369  0.00  0.00    +0.025 C 
BRANCH  15  16
ATOM     16  C   UNL A   1     -30.058  -4.679  30.056  0.00  0.00    +0.025 C 
BRANCH  16  17
ATOM     17  C   UNL A   1     -30.980  -3.892  29.488  0.00  0.00    +0.112 C 
BRANCH  17  18
ATOM     18  N   UNL A   1     -32.050  -4.609  29.029  0.00  0.00    -0.236 NA
BRANCH  18  19
ATOM     19  C   UNL A   1     -32.606  -4.390  27.842  0.00  0.00    +0.080 C 
ATOM     20  C   UNL A   1     -33.533  -5.260  27.240  0.00  0.00    +0.019 C 
ENDBRANCH  18  19
ENDBRANCH  17  18
ENDBRANCH  16  17
ENDBRANCH  15  16
ENDBRANCH  14  15
ENDBRANCH   2  14
TORSDOF 8
