MODEL 3399
MODEL 1
REMARK VINA RESULT:    -6.746      0.000      0.000
REMARK INTER + INTRA:          -7.459
REMARK INTER:                  -7.141
REMARK INTRA:                  -0.319
REMARK UNBOUND:                -0.319
REMARK  Name = No_3399-gen_results/8p0m/2024-11-26-14-13-15/
REMARK  1 active torsions:
REMARK  status: ('A' for Active; 'I' for Inactive)
REMARK    1  A    between atoms: C_3  and  C_7
REMARK                            x       y       z     vdW  Elec       q    Type
REMARK                         _______ _______ _______ _____ _____    ______ ____
ROOT
ATOM      1  C   UNL A   1     -23.676   0.562  27.494  0.00  0.00    +0.011 A 
ATOM      2  C   UNL A   1     -24.344  -0.393  27.815  0.00  0.00    +0.001 A 
ATOM      3  C   UNL A   1     -23.915  -1.367  28.716  0.00  0.00    +0.000 A 
ATOM      4  C   UNL A   1     -22.575  -1.280  29.264  0.00  0.00    +0.001 A 
ATOM      5  C   UNL A   1     -21.833  -0.174  28.852  0.00  0.00    +0.011 A 
ATOM      6  C   UNL A   1     -22.314   0.696  27.986  0.00  0.00    +0.058 A 
ATOM      7 CL   UNL A   1     -21.320   1.997  27.470  0.00  0.00    -0.082 Cl
ENDROOT
BRANCH   3   8
ATOM      8  C   UNL A   1     -24.682  -2.564  29.165  0.00  0.00    +0.000 A 
ATOM      9  C   UNL A   1     -25.927  -2.534  29.579  0.00  0.00    +0.000 A 
ATOM     10  C   UNL A   1     -26.612  -3.708  29.969  0.00  0.00    +0.000 A 
ATOM     11  C   UNL A   1     -26.078  -4.959  29.551  0.00  0.00    +0.000 A 
ATOM     12  C   UNL A   1     -24.193  -3.891  28.887  0.00  0.00    +0.000 A 
ATOM     13  C   UNL A   1     -24.865  -5.013  29.099  0.00  0.00    +0.000 A 
ENDBRANCH   3   8
TORSDOF 1
ENDMDL
ENDMDL
