REMARK  Name = No_3399-gen_results/8p0m/2024-11-26-14-13-15/
REMARK  1 active torsions:
REMARK  status: ('A' for Active; 'I' for Inactive)
REMARK    1  A    between atoms: C_3  and  C_7
REMARK                            x       y       z     vdW  Elec       q    Type
REMARK                         _______ _______ _______ _____ _____    ______ ____
ROOT
ATOM      1  C   UNL A   1     -28.016  -0.814  28.878  0.00  0.00    +0.011 A 
ATOM      2  C   UNL A   1     -27.064  -0.119  28.608  0.00  0.00    +0.001 A 
ATOM      3  C   UNL A   1     -25.765  -0.390  29.036  0.00  0.00    +0.000 A 
ATOM      4  C   UNL A   1     -25.530  -1.530  29.901  0.00  0.00    +0.001 A 
ATOM      5  C   UNL A   1     -26.658  -2.292  30.203  0.00  0.00    +0.011 A 
ATOM      6  C   UNL A   1     -27.855  -1.956  29.763  0.00  0.00    +0.058 A 
ATOM      7 CL   UNL A   1     -29.210  -2.901  30.229  0.00  0.00    -0.082 Cl
ENDROOT
BRANCH   3   8
ATOM      8  C   UNL A   1     -24.544   0.413  28.738  0.00  0.00    +0.000 A 
ATOM      9  C   UNL A   1     -23.323   0.048  29.050  0.00  0.00    +0.000 A 
ATOM     10  C   UNL A   1     -22.200   0.841  28.719  0.00  0.00    +0.000 A 
ATOM     11  C   UNL A   1     -22.363   1.839  27.717  0.00  0.00    +0.000 A 
ATOM     12  C   UNL A   1     -24.604   1.516  27.812  0.00  0.00    +0.000 A 
ATOM     13  C   UNL A   1     -23.558   2.190  27.359  0.00  0.00    +0.000 A 
ENDBRANCH   3   8
TORSDOF 1
