MODEL 339
MODEL 1
REMARK VINA RESULT:    -6.516      0.000      0.000
REMARK INTER + INTRA:         -11.331
REMARK INTER:                  -9.183
REMARK INTRA:                  -2.148
REMARK UNBOUND:                -2.148
REMARK  Name = No_339-gen_results/8p0m/2024-11-26-14-13-15/
REMARK  7 active torsions:
REMARK  status: ('A' for Active; 'I' for Inactive)
REMARK    1  A    between atoms: C_1  and  C_3
REMARK    2  A    between atoms: C_3  and  C_4
REMARK    3  A    between atoms: C_4  and  C_5
REMARK    4  A    between atoms: C_4  and  C_20
REMARK    5  A    between atoms: C_5  and  C_6
REMARK    6  A    between atoms: C_6  and  C_7
REMARK    7  A    between atoms: C_16  and  O_17
REMARK                            x       y       z     vdW  Elec       q    Type
REMARK                         _______ _______ _______ _____ _____    ______ ____
ROOT
ATOM      1  C   UNL A   1     -23.742   0.701  29.977  0.00  0.00    +0.019 C 
ATOM      2  C   UNL A   1     -24.198   1.552  31.307  0.00  0.00    +0.001 C 
ENDROOT
BRANCH   1   3
ATOM      3  C   UNL A   1     -24.247   1.387  29.076  0.00  0.00    +0.026 C 
ATOM      4  C   UNL A   1     -25.604   1.918  29.329  0.00  0.00    +0.005 C 
BRANCH   3   5
ATOM      5  C   UNL A   1     -24.106   1.361  27.653  0.00  0.00    +0.007 A 
ATOM      6  C   UNL A   1     -24.670   0.454  26.787  0.00  0.00    -0.023 A 
ATOM      7  C   UNL A   1     -24.541   0.580  25.368  0.00  0.00    -0.004 A 
ATOM      8  C   UNL A   1     -23.818   1.632  24.860  0.00  0.00    +0.003 A 
ATOM      9  C   UNL A   1     -23.146   2.496  25.620  0.00  0.00    +0.037 A 
ATOM     10  C   UNL A   1     -23.328   2.398  27.056  0.00  0.00    +0.134 A 
ATOM     11  C   UNL A   1     -25.486  -0.682  27.255  0.00  0.00    +0.031 C 
BRANCH  10  12
ATOM     12  O   UNL A   1     -22.168   2.269  27.668  0.00  0.00    -0.472 OA
ATOM     13  C   UNL A   1     -21.161   1.847  27.206  0.00  0.00    +0.253 C 
ENDBRANCH  10  12
ENDBRANCH   3   5
ENDBRANCH   1   3
BRANCH   1  14
ATOM     14  C   UNL A   1     -23.189  -0.155  30.300  0.00  0.00    +0.127 C 
BRANCH  14  15
ATOM     15  C   UNL A   1     -23.581  -1.301  31.145  0.00  0.00    +0.182 C 
ATOM     16  O   UNL A   1     -23.105  -1.377  32.357  0.00  0.00    -0.291 OA
BRANCH  15  17
ATOM     17  C   UNL A   1     -24.582  -2.233  30.707  0.00  0.00    +0.063 A 
ATOM     18  C   UNL A   1     -24.275  -2.942  29.991  0.00  0.00    +0.005 A 
ATOM     19  C   UNL A   1     -25.295  -3.915  29.267  0.00  0.00    +0.000 A 
ATOM     20  C   UNL A   1     -26.596  -3.703  29.689  0.00  0.00    +0.002 A 
ATOM     21  C   UNL A   1     -26.955  -2.619  30.406  0.00  0.00    +0.030 A 
ATOM     22  C   UNL A   1     -25.963  -1.723  30.844  0.00  0.00    +0.143 A 
ATOM     23  F   UNL A   1     -26.016  -1.146  32.006  0.00  0.00    -0.204 F 
ENDBRANCH  15  17
ENDBRANCH  14  15
BRANCH  14  24
ATOM     24  C   UNL A   1     -21.783  -0.484  29.959  0.00  0.00    +0.215 C 
ATOM     25  O   UNL A   1     -21.433  -1.059  29.010  0.00  0.00    -0.288 OA
ENDBRANCH  14  24
ENDBRANCH   1  14
TORSDOF 7
ENDMDL
ENDMDL
