MODEL 33
MODEL 1
REMARK VINA RESULT:    -6.539      0.000      0.000
REMARK INTER + INTRA:          -6.539
REMARK INTER:                  -6.539
REMARK INTRA:                   0.000
REMARK UNBOUND:                 0.000
REMARK  Name = No_33-gen_results/8p0m/2024-11-26-14-13-15/
REMARK  0 active torsions:
REMARK  status: ('A' for Active; 'I' for Inactive)
REMARK                            x       y       z     vdW  Elec       q    Type
REMARK                         _______ _______ _______ _____ _____    ______ ____
ROOT
ATOM      1  C   UNL A   1     -25.720  -0.786  29.762  0.00  0.00    -0.003 A 
ATOM      2  C   UNL A   1     -24.823  -0.354  29.417  0.00  0.00    +0.019 A 
ATOM      3  C   UNL A   1     -25.726  -2.248  29.702  0.00  0.00    -0.019 A 
ATOM      4  C   UNL A   1     -26.828  -3.086  30.226  0.00  0.00    +0.027 C 
ATOM      5  C   UNL A   1     -23.568  -0.870  28.887  0.00  0.00    +0.003 A 
ATOM      6  C   UNL A   1     -23.540  -2.247  28.803  0.00  0.00    +0.003 A 
ATOM      7  C   UNL A   1     -24.586  -2.964  29.253  0.00  0.00    +0.031 A 
ATOM      8  C   UNL A   1     -26.808  -4.437  29.828  0.00  0.00    +0.013 C 
ATOM      9  C   UNL A   1     -25.678  -5.097  29.422  0.00  0.00    +0.070 C 
ATOM     10  C   UNL A   1     -24.598  -4.353  28.989  0.00  0.00    +0.173 C 
ATOM     11  O   UNL A   1     -23.541  -5.027  28.517  0.00  0.00    -0.291 OA
ATOM     12  C   UNL A   1     -24.691   1.290  29.542  0.00  0.00    +0.099 A 
ATOM     13  N   UNL A   1     -23.536   1.824  29.232  0.00  0.00    -0.242 NA
ATOM     14  C   UNL A   1     -22.438   1.260  28.702  0.00  0.00    +0.099 A 
ATOM     15  C   UNL A   1     -22.392  -0.032  28.560  0.00  0.00    +0.021 A 
ENDROOT
TORSDOF 0
ENDMDL
ENDMDL
