REMARK  Name = No_340-gen_results/8p0m/2024-11-26-14-13-15/
REMARK  1 active torsions:
REMARK  status: ('A' for Active; 'I' for Inactive)
REMARK    1  A    between atoms: C_3  and  C_12
REMARK                            x       y       z     vdW  Elec       q    Type
REMARK                         _______ _______ _______ _____ _____    ______ ____
ROOT
ATOM      1  C   UNL A   1     -28.016  -0.814  28.878  0.00  0.00    +0.000 A 
ATOM      2  C   UNL A   1     -27.064  -0.119  28.608  0.00  0.00    +0.005 A 
ATOM      3  C   UNL A   1     -26.972   0.714  27.506  0.00  0.00    +0.057 A 
ATOM      4  C   UNL A   1     -25.820   1.491  27.116  0.00  0.00    +0.034 A 
ATOM      5  C   UNL A   1     -24.656   1.424  27.918  0.00  0.00    +0.140 A 
ATOM      6  C   UNL A   1     -24.685   0.590  29.066  0.00  0.00    +0.030 A 
ATOM      7  C   UNL A   1     -25.810  -0.127  29.334  0.00  0.00    +0.002 A 
ATOM      8  C   UNL A   1     -28.044  -1.573  30.169  0.00  0.00    +0.000 A 
ATOM      9  C   UNL A   1     -26.817  -1.760  30.870  0.00  0.00    +0.000 A 
ATOM     10  C   UNL A   1     -25.748  -0.992  30.538  0.00  0.00    +0.000 A 
ATOM     11  F   UNL A   1     -23.605   2.162  27.626  0.00  0.00    -0.204 F 
ENDROOT
BRANCH   3  12
ATOM     12  C   UNL A   1     -28.095   0.812  26.512  0.00  0.00    +0.265 C 
ATOM     13  N   UNL A   1     -29.184   0.903  26.739  0.00  0.00    -0.200 NA
ATOM     14  C   UNL A   1     -30.200   0.788  25.913  0.00  0.00    +0.139 C 
ATOM     15  O   UNL A   1     -27.742   0.965  25.332  0.00  0.00    -0.268 OA
ENDBRANCH   3  12
TORSDOF 1
