MODEL 3400
MODEL 1
REMARK VINA RESULT:    -4.586      0.000      0.000
REMARK INTER + INTRA:          -4.586
REMARK INTER:                  -4.586
REMARK INTRA:                   0.000
REMARK UNBOUND:                 0.000
REMARK  Name = No_3400-gen_results/8p0m/2024-11-26-14-13-15/
REMARK  0 active torsions:
REMARK  status: ('A' for Active; 'I' for Inactive)
REMARK                            x       y       z     vdW  Elec       q    Type
REMARK                         _______ _______ _______ _____ _____    ______ ____
ROOT
ATOM      1  C   UNL A   1      -9.415  -9.178  20.161  0.00  0.00    +0.030 A 
ATOM      2  C   UNL A   1     -10.300  -9.205  19.337  0.00  0.00    +0.002 A 
ATOM      3  C   UNL A   1     -10.186  -9.979  18.187  0.00  0.00    +0.000 A 
ATOM      4  C   UNL A   1      -8.990 -10.736  17.919  0.00  0.00    +0.002 A 
ATOM      5  C   UNL A   1      -8.009 -10.628  18.913  0.00  0.00    +0.030 A 
ATOM      6  C   UNL A   1      -8.159  -9.869  19.974  0.00  0.00    +0.140 A 
ATOM      7  F   UNL A   1      -7.188  -9.818  20.867  0.00  0.00    -0.204 F 
ENDROOT
TORSDOF 0
ENDMDL
ENDMDL
