MODEL 3401
MODEL 1
REMARK VINA RESULT:    -5.752      0.000      0.000
REMARK INTER + INTRA:          -6.630
REMARK INTER:                  -6.425
REMARK INTRA:                  -0.205
REMARK UNBOUND:                -0.205
REMARK  Name = No_3401-gen_results/8p0m/2024-11-26-14-13-15/
REMARK  2 active torsions:
REMARK  status: ('A' for Active; 'I' for Inactive)
REMARK    1  A    between atoms: C_1  and  C_2
REMARK    2  A    between atoms: N_3  and  C_4
REMARK                            x       y       z     vdW  Elec       q    Type
REMARK                         _______ _______ _______ _____ _____    ______ ____
ROOT
ATOM      1  C   UNL A   1     -24.104  -2.950  29.264  0.00  0.00    +0.081 A 
ATOM      2  C   UNL A   1     -25.336  -2.395  29.760  0.00  0.00    +0.019 A 
ATOM      3  C   UNL A   1     -26.425  -3.171  30.040  0.00  0.00    +0.002 A 
ATOM      4  C   UNL A   1     -26.420  -4.527  29.639  0.00  0.00    +0.000 A 
ATOM      5  C   UNL A   1     -24.174  -4.321  28.962  0.00  0.00    +0.019 A 
ATOM      6  C   UNL A   1     -25.276  -5.087  29.174  0.00  0.00    +0.002 A 
ENDROOT
BRANCH   1   8
ATOM      7  C   UNL A   1     -22.700  -0.903  29.324  0.00  0.00    +0.099 C 
ATOM      8  N   UNL A   1     -22.967  -2.149  28.907  0.00  0.00    -0.244 NA
BRANCH   7   9
ATOM      9  C   UNL A   1     -21.726  -0.269  28.992  0.00  0.00    +0.016 C 
ATOM     10  C   UNL A   1     -22.002   0.923  28.146  0.00  0.00    -0.024 C 
ATOM     11  C   UNL A   1     -23.159   1.113  27.472  0.00  0.00    +0.031 C 
ENDBRANCH   7   9
ENDBRANCH   1   8
TORSDOF 2
ENDMDL
ENDMDL
