MODEL 3402
MODEL 1
REMARK VINA RESULT:    -7.130      0.000      0.000
REMARK INTER + INTRA:          -8.394
REMARK INTER:                  -8.381
REMARK INTRA:                  -0.013
REMARK UNBOUND:                -0.013
REMARK  Name = No_3402-gen_results/8p0m/2024-11-26-14-13-15/
REMARK  3 active torsions:
REMARK  status: ('A' for Active; 'I' for Inactive)
REMARK    1  A    between atoms: C_3  and  C_4
REMARK    2  A    between atoms: C_7  and  C_13
REMARK    3  A    between atoms: N_14  and  C_16
REMARK                            x       y       z     vdW  Elec       q    Type
REMARK                         _______ _______ _______ _____ _____    ______ ____
ROOT
ATOM      1  C   UNL A   1     -27.778 -12.073  31.731  0.00  0.00    +0.005 A 
ATOM      2  C   UNL A   1     -28.286 -11.917  30.645  0.00  0.00    +0.000 A 
ATOM      3  C   UNL A   1     -29.260 -11.008  30.387  0.00  0.00    +0.000 A 
ATOM      4  C   UNL A   1     -28.185 -11.209  32.855  0.00  0.00    +0.055 A 
ATOM      5  C   UNL A   1     -29.152 -10.313  32.695  0.00  0.00    +0.005 A 
ATOM      6  C   UNL A   1     -29.723 -10.159  31.439  0.00  0.00    +0.000 A 
ENDROOT
BRANCH   3   7
ATOM      7  C   UNL A   1     -29.890 -10.802  29.063  0.00  0.00    +0.000 A 
ATOM      8  C   UNL A   1     -29.443 -11.647  27.994  0.00  0.00    +0.000 A 
ATOM      9  C   UNL A   1     -29.953 -11.508  26.694  0.00  0.00    +0.000 A 
ATOM     10  C   UNL A   1     -30.934  -9.938  28.750  0.00  0.00    +0.000 A 
ATOM     11  C   UNL A   1     -31.659  -9.986  27.511  0.00  0.00    +0.000 A 
ATOM     12  C   UNL A   1     -31.078 -10.757  26.468  0.00  0.00    +0.000 A 
ENDBRANCH   3   7
BRANCH   4  13
ATOM     13  C   UNL A   1     -27.475 -11.438  34.141  0.00  0.00    +0.270 C 
ATOM     14  N   UNL A   1     -27.132 -10.536  34.917  0.00  0.00    -0.162 NA
ATOM     15  O   UNL A   1     -27.312 -12.625  34.539  0.00  0.00    -0.268 OA
BRANCH  14  16
ATOM     16  C   UNL A   1     -27.360  -9.070  34.679  0.00  0.00    +0.173 C 
ATOM     17  C   UNL A   1     -27.810  -8.366  35.953  0.00  0.00    +0.152 C 
ATOM     18  O   UNL A   1     -28.532  -8.930  36.704  0.00  0.00    -0.230 OA
ENDBRANCH  14  16
ENDBRANCH   4  13
TORSDOF 3
ENDMDL
ENDMDL
