REMARK  Name = No_3402-gen_results/8p0m/2024-11-26-14-13-15/
REMARK  3 active torsions:
REMARK  status: ('A' for Active; 'I' for Inactive)
REMARK    1  A    between atoms: C_3  and  C_4
REMARK    2  A    between atoms: C_7  and  C_13
REMARK    3  A    between atoms: N_14  and  C_16
REMARK                            x       y       z     vdW  Elec       q    Type
REMARK                         _______ _______ _______ _____ _____    ______ ____
ROOT
ATOM      1  C   UNL A   1     -28.016  -0.814  28.878  0.00  0.00    +0.005 A 
ATOM      2  C   UNL A   1     -27.064  -0.119  28.608  0.00  0.00    +0.000 A 
ATOM      3  C   UNL A   1     -26.929   1.171  29.008  0.00  0.00    +0.000 A 
ATOM      4  C   UNL A   1     -29.091  -0.275  29.732  0.00  0.00    +0.055 A 
ATOM      5  C   UNL A   1     -29.050   0.987  30.143  0.00  0.00    +0.005 A 
ATOM      6  C   UNL A   1     -27.950   1.766  29.812  0.00  0.00    +0.000 A 
ENDROOT
BRANCH   3   7
ATOM      7  C   UNL A   1     -25.770   2.034  28.688  0.00  0.00    +0.000 A 
ATOM      8  C   UNL A   1     -24.714   1.443  27.919  0.00  0.00    +0.000 A 
ATOM      9  C   UNL A   1     -23.557   2.167  27.593  0.00  0.00    +0.000 A 
ATOM     10  C   UNL A   1     -25.621   3.387  28.973  0.00  0.00    +0.000 A 
ATOM     11  C   UNL A   1     -24.590   4.209  28.403  0.00  0.00    +0.000 A 
ATOM     12  C   UNL A   1     -23.522   3.528  27.760  0.00  0.00    +0.000 A 
ENDBRANCH   3   7
BRANCH   4  13
ATOM     13  C   UNL A   1     -30.198  -1.214  30.054  0.00  0.00    +0.270 C 
ATOM     14  N   UNL A   1     -30.034  -2.350  30.518  0.00  0.00    -0.162 NA
ATOM     15  O   UNL A   1     -31.387  -0.798  29.969  0.00  0.00    -0.268 OA
BRANCH  14  16
ATOM     16  C   UNL A   1     -28.697  -2.969  30.814  0.00  0.00    +0.173 C 
ATOM     17  C   UNL A   1     -28.710  -4.468  30.547  0.00  0.00    +0.152 C 
ATOM     18  O   UNL A   1     -29.684  -5.095  30.798  0.00  0.00    -0.230 OA
ENDBRANCH  14  16
ENDBRANCH   4  13
TORSDOF 3
