MODEL 3403
MODEL 1
REMARK VINA RESULT:    -7.415      0.000      0.000
REMARK INTER + INTRA:         -16.397
REMARK INTER:                 -11.749
REMARK INTRA:                  -4.647
REMARK UNBOUND:                -4.647
REMARK  Name = No_3403-gen_results/8p0m/2024-11-26-14-13-15/
REMARK  10 active torsions:
REMARK  status: ('A' for Active; 'I' for Inactive)
REMARK    1  A    between atoms: C_2  and  C_7
REMARK    2  A    between atoms: C_3  and  C_17
REMARK    3  A    between atoms: C_7  and  N_9
REMARK    4  A    between atoms: N_9  and  C_10
REMARK    5  A    between atoms: N_9  and  C_11
REMARK    6  A    between atoms: C_10  and  C_33
REMARK    7  A    between atoms: C_17  and  C_18
REMARK    8  A    between atoms: C_21  and  C_22
REMARK    9  A    between atoms: C_25  and  C_26
REMARK   10  A    between atoms: C_26  and  C_27
REMARK                            x       y       z     vdW  Elec       q    Type
REMARK                         _______ _______ _______ _____ _____    ______ ____
ROOT
ATOM      1  C   UNL A   1     -24.751  -0.316  27.286  0.00  0.00    -0.004 A 
ATOM      2  C   UNL A   1     -24.559   0.353  26.494  0.00  0.00    +0.027 A 
ATOM      3  C   UNL A   1     -23.764  -0.267  28.431  0.00  0.00    -0.018 A 
ATOM      4  C   UNL A   1     -22.768   0.732  28.443  0.00  0.00    -0.004 A 
ATOM      5  C   UNL A   1     -23.637   1.491  26.278  0.00  0.00    -0.000 A 
ATOM      6  C   UNL A   1     -22.718   1.571  27.314  0.00  0.00    -0.001 A 
ENDROOT
BRANCH   2   7
ATOM      7  C   UNL A   1     -25.551   0.488  25.217  0.00  0.00    +0.251 C 
ATOM      8  O   UNL A   1     -25.310   0.027  24.173  0.00  0.00    -0.196 OA
BRANCH   7   9
ATOM      9  N   UNL A   1     -26.767   0.991  25.498  0.00  0.00    -0.278 N 
BRANCH   9  10
ATOM     10  C   UNL A   1     -27.010   1.967  26.576  0.00  0.00    +0.050 A 
ATOM     11  C   UNL A   1     -27.602   1.675  27.743  0.00  0.00    +0.015 A 
ATOM     12  C   UNL A   1     -27.203   2.012  28.694  0.00  0.00    +0.001 A 
ATOM     13  C   UNL A   1     -26.280   3.198  28.849  0.00  0.00    +0.000 A 
ATOM     14  C   UNL A   1     -26.623   3.265  26.152  0.00  0.00    +0.015 A 
ATOM     15  C   UNL A   1     -26.027   3.906  27.432  0.00  0.00    +0.001 A 
ENDBRANCH   9  10
BRANCH   9  16
ATOM     16  C   UNL A   1     -27.828   0.727  24.602  0.00  0.00    +0.098 C 
ATOM     17  C   UNL A   1     -28.082   1.767  23.645  0.00  0.00    +0.026 C 
BRANCH  16  18
ATOM     18  C   UNL A   1     -28.588  -0.290  24.693  0.00  0.00    -0.007 C 
ATOM     19  C   UNL A   1     -28.984  -1.054  23.641  0.00  0.00    -0.003 C 
ENDBRANCH  16  18
ENDBRANCH   9  16
ENDBRANCH   7   9
ENDBRANCH   2   7
BRANCH   3  20
ATOM     20  C   UNL A   1     -23.771  -1.179  29.597  0.00  0.00    +0.053 C 
BRANCH  20  21
ATOM     21  C   UNL A   1     -24.570  -2.387  29.391  0.00  0.00    -0.018 A 
ATOM     22  C   UNL A   1     -23.872  -3.450  28.908  0.00  0.00    -0.004 A 
ATOM     23  C   UNL A   1     -24.518  -4.766  28.937  0.00  0.00    -0.000 A 
ATOM     24  C   UNL A   1     -25.860  -2.519  29.818  0.00  0.00    -0.004 A 
ATOM     25  C   UNL A   1     -25.852  -4.834  29.339  0.00  0.00    -0.000 A 
ATOM     26  C   UNL A   1     -26.521  -3.740  29.774  0.00  0.00    -0.000 A 
BRANCH  24  27
ATOM     27  C   UNL A   1     -26.530  -1.355  30.384  0.00  0.00    -0.004 C 
ATOM     28  C   UNL A   1     -26.248  -0.989  31.738  0.00  0.00    -0.021 C 
BRANCH  28  29
ATOM     29  C   UNL A   1     -26.856   0.136  32.252  0.00  0.00    +0.052 C 
BRANCH  29  30
ATOM     30  C   UNL A   1     -26.408   1.229  32.271  0.00  0.00    -0.018 A 
ATOM     31  C   UNL A   1     -27.055   2.405  32.642  0.00  0.00    -0.004 A 
ATOM     32  C   UNL A   1     -26.532   3.686  32.667  0.00  0.00    -0.000 A 
ATOM     33  C   UNL A   1     -25.156   3.803  32.354  0.00  0.00    -0.000 A 
ATOM     34  C   UNL A   1     -24.412   2.769  31.939  0.00  0.00    -0.000 A 
ATOM     35  C   UNL A   1     -24.946   1.515  31.887  0.00  0.00    -0.004 A 
ENDBRANCH  29  30
ENDBRANCH  28  29
ENDBRANCH  24  27
ENDBRANCH  20  21
ENDBRANCH   3  20
TORSDOF 10
ENDMDL
ENDMDL
