REMARK  Name = No_3403-gen_results/8p0m/2024-11-26-14-13-15/
REMARK  10 active torsions:
REMARK  status: ('A' for Active; 'I' for Inactive)
REMARK    1  A    between atoms: C_2  and  C_7
REMARK    2  A    between atoms: C_3  and  C_17
REMARK    3  A    between atoms: C_7  and  N_9
REMARK    4  A    between atoms: N_9  and  C_10
REMARK    5  A    between atoms: N_9  and  C_11
REMARK    6  A    between atoms: C_10  and  C_33
REMARK    7  A    between atoms: C_17  and  C_18
REMARK    8  A    between atoms: C_21  and  C_22
REMARK    9  A    between atoms: C_25  and  C_26
REMARK   10  A    between atoms: C_26  and  C_27
REMARK                            x       y       z     vdW  Elec       q    Type
REMARK                         _______ _______ _______ _____ _____    ______ ____
ROOT
ATOM      1  C   UNL A   1     -28.016  -0.814  28.878  0.00  0.00    -0.004 A 
ATOM      2  C   UNL A   1     -28.469  -0.785  29.829  0.00  0.00    +0.027 A 
ATOM      3  C   UNL A   1     -26.504  -0.778  28.877  0.00  0.00    -0.018 A 
ATOM      4  C   UNL A   1     -25.810  -0.853  30.103  0.00  0.00    -0.004 A 
ATOM      5  C   UNL A   1     -27.991  -0.892  31.226  0.00  0.00    -0.000 A 
ATOM      6  C   UNL A   1     -26.604  -0.868  31.265  0.00  0.00    -0.001 A 
ENDROOT
BRANCH   2   7
ATOM      7  C   UNL A   1     -30.077  -0.886  30.024  0.00  0.00    +0.251 C 
ATOM      8  O   UNL A   1     -30.641  -1.899  30.142  0.00  0.00    -0.196 OA
BRANCH   7   9
ATOM      9  N   UNL A   1     -30.692   0.290  30.246  0.00  0.00    -0.278 N 
BRANCH   9  10
ATOM     10  C   UNL A   1     -29.991   1.586  30.236  0.00  0.00    +0.050 A 
ATOM     11  C   UNL A   1     -29.700   2.283  29.128  0.00  0.00    +0.015 A 
ATOM     12  C   UNL A   1     -29.882   3.349  29.051  0.00  0.00    +0.001 A 
ATOM     13  C   UNL A   1     -30.005   4.272  30.240  0.00  0.00    +0.000 A 
ATOM     14  C   UNL A   1     -29.584   1.928  31.552  0.00  0.00    +0.015 A 
ATOM     15  C   UNL A   1     -29.775   3.466  31.607  0.00  0.00    +0.001 A 
ENDBRANCH   9  10
BRANCH   9  16
ATOM     16  C   UNL A   1     -32.105   0.310  30.299  0.00  0.00    +0.098 C 
ATOM     17  C   UNL A   1     -32.759   0.088  29.040  0.00  0.00    +0.026 C 
BRANCH  16  18
ATOM     18  C   UNL A   1     -32.765   0.617  31.344  0.00  0.00    -0.007 C 
ATOM     19  C   UNL A   1     -34.106   0.831  31.373  0.00  0.00    -0.003 C 
ENDBRANCH  16  18
ENDBRANCH   9  16
ENDBRANCH   7   9
ENDBRANCH   2   7
BRANCH   3  20
ATOM     20  C   UNL A   1     -25.657  -0.705  27.665  0.00  0.00    +0.053 C 
BRANCH  20  21
ATOM     21  C   UNL A   1     -25.251   0.656  27.315  0.00  0.00    -0.018 A 
ATOM     22  C   UNL A   1     -24.002   0.998  27.732  0.00  0.00    -0.004 A 
ATOM     23  C   UNL A   1     -23.409   2.225  27.190  0.00  0.00    -0.000 A 
ATOM     24  C   UNL A   1     -25.967   1.465  26.480  0.00  0.00    -0.004 A 
ATOM     25  C   UNL A   1     -24.203   3.035  26.379  0.00  0.00    -0.000 A 
ATOM     26  C   UNL A   1     -25.458   2.674  26.023  0.00  0.00    -0.000 A 
BRANCH  24  27
ATOM     27  C   UNL A   1     -27.273   1.011  26.020  0.00  0.00    -0.004 C 
ATOM     28  C   UNL A   1     -27.456   0.740  24.627  0.00  0.00    -0.021 C 
BRANCH  28  29
ATOM     29  C   UNL A   1     -28.683   0.273  24.207  0.00  0.00    +0.052 C 
BRANCH  29  30
ATOM     30  C   UNL A   1     -29.738   0.735  24.471  0.00  0.00    -0.018 A 
ATOM     31  C   UNL A   1     -30.991   0.257  24.098  0.00  0.00    -0.004 A 
ATOM     32  C   UNL A   1     -32.228   0.795  24.407  0.00  0.00    -0.000 A 
ATOM     33  C   UNL A   1     -32.220   1.920  25.268  0.00  0.00    -0.000 A 
ATOM     34  C   UNL A   1     -31.093   2.518  25.676  0.00  0.00    -0.000 A 
ATOM     35  C   UNL A   1     -29.878   1.998  25.339  0.00  0.00    -0.004 A 
ENDBRANCH  29  30
ENDBRANCH  28  29
ENDBRANCH  24  27
ENDBRANCH  20  21
ENDBRANCH   3  20
TORSDOF 10
