MODEL 3404
MODEL 1
REMARK VINA RESULT:    -7.397      0.000      0.000
REMARK INTER + INTRA:          -8.873
REMARK INTER:                  -8.261
REMARK INTRA:                  -0.612
REMARK UNBOUND:                -0.612
REMARK  Name = No_3404-gen_results/8p0m/2024-11-26-14-13-15/
REMARK  2 active torsions:
REMARK  status: ('A' for Active; 'I' for Inactive)
REMARK    1  A    between atoms: C_5  and  N_14
REMARK    2  A    between atoms: C_8  and  C_11
REMARK                            x       y       z     vdW  Elec       q    Type
REMARK                         _______ _______ _______ _____ _____    ______ ____
ROOT
ATOM      1  C   UNL A   1     -29.264  -7.175   9.334  0.00  0.00    -0.006 C 
ATOM      2  C   UNL A   1     -29.851  -8.213   9.539  0.00  0.00    -0.036 C 
ATOM      3  C   UNL A   1     -31.078  -8.324  10.170  0.00  0.00    +0.029 C 
ATOM      4  C   UNL A   1     -31.707  -7.113  10.582  0.00  0.00    +0.046 C 
ATOM      5  C   UNL A   1     -31.114  -5.969  10.204  0.00  0.00    +0.033 C 
ATOM      6  C   UNL A   1     -29.977  -5.960   9.570  0.00  0.00    +0.010 C 
ATOM      7  C   UNL A   1     -31.700  -9.649  10.526  0.00  0.00    +0.038 C 
ATOM      8  C   UNL A   1     -30.815 -10.659  10.571  0.00  0.00    +0.065 C 
ATOM      9  C   UNL A   1     -29.560 -10.651   9.941  0.00  0.00    -0.015 C 
ATOM     10  C   UNL A   1     -29.054  -9.525   9.497  0.00  0.00    +0.062 C 
ATOM     11  C   UNL A   1     -27.646  -9.487   9.050  0.00  0.00    -0.015 C 
ATOM     12  C   UNL A   1     -26.908 -10.244   9.137  0.00  0.00    -0.004 C 
ATOM     13  C   UNL A   1     -27.279  -8.135   8.452  0.00  0.00    -0.004 C 
ATOM     14  C   UNL A   1     -27.991  -6.990   8.665  0.00  0.00    -0.001 C 
ENDROOT
BRANCH   5  15
ATOM     15  N   UNL A   1     -31.808  -4.781  10.485  0.00  0.00    -0.268 N 
ATOM     16  C   UNL A   1     -31.756  -3.769   9.769  0.00  0.00    +0.065 C 
ATOM     17  C   UNL A   1     -32.536  -4.667  11.736  0.00  0.00    +0.065 C 
ATOM     18  C   UNL A   1     -32.143  -2.580  10.187  0.00  0.00    -0.005 C 
ATOM     19  C   UNL A   1     -32.863  -3.460  12.244  0.00  0.00    -0.005 C 
ATOM     20  C   UNL A   1     -32.849  -2.379  11.390  0.00  0.00    +0.055 C 
ENDBRANCH   5  15
BRANCH   8  21
ATOM     21  C   UNL A   1     -31.409 -12.078  10.857  0.00  0.00    +0.406 C 
ATOM     22  N   UNL A   1     -31.384 -12.554  12.103  0.00  0.00    -0.054 NA
ATOM     23  N   UNL A   1     -32.081 -12.740   9.905  0.00  0.00    +0.215 NA
ATOM     24  C   UNL A   1     -30.665 -12.138  13.102  0.00  0.00    +0.321 C 
ENDBRANCH   8  21
TORSDOF 2
ENDMDL
ENDMDL
