REMARK  Name = No_3404-gen_results/8p0m/2024-11-26-14-13-15/
REMARK  2 active torsions:
REMARK  status: ('A' for Active; 'I' for Inactive)
REMARK    1  A    between atoms: C_5  and  N_14
REMARK    2  A    between atoms: C_8  and  C_11
REMARK                            x       y       z     vdW  Elec       q    Type
REMARK                         _______ _______ _______ _____ _____    ______ ____
ROOT
ATOM      1  C   UNL A   1     -28.016  -0.814  28.878  0.00  0.00    -0.006 C 
ATOM      2  C   UNL A   1     -27.064  -0.119  28.608  0.00  0.00    -0.036 C 
ATOM      3  C   UNL A   1     -26.972   0.714  27.506  0.00  0.00    +0.029 C 
ATOM      4  C   UNL A   1     -28.105   0.774  26.642  0.00  0.00    +0.046 C 
ATOM      5  C   UNL A   1     -29.204   0.118  27.048  0.00  0.00    +0.033 C 
ATOM      6  C   UNL A   1     -29.213  -0.609  28.128  0.00  0.00    +0.010 C 
ATOM      7  C   UNL A   1     -25.711   1.452  27.138  0.00  0.00    +0.038 C 
ATOM      8  C   UNL A   1     -24.605   0.925  27.690  0.00  0.00    +0.065 C 
ATOM      9  C   UNL A   1     -24.594   0.094  28.822  0.00  0.00    -0.015 C 
ATOM     10  C   UNL A   1     -25.708  -0.453  29.247  0.00  0.00    +0.062 C 
ATOM     11  C   UNL A   1     -25.652  -1.501  30.287  0.00  0.00    -0.015 C 
ATOM     12  C   UNL A   1     -24.797  -1.983  30.689  0.00  0.00    -0.004 C 
ATOM     13  C   UNL A   1     -27.044  -1.923  30.740  0.00  0.00    -0.004 C 
ATOM     14  C   UNL A   1     -28.181  -1.690  30.022  0.00  0.00    -0.001 C 
ENDROOT
BRANCH   5  15
ATOM     15  N   UNL A   1     -30.361   0.295  26.272  0.00  0.00    -0.268 N 
ATOM     16  C   UNL A   1     -31.491   0.475  26.753  0.00  0.00    +0.065 C 
ATOM     17  C   UNL A   1     -30.275   0.144  24.830  0.00  0.00    +0.065 C 
ATOM     18  C   UNL A   1     -32.596   0.328  26.050  0.00  0.00    -0.005 C 
ATOM     19  C   UNL A   1     -31.375  -0.105  24.089  0.00  0.00    -0.005 C 
ATOM     20  C   UNL A   1     -32.603   0.171  24.649  0.00  0.00    +0.055 C 
ENDBRANCH   5  15
BRANCH   8  21
ATOM     21  C   UNL A   1     -23.270   1.692  27.412  0.00  0.00    +0.406 C 
ATOM     22  N   UNL A   1     -22.120   1.173  27.846  0.00  0.00    -0.054 NA
ATOM     23  N   UNL A   1     -23.255   2.767  26.611  0.00  0.00    +0.215 NA
ATOM     24  C   UNL A   1     -21.949   0.247  28.740  0.00  0.00    +0.321 C 
ENDBRANCH   8  21
TORSDOF 2
