REMARK  Name = No_3405-gen_results/8p0m/2024-11-26-14-13-15/
REMARK  2 active torsions:
REMARK  status: ('A' for Active; 'I' for Inactive)
REMARK    1  A    between atoms: C_3  and  C_7
REMARK    2  A    between atoms: C_7  and  C_8
REMARK                            x       y       z     vdW  Elec       q    Type
REMARK                         _______ _______ _______ _____ _____    ______ ____
ROOT
ATOM      1  C   UNL A   1     -26.388   0.291  27.233  0.00  0.00    +0.053 C 
ENDROOT
BRANCH   1   4
ATOM      2  C   UNL A   1     -28.016  -0.814  28.878  0.00  0.00    -0.004 A 
ATOM      3  C   UNL A   1     -28.469  -0.785  29.829  0.00  0.00    -0.000 A 
ATOM      4  C   UNL A   1     -27.136   0.236  28.535  0.00  0.00    -0.018 A 
ATOM      5  C   UNL A   1     -26.875   1.282  29.398  0.00  0.00    -0.004 A 
ATOM      6  C   UNL A   1     -28.361   0.199  30.924  0.00  0.00    -0.000 A 
ATOM      7  C   UNL A   1     -27.528   1.223  30.636  0.00  0.00    -0.000 A 
ENDBRANCH   1   4
BRANCH   1   8
ATOM      8  C   UNL A   1     -26.494   0.973  26.286  0.00  0.00    -0.018 A 
ATOM      9  C   UNL A   1     -27.476   2.065  26.365  0.00  0.00    -0.004 A 
ATOM     10  C   UNL A   1     -28.125   2.466  25.148  0.00  0.00    -0.000 A 
ATOM     11  C   UNL A   1     -27.748   1.893  23.942  0.00  0.00    -0.000 A 
ATOM     12  C   UNL A   1     -26.932   0.816  23.903  0.00  0.00    -0.000 A 
ATOM     13  C   UNL A   1     -26.381   0.314  24.975  0.00  0.00    -0.004 A 
ENDBRANCH   1   8
TORSDOF 2
