MODEL 3405
MODEL 1
REMARK VINA RESULT:    -6.685      0.000      0.000
REMARK INTER + INTRA:          -7.921
REMARK INTER:                  -7.466
REMARK INTRA:                  -0.455
REMARK UNBOUND:                -0.455
REMARK  Name = No_3405-gen_results/8p0m/2024-11-26-14-13-15/
REMARK  2 active torsions:
REMARK  status: ('A' for Active; 'I' for Inactive)
REMARK    1  A    between atoms: C_3  and  C_7
REMARK    2  A    between atoms: C_7  and  C_8
REMARK                            x       y       z     vdW  Elec       q    Type
REMARK                         _______ _______ _______ _____ _____    ______ ____
ROOT
ATOM      1  C   UNL A   1     -23.777  -1.590  29.568  0.00  0.00    +0.053 C 
ENDROOT
BRANCH   1   4
ATOM      2  C   UNL A   1     -21.570  -0.432  28.961  0.00  0.00    -0.004 A 
ATOM      3  C   UNL A   1     -21.092   0.329  28.410  0.00  0.00    -0.000 A 
ATOM      4  C   UNL A   1     -22.977  -0.524  28.874  0.00  0.00    -0.018 A 
ATOM      5  C   UNL A   1     -23.721   0.354  28.110  0.00  0.00    -0.004 A 
ATOM      6  C   UNL A   1     -21.641   1.377  27.528  0.00  0.00    -0.000 A 
ATOM      7  C   UNL A   1     -22.987   1.326  27.418  0.00  0.00    -0.000 A 
ENDBRANCH   1   4
BRANCH   1   8
ATOM      8  C   UNL A   1     -24.471  -2.446  29.170  0.00  0.00    -0.018 A 
ATOM      9  C   UNL A   1     -25.818  -2.530  29.755  0.00  0.00    -0.004 A 
ATOM     10  C   UNL A   1     -26.422  -3.829  29.848  0.00  0.00    -0.000 A 
ATOM     11  C   UNL A   1     -25.777  -4.933  29.310  0.00  0.00    -0.000 A 
ATOM     12  C   UNL A   1     -24.496  -4.857  28.883  0.00  0.00    -0.000 A 
ATOM     13  C   UNL A   1     -23.829  -3.734  28.864  0.00  0.00    -0.004 A 
ENDBRANCH   1   8
TORSDOF 2
ENDMDL
ENDMDL
