MODEL 3406
MODEL 1
REMARK VINA RESULT:    -6.550      0.000      0.000
REMARK INTER + INTRA:          -7.281
REMARK INTER:                  -6.933
REMARK INTRA:                  -0.348
REMARK UNBOUND:                -0.348
REMARK  Name = No_3406-gen_results/8p0m/2024-11-26-14-13-15/
REMARK  1 active torsions:
REMARK  status: ('A' for Active; 'I' for Inactive)
REMARK    1  A    between atoms: C_2  and  C_7
REMARK                            x       y       z     vdW  Elec       q    Type
REMARK                         _______ _______ _______ _____ _____    ______ ____
ROOT
ATOM      1  C   UNL A   1     -25.596  -2.558  29.444  0.00  0.00    +0.000 A 
ATOM      2  C   UNL A   1     -24.524  -2.750  28.919  0.00  0.00    +0.000 A 
ATOM      3  C   UNL A   1     -24.082  -4.039  28.641  0.00  0.00    +0.000 A 
ATOM      4  C   UNL A   1     -24.867  -5.188  29.013  0.00  0.00    +0.000 A 
ATOM      5  C   UNL A   1     -26.081  -4.875  29.637  0.00  0.00    +0.000 A 
ATOM      6  C   UNL A   1     -26.446  -3.639  29.892  0.00  0.00    +0.000 A 
ENDROOT
BRANCH   2   7
ATOM      7  C   UNL A   1     -23.699  -1.574  28.643  0.00  0.00    +0.000 A 
ATOM      8  C   UNL A   1     -22.628  -1.309  29.250  0.00  0.00    +0.000 A 
ATOM      9  C   UNL A   1     -21.853  -0.121  29.073  0.00  0.00    +0.000 A 
ATOM     10  C   UNL A   1     -22.334   0.924  28.274  0.00  0.00    +0.000 A 
ATOM     11  C   UNL A   1     -23.563   0.732  27.673  0.00  0.00    +0.000 A 
ATOM     12  C   UNL A   1     -24.290  -0.416  27.883  0.00  0.00    +0.000 A 
ENDBRANCH   2   7
TORSDOF 1
ENDMDL
ENDMDL
