REMARK  Name = No_3406-gen_results/8p0m/2024-11-26-14-13-15/
REMARK  1 active torsions:
REMARK  status: ('A' for Active; 'I' for Inactive)
REMARK    1  A    between atoms: C_2  and  C_7
REMARK                            x       y       z     vdW  Elec       q    Type
REMARK                         _______ _______ _______ _____ _____    ______ ____
ROOT
ATOM      1  C   UNL A   1     -28.016  -0.814  28.878  0.00  0.00    +0.000 A 
ATOM      2  C   UNL A   1     -27.064  -0.119  28.608  0.00  0.00    +0.000 A 
ATOM      3  C   UNL A   1     -25.792  -0.430  29.076  0.00  0.00    +0.000 A 
ATOM      4  C   UNL A   1     -25.576  -1.565  29.936  0.00  0.00    +0.000 A 
ATOM      5  C   UNL A   1     -26.735  -2.300  30.217  0.00  0.00    +0.000 A 
ATOM      6  C   UNL A   1     -27.918  -1.954  29.763  0.00  0.00    +0.000 A 
ENDROOT
BRANCH   2   7
ATOM      7  C   UNL A   1     -27.324   1.085  27.819  0.00  0.00    +0.000 A 
ATOM      8  C   UNL A   1     -27.726   1.071  26.626  0.00  0.00    +0.000 A 
ATOM      9  C   UNL A   1     -27.895   2.225  25.799  0.00  0.00    +0.000 A 
ATOM     10  C   UNL A   1     -27.477   3.483  26.248  0.00  0.00    +0.000 A 
ATOM     11  C   UNL A   1     -26.921   3.539  27.512  0.00  0.00    +0.000 A 
ATOM     12  C   UNL A   1     -26.755   2.404  28.271  0.00  0.00    +0.000 A 
ENDBRANCH   2   7
TORSDOF 1
