MODEL 3407
MODEL 1
REMARK VINA RESULT:    -7.403      0.000      0.000
REMARK INTER + INTRA:         -13.080
REMARK INTER:                 -10.866
REMARK INTRA:                  -2.214
REMARK UNBOUND:                -2.214
REMARK  Name = No_3407-gen_results/8p0m/2024-11-26-14-13-15/
REMARK  8 active torsions:
REMARK  status: ('A' for Active; 'I' for Inactive)
REMARK    1  A    between atoms: C_4  and  C_5
REMARK    2  A    between atoms: C_6  and  C_14
REMARK    3  A    between atoms: C_14  and  C_15
REMARK    4  A    between atoms: C_14  and  C_21
REMARK    5  A    between atoms: C_22  and  C_27
REMARK    6  A    between atoms: C_26  and  C_32
REMARK    7  A    between atoms: C_27  and  C_28
REMARK    8  A    between atoms: C_28  and  C_29
REMARK                            x       y       z     vdW  Elec       q    Type
REMARK                         _______ _______ _______ _____ _____    ______ ____
ROOT
ATOM      1  C   UNL A   1      -9.908   0.519  37.555  0.00  0.00    +0.053 C 
ENDROOT
BRANCH   1   6
ATOM      2  O   UNL A   1      -7.642   2.173  37.533  0.00  0.00    -0.273 OA
ATOM      3  C   UNL A   1      -7.576   1.245  36.852  0.00  0.00    +0.242 C 
ATOM      4  N   UNL A   1      -6.490   0.914  36.273  0.00  0.00    -0.203 NA
ATOM      5  C   UNL A   1      -6.361  -0.069  35.188  0.00  0.00    +0.117 C 
ATOM      6  C   UNL A   1      -8.727   0.173  36.792  0.00  0.00    +0.086 C 
ATOM      7  C   UNL A   1      -7.558  -0.812  34.947  0.00  0.00    +0.027 C 
ATOM      8  C   UNL A   1      -8.717  -0.723  35.735  0.00  0.00    +0.012 C 
BRANCH   5   9
ATOM      9  C   UNL A   1      -5.170  -0.287  34.607  0.00  0.00    -0.003 A 
ATOM     10  C   UNL A   1      -4.157   0.452  34.629  0.00  0.00    -0.003 A 
ATOM     11  C   UNL A   1      -2.828   0.112  34.055  0.00  0.00    -0.000 A 
ATOM     12  C   UNL A   1      -2.649  -1.272  33.827  0.00  0.00    -0.000 A 
ATOM     13  C   UNL A   1      -3.663  -2.197  33.958  0.00  0.00    -0.000 A 
ATOM     14  C   UNL A   1      -4.871  -1.771  34.437  0.00  0.00    -0.003 A 
ENDBRANCH   5   9
ENDBRANCH   1   6
BRANCH   1  15
ATOM     15  C   UNL A   1     -10.342  -0.344  38.232  0.00  0.00    -0.018 A 
ATOM     16  C   UNL A   1      -9.801  -0.593  39.581  0.00  0.00    -0.008 A 
ATOM     17  C   UNL A   1     -10.317  -1.553  40.435  0.00  0.00    -0.022 A 
ATOM     18  C   UNL A   1     -11.385  -2.334  39.963  0.00  0.00    -0.004 A 
ATOM     19  C   UNL A   1     -11.904  -2.158  38.699  0.00  0.00    -0.001 A 
ATOM     20  C   UNL A   1     -11.447  -1.209  37.862  0.00  0.00    -0.004 A 
ATOM     21  C   UNL A   1      -9.744  -1.714  41.768  0.00  0.00    +0.031 C 
ENDBRANCH   1  15
BRANCH   1  22
ATOM     22  C   UNL A   1     -10.899   1.181  36.621  0.00  0.00    -0.022 A 
ATOM     23  C   UNL A   1     -11.832   2.163  37.080  0.00  0.00    -0.025 A 
ATOM     24  C   UNL A   1     -11.021   0.811  35.258  0.00  0.00    -0.004 A 
ATOM     25  C   UNL A   1     -11.969   1.373  34.436  0.00  0.00    +0.006 A 
ATOM     26  C   UNL A   1     -12.789   2.680  36.255  0.00  0.00    +0.002 A 
ATOM     27  C   UNL A   1     -12.852   2.297  34.938  0.00  0.00    +0.079 A 
BRANCH  27  28
ATOM     28  C   UNL A   1     -13.901   2.907  34.054  0.00  0.00    +0.388 C 
ATOM     29  O   UNL A   1     -14.893   3.369  34.599  0.00  0.00    -0.241 OA
ATOM     30  O   UNL A   1     -13.807   2.736  32.819  0.00  0.00    -0.241 OA
ENDBRANCH  27  28
BRANCH  23  31
ATOM     31  C   UNL A   1     -11.716   2.554  38.431  0.00  0.00    +0.038 C 
BRANCH  31  32
ATOM     32  C   UNL A   1     -12.896   2.128  39.214  0.00  0.00    +0.119 C 
BRANCH  32  33
ATOM     33  C   UNL A   1     -12.660   1.859  40.495  0.00  0.00    +0.365 C 
ATOM     34  O   UNL A   1     -12.939   0.683  40.875  0.00  0.00    -0.246 OA
ATOM     35  O   UNL A   1     -12.392   2.682  41.427  0.00  0.00    -0.246 OA
ENDBRANCH  32  33
ENDBRANCH  31  32
ENDBRANCH  23  31
ENDBRANCH   1  22
TORSDOF 8
ENDMDL
ENDMDL
