MODEL 3408
MODEL 1
REMARK VINA RESULT:    -9.593      0.000      0.000
REMARK INTER + INTRA:         -13.951
REMARK INTER:                 -11.837
REMARK INTRA:                  -2.115
REMARK UNBOUND:                -2.115
REMARK  Name = No_3408-gen_results/8p0m/2024-11-26-14-13-15/
REMARK  4 active torsions:
REMARK  status: ('A' for Active; 'I' for Inactive)
REMARK    1  A    between atoms: C_6  and  C_8
REMARK    2  A    between atoms: C_12  and  C_21
REMARK    3  A    between atoms: C_21  and  C_22
REMARK    4  A    between atoms: C_31  and  C_32
REMARK                            x       y       z     vdW  Elec       q    Type
REMARK                         _______ _______ _______ _____ _____    ______ ____
ROOT
ATOM      1  C   UNL A   1     -26.918   0.702  26.099  0.00  0.00    +0.266 C 
ATOM      2  N   UNL A   1     -27.212   0.456  27.262  0.00  0.00    -0.182 N 
ATOM      3  O   UNL A   1     -25.709   0.936  25.771  0.00  0.00    -0.268 OA
ATOM      4  C   UNL A   1     -26.226   0.298  28.354  0.00  0.00    +0.140 C 
ATOM      5  C   UNL A   1     -26.511  -0.584  29.222  0.00  0.00    -0.019 C 
ATOM      6  C   UNL A   1     -27.076  -0.435  30.168  0.00  0.00    -0.005 C 
ATOM      7  C   UNL A   1     -27.957   0.663  30.255  0.00  0.00    +0.016 A 
ATOM      8  C   UNL A   1     -28.491   1.332  31.143  0.00  0.00    +0.001 A 
ATOM      9  C   UNL A   1     -29.458   2.408  31.031  0.00  0.00    +0.000 A 
ATOM     10  C   UNL A   1     -29.823   2.774  29.721  0.00  0.00    +0.001 A 
ATOM     11  C   UNL A   1     -29.281   2.046  28.646  0.00  0.00    +0.018 A 
ATOM     12  C   UNL A   1     -28.436   1.057  28.883  0.00  0.00    +0.087 A 
ATOM     13  N   UNL A   1     -27.992   0.445  27.823  0.00  0.00    -0.144 NA
ENDROOT
BRANCH   1  19
ATOM     14  C   UNL A   1     -28.917  -0.276  24.773  0.00  0.00    +0.011 A 
ATOM     15  C   UNL A   1     -29.820  -0.143  23.980  0.00  0.00    +0.035 A 
ATOM     16  C   UNL A   1     -29.970   1.034  23.254  0.00  0.00    +0.007 A 
ATOM     17  C   UNL A   1     -29.082   2.148  23.458  0.00  0.00    +0.001 A 
ATOM     18  C   UNL A   1     -28.081   1.917  24.410  0.00  0.00    +0.005 A 
ATOM     19  C   UNL A   1     -27.992   0.792  25.082  0.00  0.00    +0.056 A 
ATOM     20 BR   UNL A   1     -31.102  -1.471  23.610  0.00  0.00    -0.049 Br
ENDBRANCH   1  19
BRANCH   5  21
ATOM     21  C   UNL A   1     -25.037  -1.357  29.439  0.00  0.00    +0.036 C 
ATOM     22  C   UNL A   1     -23.961  -0.600  28.701  0.00  0.00    +0.009 C 
ATOM     23  C   UNL A   1     -24.813  -1.205  31.053  0.00  0.00    +0.008 C 
ATOM     24  C   UNL A   1     -23.670  -0.670  31.503  0.00  0.00    +0.001 C 
ATOM     25  C   UNL A   1     -22.764  -0.131  29.285  0.00  0.00    +0.016 C 
ATOM     26  C   UNL A   1     -22.722  -0.138  30.697  0.00  0.00    +0.001 C 
BRANCH  21  27
ATOM     27  C   UNL A   1     -25.037  -2.631  29.259  0.00  0.00    -0.019 A 
ATOM     28  C   UNL A   1     -23.986  -3.291  28.663  0.00  0.00    -0.004 A 
ATOM     29  C   UNL A   1     -24.008  -4.766  28.443  0.00  0.00    -0.000 A 
ATOM     30  C   UNL A   1     -25.117  -5.451  29.038  0.00  0.00    -0.000 A 
ATOM     31  C   UNL A   1     -26.145  -4.768  29.623  0.00  0.00    -0.000 A 
ATOM     32  C   UNL A   1     -26.125  -3.486  29.774  0.00  0.00    -0.004 A 
ENDBRANCH  21  27
BRANCH  25  33
ATOM     33  C   UNL A   1     -21.810   0.460  28.472  0.00  0.00    +0.080 C 
ATOM     34 CL   UNL A   1     -20.348   0.063  28.254  0.00  0.00    -0.115 Cl
ATOM     35  C   UNL A   1     -22.262   1.649  27.620  0.00  0.00    +0.018 C 
ENDBRANCH  25  33
ENDBRANCH   5  21
TORSDOF 4
ENDMDL
ENDMDL
