REMARK  Name = No_3408-gen_results/8p0m/2024-11-26-14-13-15/
REMARK  4 active torsions:
REMARK  status: ('A' for Active; 'I' for Inactive)
REMARK    1  A    between atoms: C_6  and  C_8
REMARK    2  A    between atoms: C_12  and  C_21
REMARK    3  A    between atoms: C_21  and  C_22
REMARK    4  A    between atoms: C_31  and  C_32
REMARK                            x       y       z     vdW  Elec       q    Type
REMARK                         _______ _______ _______ _____ _____    ______ ____
ROOT
ATOM      1  C   UNL A   1     -29.067  -2.790  30.183  0.00  0.00    +0.266 C 
ATOM      2  N   UNL A   1     -30.193  -2.307  30.179  0.00  0.00    -0.182 N 
ATOM      3  O   UNL A   1     -28.872  -3.979  30.597  0.00  0.00    -0.268 OA
ATOM      4  C   UNL A   1     -31.420  -3.055  30.533  0.00  0.00    +0.140 C 
ATOM      5  C   UNL A   1     -32.453  -2.757  29.858  0.00  0.00    -0.019 C 
ATOM      6  C   UNL A   1     -33.218  -1.989  30.108  0.00  0.00    -0.005 C 
ATOM      7  C   UNL A   1     -32.846  -0.928  30.960  0.00  0.00    +0.016 A 
ATOM      8  C   UNL A   1     -33.409  -0.109  31.691  0.00  0.00    +0.001 A 
ATOM      9  C   UNL A   1     -32.843   0.989  32.451  0.00  0.00    +0.000 A 
ATOM     10  C   UNL A   1     -31.444   1.132  32.380  0.00  0.00    +0.001 A 
ATOM     11  C   UNL A   1     -30.723   0.255  31.548  0.00  0.00    +0.018 A 
ATOM     12  C   UNL A   1     -31.363  -0.684  30.872  0.00  0.00    +0.087 A 
ATOM     13  N   UNL A   1     -30.608  -1.442  30.131  0.00  0.00    -0.144 NA
ENDROOT
BRANCH   1  19
ATOM     14  C   UNL A   1     -28.016  -0.814  28.878  0.00  0.00    +0.011 A 
ATOM     15  C   UNL A   1     -27.064  -0.119  28.608  0.00  0.00    +0.035 A 
ATOM     16  C   UNL A   1     -25.792  -0.430  29.076  0.00  0.00    +0.007 A 
ATOM     17  C   UNL A   1     -25.576  -1.565  29.936  0.00  0.00    +0.001 A 
ATOM     18  C   UNL A   1     -26.735  -2.300  30.217  0.00  0.00    +0.005 A 
ATOM     19  C   UNL A   1     -27.918  -1.954  29.763  0.00  0.00    +0.056 A 
ATOM     20 BR   UNL A   1     -27.157   1.425  27.535  0.00  0.00    -0.049 Br
ENDBRANCH   1  19
BRANCH   5  21
ATOM     21  C   UNL A   1     -33.107  -4.267  29.526  0.00  0.00    +0.036 C 
ATOM     22  C   UNL A   1     -33.734  -4.827  30.778  0.00  0.00    +0.009 C 
ATOM     23  C   UNL A   1     -34.273  -3.896  28.440  0.00  0.00    +0.008 C 
ATOM     24  C   UNL A   1     -35.527  -4.310  28.666  0.00  0.00    +0.001 C 
ATOM     25  C   UNL A   1     -35.067  -5.284  30.873  0.00  0.00    +0.016 C 
ATOM     26  C   UNL A   1     -35.920  -4.928  29.804  0.00  0.00    +0.001 C 
BRANCH  21  27
ATOM     27  C   UNL A   1     -32.347  -5.079  28.879  0.00  0.00    -0.019 A 
ATOM     28  C   UNL A   1     -32.799  -6.289  28.402  0.00  0.00    -0.004 A 
ATOM     29  C   UNL A   1     -31.902  -7.229  27.670  0.00  0.00    -0.000 A 
ATOM     30  C   UNL A   1     -30.601  -6.712  27.364  0.00  0.00    -0.000 A 
ATOM     31  C   UNL A   1     -30.182  -5.507  27.852  0.00  0.00    -0.000 A 
ATOM     32  C   UNL A   1     -30.962  -4.720  28.514  0.00  0.00    -0.004 A 
ENDBRANCH  21  27
BRANCH  25  33
ATOM     33  C   UNL A   1     -35.489  -5.873  32.054  0.00  0.00    +0.080 C 
ATOM     34 CL   UNL A   1     -36.803  -6.597  32.356  0.00  0.00    -0.115 Cl
ATOM     35  C   UNL A   1     -34.507  -5.859  33.229  0.00  0.00    +0.018 C 
ENDBRANCH  25  33
ENDBRANCH   5  21
TORSDOF 4
