REMARK  Name = No_3409-gen_results/8p0m/2024-11-26-14-13-15/
REMARK  3 active torsions:
REMARK  status: ('A' for Active; 'I' for Inactive)
REMARK    1  A    between atoms: C_2  and  C_8
REMARK    2  A    between atoms: C_13  and  C_16
REMARK    3  A    between atoms: C_13  and  C_22
REMARK                            x       y       z     vdW  Elec       q    Type
REMARK                         _______ _______ _______ _____ _____    ______ ____
ROOT
ATOM      1  C   UNL A   1     -25.696  -0.234  29.420  0.00  0.00    +0.079 C 
ATOM      2  N   UNL A   1     -24.800  -1.086  29.063  0.00  0.00    -0.258 NA
ATOM      3  C   UNL A   1     -23.610  -1.241  29.424  0.00  0.00    +0.150 C 
ATOM      4  C   UNL A   1     -22.822  -0.070  29.553  0.00  0.00    -0.073 C 
ATOM      5  C   UNL A   1     -23.540   1.014  30.219  0.00  0.00    -0.086 C 
ATOM      6  C   UNL A   1     -24.913   1.203  29.340  0.00  0.00    +0.088 C 
ATOM      7  C   UNL A   1     -26.044  -0.442  30.937  0.00  0.00    +0.022 C 
ATOM      8  C   UNL A   1     -25.199  -2.091  27.953  0.00  0.00    +0.091 C 
ENDROOT
BRANCH   1  10
ATOM      9  C   UNL A   1     -28.016  -0.814  28.878  0.00  0.00    -0.003 A 
ATOM     10  C   UNL A   1     -27.064  -0.119  28.608  0.00  0.00    -0.008 A 
ATOM     11  C   UNL A   1     -26.972   0.714  27.506  0.00  0.00    -0.003 A 
ATOM     12  C   UNL A   1     -28.105   0.774  26.642  0.00  0.00    +0.006 A 
ATOM     13  C   UNL A   1     -29.201   0.104  27.053  0.00  0.00    +0.035 A 
ATOM     14  C   UNL A   1     -29.210  -0.603  28.185  0.00  0.00    +0.006 A 
ATOM     15 BR   UNL A   1     -30.691   0.254  25.950  0.00  0.00    -0.049 Br
ENDBRANCH   1  10
BRANCH   6  16
ATOM     16  C   UNL A   1     -25.659   2.363  30.000  0.00  0.00    -0.010 A 
ATOM     17  C   UNL A   1     -25.838   3.492  29.129  0.00  0.00    -0.003 A 
ATOM     18  C   UNL A   1     -26.465   4.658  29.665  0.00  0.00    -0.000 A 
ATOM     19  C   UNL A   1     -26.993   4.633  30.950  0.00  0.00    -0.000 A 
ATOM     20  C   UNL A   1     -26.827   3.490  31.734  0.00  0.00    -0.000 A 
ATOM     21  C   UNL A   1     -26.129   2.423  31.306  0.00  0.00    -0.003 A 
ENDBRANCH   6  16
BRANCH   6  22
ATOM     22  C   UNL A   1     -24.445   1.507  27.902  0.00  0.00    +0.018 C 
ATOM     23  C   UNL A   1     -23.115   1.017  27.734  0.00  0.00    +0.001 C 
ENDBRANCH   6  22
TORSDOF 3
