MODEL 340
MODEL 1
REMARK VINA RESULT:    -6.213      0.000      0.000
REMARK INTER + INTRA:          -6.692
REMARK INTER:                  -6.577
REMARK INTRA:                  -0.116
REMARK UNBOUND:                -0.116
REMARK  Name = No_340-gen_results/8p0m/2024-11-26-14-13-15/
REMARK  1 active torsions:
REMARK  status: ('A' for Active; 'I' for Inactive)
REMARK    1  A    between atoms: C_3  and  C_12
REMARK                            x       y       z     vdW  Elec       q    Type
REMARK                         _______ _______ _______ _____ _____    ______ ____
ROOT
ATOM      1  C   UNL A   1     -23.840  -3.264  28.924  0.00  0.00    +0.000 A 
ATOM      2  C   UNL A   1     -24.685  -2.552  29.413  0.00  0.00    +0.005 A 
ATOM      3  C   UNL A   1     -24.527  -1.207  29.698  0.00  0.00    +0.057 A 
ATOM      4  C   UNL A   1     -25.488  -0.353  30.355  0.00  0.00    +0.034 A 
ATOM      5  C   UNL A   1     -26.726  -0.911  30.754  0.00  0.00    +0.140 A 
ATOM      6  C   UNL A   1     -26.954  -2.286  30.488  0.00  0.00    +0.030 A 
ATOM      7  C   UNL A   1     -25.973  -3.015  29.889  0.00  0.00    +0.002 A 
ATOM      8  C   UNL A   1     -24.178  -4.673  28.544  0.00  0.00    +0.000 A 
ATOM      9  C   UNL A   1     -25.354  -5.258  29.098  0.00  0.00    +0.000 A 
ATOM     10  C   UNL A   1     -26.283  -4.450  29.670  0.00  0.00    +0.000 A 
ATOM     11  F   UNL A   1     -27.650  -0.151  31.305  0.00  0.00    -0.204 F 
ENDROOT
BRANCH   3  12
ATOM     12  C   UNL A   1     -23.229  -0.502  29.419  0.00  0.00    +0.265 C 
ATOM     13  N   UNL A   1     -23.002   0.166  28.554  0.00  0.00    -0.200 NA
ATOM     14  C   UNL A   1     -21.835   0.632  28.169  0.00  0.00    +0.139 C 
ATOM     15  O   UNL A   1     -22.394  -0.555  30.335  0.00  0.00    -0.268 OA
ENDBRANCH   3  12
TORSDOF 1
ENDMDL
ENDMDL
