REMARK  Name = No_3410-gen_results/8p0m/2024-11-26-14-13-15/
REMARK  0 active torsions:
REMARK  status: ('A' for Active; 'I' for Inactive)
REMARK                            x       y       z     vdW  Elec       q    Type
REMARK                         _______ _______ _______ _____ _____    ______ ____
ROOT
ATOM      1  C   UNL A   1     -28.016  -0.814  28.878  0.00  0.00    +0.000 A 
ATOM      2  C   UNL A   1     -28.469  -0.785  29.829  0.00  0.00    +0.000 A 
ATOM      3  C   UNL A   1     -27.136   0.236  28.535  0.00  0.00    +0.000 A 
ATOM      4  C   UNL A   1     -26.335   0.290  27.284  0.00  0.00    +0.002 A 
ATOM      5  C   UNL A   1     -28.369   0.196  30.924  0.00  0.00    +0.000 A 
ATOM      6  C   UNL A   1     -27.516   1.266  30.654  0.00  0.00    +0.000 A 
ATOM      7  C   UNL A   1     -26.841   1.294  29.476  0.00  0.00    +0.002 A 
ATOM      8  C   UNL A   1     -25.361   0.775  26.967  0.00  0.00    +0.030 A 
ATOM      9  C   UNL A   1     -24.830   1.767  28.017  0.00  0.00    +0.140 A 
ATOM     10  C   UNL A   1     -25.567   2.001  29.202  0.00  0.00    +0.030 A 
ATOM     11  F   UNL A   1     -23.763   2.532  27.719  0.00  0.00    -0.204 F 
ENDROOT
TORSDOF 0
