MODEL 3410
MODEL 1
REMARK VINA RESULT:    -5.793      0.000      0.000
REMARK INTER + INTRA:          -5.793
REMARK INTER:                  -5.793
REMARK INTRA:                   0.000
REMARK UNBOUND:                 0.000
REMARK  Name = No_3410-gen_results/8p0m/2024-11-26-14-13-15/
REMARK  0 active torsions:
REMARK  status: ('A' for Active; 'I' for Inactive)
REMARK                            x       y       z     vdW  Elec       q    Type
REMARK                         _______ _______ _______ _____ _____    ______ ____
ROOT
ATOM      1  C   UNL A   1     -24.175  -4.453  28.756  0.00  0.00    +0.000 A 
ATOM      2  C   UNL A   1     -24.971  -5.107  28.981  0.00  0.00    +0.000 A 
ATOM      3  C   UNL A   1     -24.315  -3.095  29.118  0.00  0.00    +0.000 A 
ATOM      4  C   UNL A   1     -23.249  -2.070  28.971  0.00  0.00    +0.002 A 
ATOM      5  C   UNL A   1     -26.276  -4.865  29.623  0.00  0.00    +0.000 A 
ATOM      6  C   UNL A   1     -26.485  -3.540  30.006  0.00  0.00    +0.000 A 
ATOM      7  C   UNL A   1     -25.497  -2.629  29.809  0.00  0.00    +0.002 A 
ATOM      8  C   UNL A   1     -22.988  -1.094  29.485  0.00  0.00    +0.030 A 
ATOM      9  C   UNL A   1     -24.101  -0.616  30.435  0.00  0.00    +0.140 A 
ATOM     10  C   UNL A   1     -25.293  -1.367  30.559  0.00  0.00    +0.030 A 
ATOM     11  F   UNL A   1     -24.003   0.601  31.002  0.00  0.00    -0.204 F 
ENDROOT
TORSDOF 0
ENDMDL
ENDMDL
