MODEL 3411
MODEL 1
REMARK VINA RESULT:    -4.280      0.000      0.000
REMARK INTER + INTRA:          -4.280
REMARK INTER:                  -4.280
REMARK INTRA:                   0.000
REMARK UNBOUND:                 0.000
REMARK  Name = No_3411-gen_results/8p0m/2024-11-26-14-13-15/
REMARK  0 active torsions:
REMARK  status: ('A' for Active; 'I' for Inactive)
REMARK                            x       y       z     vdW  Elec       q    Type
REMARK                         _______ _______ _______ _____ _____    ______ ____
ROOT
ATOM      1  C   UNL A   1     -24.155  -4.855  28.630  0.00  0.00    +0.000 A 
ATOM      2  C   UNL A   1     -25.046  -5.262  29.020  0.00  0.00    +0.000 A 
ATOM      3  C   UNL A   1     -24.077  -3.399  28.746  0.00  0.00    +0.000 A 
ATOM      4  C   UNL A   1     -25.074  -2.658  29.330  0.00  0.00    +0.000 A 
ATOM      5  C   UNL A   1     -26.240  -4.738  29.682  0.00  0.00    +0.000 A 
ATOM      6  C   UNL A   1     -26.174  -3.329  29.799  0.00  0.00    +0.000 A 
ENDROOT
TORSDOF 0
ENDMDL
ENDMDL
