REMARK  Name = No_3412-gen_results/8p0m/2024-11-26-14-13-15/
REMARK  2 active torsions:
REMARK  status: ('A' for Active; 'I' for Inactive)
REMARK    1  A    between atoms: C_4  and  C_12
REMARK    2  A    between atoms: C_8  and  C_18
REMARK                            x       y       z     vdW  Elec       q    Type
REMARK                         _______ _______ _______ _____ _____    ______ ____
ROOT
ATOM      1  C   UNL A   1     -28.016  -0.814  28.878  0.00  0.00    +0.031 C 
ATOM      2  C   UNL A   1     -28.469  -0.785  29.829  0.00  0.00    +0.038 C 
ATOM      3  C   UNL A   1     -27.087   0.290  28.638  0.00  0.00    -0.025 A 
ATOM      4  C   UNL A   1     -26.910   0.849  27.420  0.00  0.00    -0.004 A 
ATOM      5  C   UNL A   1     -27.886  -0.505  31.095  0.00  0.00    +0.035 C 
ATOM      6  C   UNL A   1     -28.468  -0.630  32.386  0.00  0.00    +0.125 C 
ATOM      7  C   UNL A   1     -25.801   1.697  27.174  0.00  0.00    +0.004 A 
ATOM      8  C   UNL A   1     -24.884   1.995  28.215  0.00  0.00    +0.071 A 
ATOM      9  C   UNL A   1     -25.017   1.382  29.408  0.00  0.00    -0.000 A 
ATOM     10  C   UNL A   1     -26.045   0.505  29.645  0.00  0.00    -0.021 A 
ATOM     11  C   UNL A   1     -26.597   0.242  30.931  0.00  0.00    +0.059 C 
ATOM     12  O   UNL A   1     -27.871  -0.492  33.296  0.00  0.00    -0.232 OA
ENDROOT
BRANCH   4  13
ATOM     13  C   UNL A   1     -27.706   0.560  26.246  0.00  0.00    -0.000 A 
ATOM     14  C   UNL A   1     -28.918   0.532  26.126  0.00  0.00    -0.000 A 
ATOM     15  C   UNL A   1     -29.648   0.259  24.953  0.00  0.00    -0.000 A 
ATOM     16  C   UNL A   1     -28.859  -0.115  23.827  0.00  0.00    -0.000 A 
ATOM     17  C   UNL A   1     -27.056   0.265  25.014  0.00  0.00    -0.000 A 
ATOM     18  C   UNL A   1     -27.569  -0.052  23.932  0.00  0.00    -0.000 A 
ENDBRANCH   4  13
BRANCH   8  19
ATOM     19  C   UNL A   1     -23.364   2.079  27.710  0.00  0.00    +0.419 C 
ATOM     20  F   UNL A   1     -22.936   1.198  27.306  0.00  0.00    -0.166 F 
ATOM     21  F   UNL A   1     -23.382   3.171  26.723  0.00  0.00    -0.166 F 
ATOM     22  F   UNL A   1     -22.641   2.657  28.688  0.00  0.00    -0.166 F 
ENDBRANCH   8  19
TORSDOF 2
