MODEL 3412
MODEL 1
REMARK VINA RESULT:    -8.052      0.000      0.000
REMARK INTER + INTRA:          -9.866
REMARK INTER:                  -8.993
REMARK INTRA:                  -0.873
REMARK UNBOUND:                -0.873
REMARK  Name = No_3412-gen_results/8p0m/2024-11-26-14-13-15/
REMARK  2 active torsions:
REMARK  status: ('A' for Active; 'I' for Inactive)
REMARK    1  A    between atoms: C_4  and  C_12
REMARK    2  A    between atoms: C_8  and  C_18
REMARK                            x       y       z     vdW  Elec       q    Type
REMARK                         _______ _______ _______ _____ _____    ______ ____
ROOT
ATOM      1  C   UNL A   1     -24.694  -1.009  31.642  0.00  0.00    +0.031 C 
ATOM      2  C   UNL A   1     -25.255  -0.519  32.387  0.00  0.00    +0.038 C 
ATOM      3  C   UNL A   1     -24.829  -0.406  30.316  0.00  0.00    -0.025 A 
ATOM      4  C   UNL A   1     -24.799  -1.130  29.174  0.00  0.00    -0.004 A 
ATOM      5  C   UNL A   1     -25.413   0.874  32.624  0.00  0.00    +0.035 C 
ATOM      6  C   UNL A   1     -26.035   1.521  33.726  0.00  0.00    +0.125 C 
ATOM      7  C   UNL A   1     -24.632  -0.487  27.922  0.00  0.00    +0.004 A 
ATOM      8  C   UNL A   1     -24.530   0.927  27.852  0.00  0.00    +0.071 A 
ATOM      9  C   UNL A   1     -24.486   1.643  28.992  0.00  0.00    -0.000 A 
ATOM     10  C   UNL A   1     -24.578   1.033  30.218  0.00  0.00    -0.021 A 
ATOM     11  C   UNL A   1     -25.080   1.662  31.393  0.00  0.00    +0.059 C 
ATOM     12  O   UNL A   1     -25.989   2.610  33.848  0.00  0.00    -0.232 OA
ENDROOT
BRANCH   4  13
ATOM     13  C   UNL A   1     -24.795  -2.575  29.102  0.00  0.00    -0.000 A 
ATOM     14  C   UNL A   1     -23.949  -3.321  28.641  0.00  0.00    -0.000 A 
ATOM     15  C   UNL A   1     -23.985  -4.728  28.609  0.00  0.00    -0.000 A 
ATOM     16  C   UNL A   1     -25.195  -5.310  29.086  0.00  0.00    -0.000 A 
ATOM     17  C   UNL A   1     -25.896  -3.306  29.632  0.00  0.00    -0.000 A 
ATOM     18  C   UNL A   1     -26.086  -4.530  29.613  0.00  0.00    -0.000 A 
ENDBRANCH   4  13
BRANCH   8  19
ATOM     19  C   UNL A   1     -23.481   1.428  26.746  0.00  0.00    +0.419 C 
ATOM     20  F   UNL A   1     -23.682   1.179  25.736  0.00  0.00    -0.166 F 
ATOM     21  F   UNL A   1     -23.434   2.886  26.943  0.00  0.00    -0.166 F 
ATOM     22  F   UNL A   1     -22.248   1.093  27.173  0.00  0.00    -0.166 F 
ENDBRANCH   8  19
TORSDOF 2
ENDMDL
ENDMDL
