REMARK  Name = No_3413-gen_results/8p0m/2024-11-26-14-13-15/
REMARK  3 active torsions:
REMARK  status: ('A' for Active; 'I' for Inactive)
REMARK    1  A    between atoms: C_2  and  N_7
REMARK    2  A    between atoms: N_7  and  C_8
REMARK    3  A    between atoms: N_7  and  C_14
REMARK                            x       y       z     vdW  Elec       q    Type
REMARK                         _______ _______ _______ _____ _____    ______ ____
ROOT
ATOM      1  N   UNL A   1     -27.160   1.091  27.899  0.00  0.00    -0.251 N 
ENDROOT
BRANCH   1   3
ATOM      2  C   UNL A   1     -28.016  -0.814  28.878  0.00  0.00    +0.035 A 
ATOM      3  C   UNL A   1     -27.064  -0.119  28.608  0.00  0.00    +0.139 A 
ATOM      4  N   UNL A   1     -25.818  -0.343  29.049  0.00  0.00    -0.229 NA
ATOM      5  C   UNL A   1     -25.555  -1.473  29.730  0.00  0.00    +0.100 A 
ATOM      6  C   UNL A   1     -26.621  -2.299  30.105  0.00  0.00    +0.021 A 
ATOM      7  C   UNL A   1     -27.835  -1.970  29.676  0.00  0.00    +0.004 A 
ENDBRANCH   1   3
BRANCH   1   8
ATOM      8  C   UNL A   1     -27.689   1.188  26.719  0.00  0.00    +0.057 A 
ATOM      9  C   UNL A   1     -28.383   0.272  26.226  0.00  0.00    +0.015 A 
ATOM     10  C   UNL A   1     -28.949   0.350  24.893  0.00  0.00    +0.001 A 
ATOM     11  C   UNL A   1     -28.710   1.523  24.174  0.00  0.00    +0.000 A 
ATOM     12  C   UNL A   1     -27.965   2.563  24.707  0.00  0.00    +0.001 A 
ATOM     13  C   UNL A   1     -27.452   2.462  25.970  0.00  0.00    +0.015 A 
ENDBRANCH   1   8
BRANCH   1  14
ATOM     14  C   UNL A   1     -26.587   2.325  28.595  0.00  0.00    +0.057 A 
ATOM     15  C   UNL A   1     -26.319   2.239  30.045  0.00  0.00    +0.015 A 
ATOM     16  C   UNL A   1     -25.731   3.396  30.480  0.00  0.00    +0.001 A 
ATOM     17  C   UNL A   1     -25.482   4.546  29.782  0.00  0.00    +0.000 A 
ATOM     18  C   UNL A   1     -25.745   4.536  28.413  0.00  0.00    +0.001 A 
ATOM     19  C   UNL A   1     -26.292   3.385  27.810  0.00  0.00    +0.015 A 
ENDBRANCH   1  14
TORSDOF 3
