MODEL 3413
MODEL 1
REMARK VINA RESULT:    -7.198      0.000      0.000
REMARK INTER + INTRA:          -9.371
REMARK INTER:                  -8.460
REMARK INTRA:                  -0.911
REMARK UNBOUND:                -0.911
REMARK  Name = No_3413-gen_results/8p0m/2024-11-26-14-13-15/
REMARK  3 active torsions:
REMARK  status: ('A' for Active; 'I' for Inactive)
REMARK    1  A    between atoms: C_2  and  N_7
REMARK    2  A    between atoms: N_7  and  C_8
REMARK    3  A    between atoms: N_7  and  C_14
REMARK                            x       y       z     vdW  Elec       q    Type
REMARK                         _______ _______ _______ _____ _____    ______ ____
ROOT
ATOM      1  N   UNL A   1     -24.536  -1.343  29.765  0.00  0.00    -0.251 N 
ENDROOT
BRANCH   1   3
ATOM      2  C   UNL A   1     -24.150  -1.150  32.031  0.00  0.00    +0.035 A 
ATOM      3  C   UNL A   1     -24.742  -0.789  31.040  0.00  0.00    +0.139 A 
ATOM      4  N   UNL A   1     -25.752   0.093  31.046  0.00  0.00    -0.229 NA
ATOM      5  C   UNL A   1     -26.063   0.729  32.190  0.00  0.00    +0.100 A 
ATOM      6  C   UNL A   1     -25.438   0.328  33.376  0.00  0.00    +0.021 A 
ATOM      7  C   UNL A   1     -24.489  -0.598  33.290  0.00  0.00    +0.004 A 
ENDBRANCH   1   3
BRANCH   1   8
ATOM      8  C   UNL A   1     -24.698  -2.602  29.498  0.00  0.00    +0.057 A 
ATOM      9  C   UNL A   1     -23.821  -3.273  28.913  0.00  0.00    +0.015 A 
ATOM     10  C   UNL A   1     -24.002  -4.672  28.573  0.00  0.00    +0.001 A 
ATOM     11  C   UNL A   1     -25.208  -5.262  28.956  0.00  0.00    +0.000 A 
ATOM     12  C   UNL A   1     -26.187  -4.546  29.628  0.00  0.00    +0.001 A 
ATOM     13  C   UNL A   1     -25.981  -3.232  29.941  0.00  0.00    +0.015 A 
ENDBRANCH   1   8
BRANCH   1  14
ATOM     14  C   UNL A   1     -24.090  -0.371  28.674  0.00  0.00    +0.057 A 
ATOM     15  C   UNL A   1     -24.974  -0.190  27.505  0.00  0.00    +0.015 A 
ATOM     16  C   UNL A   1     -24.463   0.775  26.679  0.00  0.00    +0.001 A 
ATOM     17  C   UNL A   1     -23.277   1.450  26.780  0.00  0.00    +0.000 A 
ATOM     18  C   UNL A   1     -22.512   1.236  27.925  0.00  0.00    +0.001 A 
ATOM     19  C   UNL A   1     -22.948   0.316  28.901  0.00  0.00    +0.015 A 
ENDBRANCH   1  14
TORSDOF 3
ENDMDL
ENDMDL
