MODEL 3414
MODEL 1
REMARK VINA RESULT:    -8.212      0.000      0.000
REMARK INTER + INTRA:         -12.637
REMARK INTER:                 -11.092
REMARK INTRA:                  -1.545
REMARK UNBOUND:                -1.545
REMARK  Name = No_3414-gen_results/8p0m/2024-11-26-14-13-15/
REMARK  6 active torsions:
REMARK  status: ('A' for Active; 'I' for Inactive)
REMARK    1  A    between atoms: C_1  and  C_2
REMARK    2  A    between atoms: C_5  and  C_10
REMARK    3  A    between atoms: N_11  and  C_13
REMARK    4  A    between atoms: C_13  and  C_14
REMARK    5  A    between atoms: C_14  and  C_15
REMARK    6  A    between atoms: C_18  and  C_19
REMARK                            x       y       z     vdW  Elec       q    Type
REMARK                         _______ _______ _______ _____ _____    ______ ____
ROOT
ATOM      1  C   UNL A   1     -23.471   1.904  27.736  0.00  0.00    +0.130 C 
ENDROOT
BRANCH   1   3
ATOM      2  C   UNL A   1     -23.539   0.595  29.702  0.00  0.00    +0.054 C 
ATOM      3  N   UNL A   1     -23.021   1.425  28.976  0.00  0.00    -0.274 NA
ATOM      4  C   UNL A   1     -23.948   1.204  31.062  0.00  0.00    +0.052 C 
BRANCH   2   8
ATOM      5  C   UNL A   1     -25.109  -3.415  29.442  0.00  0.00    +0.044 A 
ATOM      6  C   UNL A   1     -23.894  -3.115  28.918  0.00  0.00    +0.001 A 
ATOM      7  C   UNL A   1     -23.262  -1.777  28.972  0.00  0.00    +0.001 A 
ATOM      8  C   UNL A   1     -24.010  -0.732  29.607  0.00  0.00    +0.013 A 
ATOM      9  C   UNL A   1     -25.300  -1.068  30.076  0.00  0.00    +0.001 A 
ATOM     10  C   UNL A   1     -25.822  -2.333  29.991  0.00  0.00    +0.001 A 
BRANCH   5  11
ATOM     11  C   UNL A   1     -25.615  -4.513  29.390  0.00  0.00    +0.341 C 
ATOM     12  F   UNL A   1     -24.927  -5.367  28.814  0.00  0.00    -0.193 F 
ATOM     13  F   UNL A   1     -26.735  -4.843  29.925  0.00  0.00    -0.193 F 
ENDBRANCH   5  11
ENDBRANCH   2   8
ENDBRANCH   1   3
BRANCH   1  14
ATOM     14  C   UNL A   1     -23.551   1.245  26.700  0.00  0.00    +0.053 C 
BRANCH  14  15
ATOM     15  C   UNL A   1     -24.736   1.120  25.947  0.00  0.00    -0.020 A 
ATOM     16  C   UNL A   1     -25.107  -0.078  25.217  0.00  0.00    -0.004 A 
ATOM     17  C   UNL A   1     -26.330  -0.059  24.604  0.00  0.00    -0.000 A 
ATOM     18  C   UNL A   1     -27.201   1.062  24.584  0.00  0.00    -0.000 A 
ATOM     19  C   UNL A   1     -26.770   2.224  25.319  0.00  0.00    -0.000 A 
ATOM     20  C   UNL A   1     -25.624   2.176  26.130  0.00  0.00    -0.004 A 
BRANCH  18  21
ATOM     21  C   UNL A   1     -28.421   1.045  23.828  0.00  0.00    -0.000 A 
ATOM     22  C   UNL A   1     -29.210  -0.109  23.831  0.00  0.00    -0.000 A 
ATOM     23  C   UNL A   1     -30.499  -0.093  23.355  0.00  0.00    +0.000 A 
ATOM     24  C   UNL A   1     -31.045   1.141  22.946  0.00  0.00    +0.000 A 
ATOM     25  C   UNL A   1     -30.323   2.271  23.024  0.00  0.00    +0.000 A 
ATOM     26  C   UNL A   1     -29.037   2.243  23.500  0.00  0.00    -0.000 A 
ENDBRANCH  18  21
ENDBRANCH  14  15
ENDBRANCH   1  14
TORSDOF 6
ENDMDL
ENDMDL
