MODEL 3415
MODEL 1
REMARK VINA RESULT:    -6.448      0.000      0.000
REMARK INTER + INTRA:          -7.157
REMARK INTER:                  -6.825
REMARK INTRA:                  -0.332
REMARK UNBOUND:                -0.332
REMARK  Name = No_3415-gen_results/8p0m/2024-11-26-14-13-15/
REMARK  1 active torsions:
REMARK  status: ('A' for Active; 'I' for Inactive)
REMARK    1  A    between atoms: C_3  and  C_4
REMARK                            x       y       z     vdW  Elec       q    Type
REMARK                         _______ _______ _______ _____ _____    ______ ____
ROOT
ATOM      1  C   UNL A   1     -21.660  -0.102  28.946  0.00  0.00    +0.000 A 
ATOM      2  C   UNL A   1     -22.323  -1.077  29.211  0.00  0.00    +0.000 A 
ATOM      3  C   UNL A   1     -23.539  -1.346  28.828  0.00  0.00    +0.000 A 
ATOM      4  C   UNL A   1     -22.232   0.910  28.037  0.00  0.00    +0.000 A 
ATOM      5  C   UNL A   1     -23.507   0.758  27.616  0.00  0.00    +0.000 A 
ATOM      6  C   UNL A   1     -24.256  -0.442  27.967  0.00  0.00    +0.000 A 
ENDROOT
BRANCH   3   7
ATOM      7  C   UNL A   1     -24.319  -2.560  29.171  0.00  0.00    +0.000 A 
ATOM      8  C   UNL A   1     -23.911  -3.881  28.950  0.00  0.00    +0.000 A 
ATOM      9  C   UNL A   1     -25.663  -2.372  29.687  0.00  0.00    +0.000 A 
ATOM     10  C   UNL A   1     -26.505  -3.444  29.955  0.00  0.00    +0.000 A 
ATOM     11  C   UNL A   1     -24.886  -4.974  28.939  0.00  0.00    +0.000 A 
ATOM     12  C   UNL A   1     -26.169  -4.726  29.556  0.00  0.00    +0.000 A 
ENDBRANCH   3   7
TORSDOF 1
ENDMDL
ENDMDL
