REMARK  Name = No_3415-gen_results/8p0m/2024-11-26-14-13-15/
REMARK  1 active torsions:
REMARK  status: ('A' for Active; 'I' for Inactive)
REMARK    1  A    between atoms: C_3  and  C_4
REMARK                            x       y       z     vdW  Elec       q    Type
REMARK                         _______ _______ _______ _____ _____    ______ ____
ROOT
ATOM      1  C   UNL A   1     -28.016  -0.814  28.878  0.00  0.00    +0.000 A 
ATOM      2  C   UNL A   1     -27.064  -0.119  28.608  0.00  0.00    +0.000 A 
ATOM      3  C   UNL A   1     -26.876   1.133  28.913  0.00  0.00    +0.000 A 
ATOM      4  C   UNL A   1     -29.097  -0.235  29.699  0.00  0.00    +0.000 A 
ATOM      5  C   UNL A   1     -29.030   1.073  30.032  0.00  0.00    +0.000 A 
ATOM      6  C   UNL A   1     -27.855   1.859  29.680  0.00  0.00    +0.000 A 
ENDROOT
BRANCH   3   7
ATOM      7  C   UNL A   1     -25.688   1.952  28.567  0.00  0.00    +0.000 A 
ATOM      8  C   UNL A   1     -25.509   3.304  28.886  0.00  0.00    +0.000 A 
ATOM      9  C   UNL A   1     -24.665   1.337  27.741  0.00  0.00    +0.000 A 
ATOM     10  C   UNL A   1     -23.558   2.046  27.291  0.00  0.00    +0.000 A 
ATOM     11  C   UNL A   1     -24.524   4.117  28.170  0.00  0.00    +0.000 A 
ATOM     12  C   UNL A   1     -23.485   3.419  27.446  0.00  0.00    +0.000 A 
ENDBRANCH   3   7
TORSDOF 1
