MODEL 3416
MODEL 1
REMARK VINA RESULT:    -5.778      0.000      0.000
REMARK INTER + INTRA:          -8.578
REMARK INTER:                  -7.804
REMARK INTRA:                  -0.774
REMARK UNBOUND:                -0.774
REMARK  Name = No_3416-gen_results/8p0m/2024-11-26-14-13-15/
REMARK  6 active torsions:
REMARK  status: ('A' for Active; 'I' for Inactive)
REMARK    1  A    between atoms: C_3  and  C_7
REMARK    2  A    between atoms: N_8  and  C_10
REMARK    3  A    between atoms: C_10  and  C_11
REMARK    4  A    between atoms: C_11  and  C_12
REMARK    5  A    between atoms: C_12  and  C_13
REMARK    6  A    between atoms: C_12  and  C_14
REMARK                            x       y       z     vdW  Elec       q    Type
REMARK                         _______ _______ _______ _____ _____    ______ ____
ROOT
ATOM      1  C   UNL A   1     -24.492  -1.202  29.293  0.00  0.00    +0.265 C 
ATOM      2  N   UNL A   1     -23.293  -0.771  29.044  0.00  0.00    -0.202 NA
ATOM      3  O   UNL A   1     -25.363  -0.408  29.644  0.00  0.00    -0.268 OA
ENDROOT
BRANCH   1   6
ATOM      4  C   UNL A   1     -23.868  -3.605  28.658  0.00  0.00    +0.005 A 
ATOM      5  C   UNL A   1     -24.140  -4.623  28.668  0.00  0.00    +0.000 A 
ATOM      6  C   UNL A   1     -24.774  -2.675  29.212  0.00  0.00    +0.055 A 
ATOM      7  C   UNL A   1     -25.988  -3.065  29.744  0.00  0.00    +0.005 A 
ATOM      8  C   UNL A   1     -25.355  -5.296  29.169  0.00  0.00    +0.000 A 
ATOM      9  C   UNL A   1     -26.251  -4.440  29.708  0.00  0.00    +0.000 A 
ENDBRANCH   1   6
BRANCH   2  10
ATOM     10  C   UNL A   1     -22.956   0.657  28.989  0.00  0.00    +0.116 C 
BRANCH  10  11
ATOM     11  C   UNL A   1     -22.730   1.092  27.620  0.00  0.00    +0.031 C 
BRANCH  11  12
ATOM     12  C   UNL A   1     -23.868   1.512  26.858  0.00  0.00    +0.067 C 
BRANCH  12  13
ATOM     13  C   UNL A   1     -24.292   0.858  25.777  0.00  0.00    +0.008 C 
ATOM     14  C   UNL A   1     -25.484  -0.003  25.935  0.00  0.00    +0.001 C 
ENDBRANCH  12  13
BRANCH  12  15
ATOM     15  C   UNL A   1     -24.755   2.544  27.404  0.00  0.00    +0.207 C 
ATOM     16  O   UNL A   1     -24.393   3.634  27.680  0.00  0.00    -0.288 OA
ENDBRANCH  12  15
ENDBRANCH  11  12
ENDBRANCH  10  11
ENDBRANCH   2  10
TORSDOF 6
ENDMDL
ENDMDL
