REMARK  Name = No_3416-gen_results/8p0m/2024-11-26-14-13-15/
REMARK  6 active torsions:
REMARK  status: ('A' for Active; 'I' for Inactive)
REMARK    1  A    between atoms: C_3  and  C_7
REMARK    2  A    between atoms: N_8  and  C_10
REMARK    3  A    between atoms: C_10  and  C_11
REMARK    4  A    between atoms: C_11  and  C_12
REMARK    5  A    between atoms: C_12  and  C_13
REMARK    6  A    between atoms: C_12  and  C_14
REMARK                            x       y       z     vdW  Elec       q    Type
REMARK                         _______ _______ _______ _____ _____    ______ ____
ROOT
ATOM      1  C   UNL A   1     -26.399   0.295  27.228  0.00  0.00    +0.265 C 
ATOM      2  N   UNL A   1     -26.030   1.448  26.758  0.00  0.00    -0.202 NA
ATOM      3  O   UNL A   1     -26.189  -0.724  26.572  0.00  0.00    -0.268 OA
ENDROOT
BRANCH   1   6
ATOM      4  C   UNL A   1     -28.016  -0.814  28.878  0.00  0.00    +0.005 A 
ATOM      5  C   UNL A   1     -28.469  -0.785  29.829  0.00  0.00    +0.000 A 
ATOM      6  C   UNL A   1     -27.136   0.236  28.535  0.00  0.00    +0.055 A 
ATOM      7  C   UNL A   1     -26.875   1.282  29.398  0.00  0.00    +0.005 A 
ATOM      8  C   UNL A   1     -28.361   0.199  30.924  0.00  0.00    +0.000 A 
ATOM      9  C   UNL A   1     -27.528   1.223  30.636  0.00  0.00    +0.000 A 
ENDBRANCH   1   6
BRANCH   2  10
ATOM     10  C   UNL A   1     -25.210   1.589  25.549  0.00  0.00    +0.116 C 
BRANCH  10  11
ATOM     11  C   UNL A   1     -23.971   2.296  25.833  0.00  0.00    +0.031 C 
BRANCH  11  12
ATOM     12  C   UNL A   1     -23.835   2.910  27.120  0.00  0.00    +0.067 C 
BRANCH  12  13
ATOM     13  C   UNL A   1     -22.845   2.610  27.960  0.00  0.00    +0.008 C 
ATOM     14  C   UNL A   1     -22.012   1.435  27.626  0.00  0.00    +0.001 C 
ENDBRANCH  12  13
BRANCH  12  15
ATOM     15  C   UNL A   1     -24.654   4.082  27.445  0.00  0.00    +0.207 C 
ATOM     16  O   UNL A   1     -24.864   4.961  26.684  0.00  0.00    -0.288 OA
ENDBRANCH  12  15
ENDBRANCH  11  12
ENDBRANCH  10  11
ENDBRANCH   2  10
TORSDOF 6
