REMARK  Name = No_3417-gen_results/8p0m/2024-11-26-14-13-15/
REMARK  1 active torsions:
REMARK  status: ('A' for Active; 'I' for Inactive)
REMARK    1  A    between atoms: C_2  and  C_3
REMARK                            x       y       z     vdW  Elec       q    Type
REMARK                         _______ _______ _______ _____ _____    ______ ____
ROOT
ATOM      1  C   UNL A   1     -26.810   0.189  27.651  0.00  0.00    +0.044 A 
ATOM      2  C   UNL A   1     -25.602   0.953  27.683  0.00  0.00    +0.001 A 
ATOM      3  C   UNL A   1     -24.888   1.533  26.587  0.00  0.00    -0.000 A 
ATOM      4  C   UNL A   1     -25.437   1.179  25.314  0.00  0.00    -0.000 A 
ATOM      5  C   UNL A   1     -26.506   0.333  25.240  0.00  0.00    -0.000 A 
ATOM      6  C   UNL A   1     -27.115  -0.181  26.333  0.00  0.00    +0.001 A 
ENDROOT
BRANCH   1   8
ATOM      7  F   UNL A   1     -28.073  -1.254  28.532  0.00  0.00    -0.193 F 
ATOM      8  C   UNL A   1     -27.359  -0.379  28.722  0.00  0.00    +0.341 C 
ATOM      9  F   UNL A   1     -26.337  -0.720  29.634  0.00  0.00    -0.193 F 
ENDBRANCH   1   8
TORSDOF 1
