MODEL 3417
MODEL 1
REMARK VINA RESULT:    -4.985      0.000      0.000
REMARK INTER + INTRA:          -5.375
REMARK INTER:                  -5.277
REMARK INTRA:                  -0.098
REMARK UNBOUND:                -0.098
REMARK  Name = No_3417-gen_results/8p0m/2024-11-26-14-13-15/
REMARK  1 active torsions:
REMARK  status: ('A' for Active; 'I' for Inactive)
REMARK    1  A    between atoms: C_2  and  C_3
REMARK                            x       y       z     vdW  Elec       q    Type
REMARK                         _______ _______ _______ _____ _____    ______ ____
ROOT
ATOM      1  C   UNL A   1     -24.379  -2.585  29.070  0.00  0.00    +0.044 A 
ATOM      2  C   UNL A   1     -23.992  -3.941  28.831  0.00  0.00    +0.001 A 
ATOM      3  C   UNL A   1     -24.781  -5.127  28.965  0.00  0.00    -0.000 A 
ATOM      4  C   UNL A   1     -26.077  -4.875  29.517  0.00  0.00    -0.000 A 
ATOM      5  C   UNL A   1     -26.428  -3.610  29.892  0.00  0.00    -0.000 A 
ATOM      6  C   UNL A   1     -25.611  -2.543  29.739  0.00  0.00    +0.001 A 
ENDROOT
BRANCH   1   8
ATOM      7  F   UNL A   1     -22.426  -1.791  28.966  0.00  0.00    -0.193 F 
ATOM      8  C   UNL A   1     -23.546  -1.550  28.993  0.00  0.00    +0.341 C 
ATOM      9  F   UNL A   1     -23.936  -0.728  27.914  0.00  0.00    -0.193 F 
ENDBRANCH   1   8
TORSDOF 1
ENDMDL
ENDMDL
