MODEL 3418
MODEL 1
REMARK VINA RESULT:    -6.903      0.000      0.000
REMARK INTER + INTRA:          -7.645
REMARK INTER:                  -7.306
REMARK INTRA:                  -0.339
REMARK UNBOUND:                -0.339
REMARK  Name = No_3418-gen_results/8p0m/2024-11-26-14-13-15/
REMARK  1 active torsions:
REMARK  status: ('A' for Active; 'I' for Inactive)
REMARK    1  A    between atoms: C_2  and  C_8
REMARK                            x       y       z     vdW  Elec       q    Type
REMARK                         _______ _______ _______ _____ _____    ______ ____
ROOT
ATOM      1  C   UNL A   1     -24.213  -0.275  27.870  0.00  0.00    +0.007 A 
ATOM      2  C   UNL A   1     -23.899  -1.191  28.594  0.00  0.00    +0.001 A 
ATOM      3  C   UNL A   1     -22.662  -1.214  29.227  0.00  0.00    +0.000 A 
ATOM      4  C   UNL A   1     -21.696  -0.169  29.004  0.00  0.00    +0.001 A 
ATOM      5  C   UNL A   1     -22.132   0.839  28.134  0.00  0.00    +0.007 A 
ATOM      6  C   UNL A   1     -23.306   0.805  27.547  0.00  0.00    +0.035 A 
ATOM      7 BR   UNL A   1     -23.751   2.177  26.354  0.00  0.00    -0.049 Br
ENDROOT
BRANCH   2   8
ATOM      8  C   UNL A   1     -24.758  -2.372  28.915  0.00  0.00    +0.000 A 
ATOM      9  C   UNL A   1     -25.676  -2.414  29.354  0.00  0.00    +0.000 A 
ATOM     10  C   UNL A   1     -26.472  -3.651  29.782  0.00  0.00    +0.000 A 
ATOM     11  C   UNL A   1     -25.892  -4.880  29.580  0.00  0.00    +0.000 A 
ATOM     12  C   UNL A   1     -24.636  -4.941  28.956  0.00  0.00    +0.000 A 
ATOM     13  C   UNL A   1     -24.026  -3.779  28.598  0.00  0.00    +0.000 A 
ENDBRANCH   2   8
TORSDOF 1
ENDMDL
ENDMDL
