REMARK  Name = No_3419-gen_results/8p0m/2024-11-26-14-13-15/
REMARK  1 active torsions:
REMARK  status: ('A' for Active; 'I' for Inactive)
REMARK    1  A    between atoms: C_2  and  C_7
REMARK                            x       y       z     vdW  Elec       q    Type
REMARK                         _______ _______ _______ _____ _____    ______ ____
ROOT
ATOM      1  C   UNL A   1     -28.016  -0.814  28.878  0.00  0.00    +0.007 A 
ATOM      2  C   UNL A   1     -28.469  -0.785  29.829  0.00  0.00    +0.080 A 
ATOM      3  C   UNL A   1     -26.546  -0.876  28.850  0.00  0.00    +0.000 A 
ATOM      4  C   UNL A   1     -25.897  -0.827  29.889  0.00  0.00    +0.000 A 
ATOM      5  C   UNL A   1     -27.913  -0.839  31.194  0.00  0.00    +0.007 A 
ATOM      6  C   UNL A   1     -26.552  -0.832  31.177  0.00  0.00    +0.000 A 
ENDROOT
BRANCH   2   7
ATOM      7  C   UNL A   1     -30.047  -0.741  29.727  0.00  0.00    +0.388 C 
ATOM      8  O   UNL A   1     -30.740  -1.546  30.233  0.00  0.00    -0.241 OA
ATOM      9  O   UNL A   1     -30.553   0.211  29.061  0.00  0.00    -0.241 OA
ENDBRANCH   2   7
TORSDOF 1
