MODEL 3419
MODEL 1
REMARK VINA RESULT:    -5.455      0.000      0.000
REMARK INTER + INTRA:          -5.811
REMARK INTER:                  -5.774
REMARK INTRA:                  -0.037
REMARK UNBOUND:                -0.037
REMARK  Name = No_3419-gen_results/8p0m/2024-11-26-14-13-15/
REMARK  1 active torsions:
REMARK  status: ('A' for Active; 'I' for Inactive)
REMARK    1  A    between atoms: C_2  and  C_7
REMARK                            x       y       z     vdW  Elec       q    Type
REMARK                         _______ _______ _______ _____ _____    ______ ____
ROOT
ATOM      1  C   UNL A   1      -8.584 -10.459  18.452  0.00  0.00    +0.007 A 
ATOM      2  C   UNL A   1      -9.572 -10.097  18.401  0.00  0.00    +0.080 A 
ATOM      3  C   UNL A   1      -7.826 -10.134  19.671  0.00  0.00    +0.000 A 
ATOM      4  C   UNL A   1      -8.313  -9.421  20.541  0.00  0.00    +0.000 A 
ATOM      5  C   UNL A   1     -10.401  -9.338  19.357  0.00  0.00    +0.007 A 
ATOM      6  C   UNL A   1      -9.686  -8.979  20.458  0.00  0.00    +0.000 A 
ENDROOT
BRANCH   2   7
ATOM      7  C   UNL A   1     -10.287 -10.528  17.058  0.00  0.00    +0.388 C 
ATOM      8  O   UNL A   1     -11.454 -10.477  16.912  0.00  0.00    -0.241 OA
ATOM      9  O   UNL A   1      -9.544 -10.947  16.121  0.00  0.00    -0.241 OA
ENDBRANCH   2   7
TORSDOF 1
ENDMDL
ENDMDL
