MODEL 341
MODEL 1
REMARK VINA RESULT:    -5.712      0.000      0.000
REMARK INTER + INTRA:          -6.574
REMARK INTER:                  -6.379
REMARK INTRA:                  -0.194
REMARK UNBOUND:                -0.194
REMARK  Name = No_341-gen_results/8p0m/2024-11-26-14-13-15/
REMARK  2 active torsions:
REMARK  status: ('A' for Active; 'I' for Inactive)
REMARK    1  A    between atoms: C_1  and  C_2
REMARK    2  A    between atoms: C_5  and  C_10
REMARK                            x       y       z     vdW  Elec       q    Type
REMARK                         _______ _______ _______ _____ _____    ______ ____
ROOT
ATOM      1  C   UNL A   1     -29.581 -10.861  30.229  0.00  0.00    +0.044 A 
ATOM      2  C   UNL A   1     -29.834 -10.167  31.301  0.00  0.00    +0.001 A 
ATOM      3  C   UNL A   1     -29.133 -10.279  32.604  0.00  0.00    +0.006 A 
ATOM      4  C   UNL A   1     -28.121 -11.276  32.694  0.00  0.00    +0.080 A 
ATOM      5  C   UNL A   1     -27.892 -12.050  31.585  0.00  0.00    +0.006 A 
ATOM      6  C   UNL A   1     -28.565 -11.925  30.417  0.00  0.00    +0.001 A 
ENDROOT
BRANCH   1   7
ATOM      7  C   UNL A   1     -30.135 -10.796  29.155  0.00  0.00    +0.341 C 
ATOM      8  F   UNL A   1     -30.557  -9.635  28.652  0.00  0.00    -0.193 F 
ATOM      9  F   UNL A   1     -29.235 -11.228  28.131  0.00  0.00    -0.193 F 
ENDBRANCH   1   7
BRANCH   4  10
ATOM     10  C   UNL A   1     -27.380 -11.500  33.911  0.00  0.00    +0.388 C 
ATOM     11  O   UNL A   1     -27.194 -10.901  34.693  0.00  0.00    -0.241 OA
ATOM     12  O   UNL A   1     -26.758 -12.758  33.861  0.00  0.00    -0.241 OA
ENDBRANCH   4  10
TORSDOF 2
ENDMDL
ENDMDL
