MODEL 3420
MODEL 1
REMARK VINA RESULT:    -5.267      0.000      0.000
REMARK INTER + INTRA:          -5.614
REMARK INTER:                  -5.575
REMARK INTRA:                  -0.039
REMARK UNBOUND:                -0.039
REMARK  Name = No_3420-gen_results/8p0m/2024-11-26-14-13-15/
REMARK  1 active torsions:
REMARK  status: ('A' for Active; 'I' for Inactive)
REMARK    1  A    between atoms: C_2  and  C_7
REMARK                            x       y       z     vdW  Elec       q    Type
REMARK                         _______ _______ _______ _____ _____    ______ ____
ROOT
ATOM      1  C   UNL A   1      -8.399 -10.548  18.469  0.00  0.00    +0.007 A 
ATOM      2  C   UNL A   1      -9.358 -10.171  18.249  0.00  0.00    +0.080 A 
ATOM      3  C   UNL A   1      -7.804 -10.128  19.748  0.00  0.00    +0.000 A 
ATOM      4  C   UNL A   1      -8.562  -9.368  20.685  0.00  0.00    +0.000 A 
ATOM      5  C   UNL A   1     -10.363  -9.427  19.056  0.00  0.00    +0.007 A 
ATOM      6  C   UNL A   1      -9.844  -9.011  20.246  0.00  0.00    +0.000 A 
ENDROOT
BRANCH   2   7
ATOM      7  C   UNL A   1     -10.203 -10.578  16.938  0.00  0.00    +0.388 C 
ATOM      8  O   UNL A   1      -9.587 -10.989  16.068  0.00  0.00    -0.241 OA
ATOM      9  O   UNL A   1     -11.522 -10.531  16.915  0.00  0.00    -0.241 OA
ENDBRANCH   2   7
TORSDOF 1
ENDMDL
ENDMDL
