REMARK  Name = No_3421-gen_results/8p0m/2024-11-26-14-13-15/
REMARK  4 active torsions:
REMARK  status: ('A' for Active; 'I' for Inactive)
REMARK    1  A    between atoms: C_1  and  C_2
REMARK    2  A    between atoms: C_5  and  C_14
REMARK    3  A    between atoms: C_10  and  C_18
REMARK    4  A    between atoms: C_27  and  C_30
REMARK                            x       y       z     vdW  Elec       q    Type
REMARK                         _______ _______ _______ _____ _____    ______ ____
ROOT
ATOM      1  C   UNL A   1     -28.016  -0.814  28.878  0.00  0.00    +0.250 C 
ATOM      2  N   UNL A   1     -29.170  -0.298  28.947  0.00  0.00    -0.260 N 
ATOM      3  C   UNL A   1     -29.722   0.373  28.043  0.00  0.00    +0.108 C 
ATOM      4  C   UNL A   1     -30.720   0.362  27.550  0.00  0.00    +0.139 C 
ATOM      5  C   UNL A   1     -31.720  -0.619  28.047  0.00  0.00    +0.087 C 
ATOM      6  C   UNL A   1     -30.148  -0.816  29.938  0.00  0.00    +0.160 C 
ATOM      7  N   UNL A   1     -31.388  -1.089  29.310  0.00  0.00    -0.250 NA
ATOM      8  O   UNL A   1     -27.806  -1.966  29.450  0.00  0.00    -0.270 OA
ATOM      9  C   UNL A   1     -32.317  -1.915  30.070  0.00  0.00    +0.100 C 
ATOM     10  C   UNL A   1     -33.126  -1.249  30.897  0.00  0.00    -0.009 C 
ATOM     11  C   UNL A   1     -33.037  -0.221  31.328  0.00  0.00    -0.003 C 
ATOM     12  C   UNL A   1     -31.885   0.724  31.099  0.00  0.00    -0.001 A 
ATOM     13  C   UNL A   1     -31.970   2.088  31.723  0.00  0.00    -0.000 A 
ATOM     14  C   UNL A   1     -30.820   2.909  31.604  0.00  0.00    -0.000 A 
ATOM     15  C   UNL A   1     -29.676   2.443  30.895  0.00  0.00    -0.000 A 
ATOM     16  C   UNL A   1     -29.628   1.149  30.591  0.00  0.00    -0.001 A 
ATOM     17  C   UNL A   1     -30.697   0.337  30.828  0.00  0.00    +0.011 A 
ENDROOT
BRANCH   1  18
ATOM     18  C   UNL A   1     -27.064  -0.119  28.608  0.00  0.00    +0.054 A 
ATOM     19  C   UNL A   1     -26.929   1.171  29.008  0.00  0.00    +0.005 A 
ATOM     20  C   UNL A   1     -25.770   2.034  28.688  0.00  0.00    +0.007 A 
ATOM     21  C   UNL A   1     -24.714   1.443  27.919  0.00  0.00    +0.080 A 
ATOM     22  C   UNL A   1     -24.859   0.078  27.584  0.00  0.00    +0.007 A 
ATOM     23  C   UNL A   1     -25.965  -0.661  27.916  0.00  0.00    +0.005 A 
BRANCH  21  24
ATOM     24  C   UNL A   1     -23.489   2.118  27.599  0.00  0.00    +0.388 C 
ATOM     25  O   UNL A   1     -22.433   1.889  27.622  0.00  0.00    -0.241 OA
ATOM     26  O   UNL A   1     -23.803   3.385  27.153  0.00  0.00    -0.241 OA
ENDBRANCH  21  24
ENDBRANCH   1  18
BRANCH  15  27
ATOM     27  C   UNL A   1     -28.563   3.466  30.913  0.00  0.00    -0.000 A 
ATOM     28  C   UNL A   1     -27.538   3.213  31.748  0.00  0.00    -0.000 A 
ATOM     29  C   UNL A   1     -26.434   4.140  31.723  0.00  0.00    -0.000 A 
ATOM     30  C   UNL A   1     -26.297   5.173  30.783  0.00  0.00    +0.000 A 
ATOM     31  C   UNL A   1     -27.367   5.321  29.902  0.00  0.00    -0.000 A 
ATOM     32  C   UNL A   1     -28.504   4.476  29.959  0.00  0.00    -0.000 A 
ENDBRANCH  15  27
BRANCH   4  33
ATOM     33  C   UNL A   1     -31.051   0.892  26.188  0.00  0.00    +0.367 C 
ATOM     34  O   UNL A   1     -30.428   1.624  25.613  0.00  0.00    -0.246 OA
ATOM     35  O   UNL A   1     -32.051   0.239  25.526  0.00  0.00    -0.246 OA
ENDBRANCH   4  33
TORSDOF 4
