REMARK  Name = No_3422-gen_results/8p0m/2024-11-26-14-13-15/
REMARK  3 active torsions:
REMARK  status: ('A' for Active; 'I' for Inactive)
REMARK    1  A    between atoms: C_3  and  C_8
REMARK    2  A    between atoms: C_6  and  C_18
REMARK    3  A    between atoms: C_12  and  C_13
REMARK                            x       y       z     vdW  Elec       q    Type
REMARK                         _______ _______ _______ _____ _____    ______ ____
ROOT
ATOM      1  O   UNL A   1     -28.123  -1.335  28.487  0.00  0.00    -0.274 OA
ATOM      2  C   UNL A   1     -27.064  -0.824  28.869  0.00  0.00    +0.239 C 
ATOM      3  C   UNL A   1     -26.402  -0.062  28.622  0.00  0.00    +0.172 C 
ATOM      4  N   UNL A   1     -26.572  -1.584  30.117  0.00  0.00    -0.222 N 
ATOM      5  C   UNL A   1     -25.021   0.356  29.044  0.00  0.00    +0.031 C 
ATOM      6  C   UNL A   1     -24.654  -0.347  30.252  0.00  0.00    +0.124 C 
ATOM      7  C   UNL A   1     -25.424  -1.343  30.697  0.00  0.00    +0.112 C 
ATOM      8  C   UNL A   1     -27.431  -2.688  30.602  0.00  0.00    +0.327 C 
ATOM      9  O   UNL A   1     -27.043  -3.868  30.250  0.00  0.00    -0.265 OA
ENDROOT
BRANCH   3  10
ATOM     10  C   UNL A   1     -26.909   0.772  27.418  0.00  0.00    +0.406 C 
ATOM     11  F   UNL A   1     -26.850   2.041  27.645  0.00  0.00    -0.170 F 
ATOM     12  F   UNL A   1     -28.155   0.447  27.173  0.00  0.00    -0.170 F 
ATOM     13  F   UNL A   1     -26.131   0.551  26.294  0.00  0.00    -0.170 F 
ENDBRANCH   3  10
BRANCH   8  14
ATOM     14  C   UNL A   1     -28.580  -2.316  31.365  0.00  0.00    +0.470 C 
ATOM     15  F   UNL A   1     -28.285  -1.536  32.218  0.00  0.00    -0.162 F 
ATOM     16  F   UNL A   1     -29.420  -1.606  30.453  0.00  0.00    -0.162 F 
ATOM     17  F   UNL A   1     -29.188  -3.404  31.814  0.00  0.00    -0.162 F 
ENDBRANCH   8  14
BRANCH   6  18
ATOM     18  C   UNL A   1     -23.349   0.069  30.853  0.00  0.00    +0.366 C 
ATOM     19  O   UNL A   1     -23.102  -0.231  31.919  0.00  0.00    -0.246 OA
ATOM     20  O   UNL A   1     -22.452   0.703  30.065  0.00  0.00    -0.246 OA
ENDBRANCH   6  18
TORSDOF 3
