MODEL 3422
MODEL 1
REMARK VINA RESULT:    -6.132      0.000      0.000
REMARK INTER + INTRA:          -7.400
REMARK INTER:                  -7.207
REMARK INTRA:                  -0.193
REMARK UNBOUND:                -0.193
REMARK  Name = No_3422-gen_results/8p0m/2024-11-26-14-13-15/
REMARK  3 active torsions:
REMARK  status: ('A' for Active; 'I' for Inactive)
REMARK    1  A    between atoms: C_3  and  C_8
REMARK    2  A    between atoms: C_6  and  C_18
REMARK    3  A    between atoms: C_12  and  C_13
REMARK                            x       y       z     vdW  Elec       q    Type
REMARK                         _______ _______ _______ _____ _____    ______ ____
ROOT
ATOM      1  O   UNL A   1     -24.956   0.475  30.339  0.00  0.00    -0.274 OA
ATOM      2  C   UNL A   1     -25.068  -0.723  30.057  0.00  0.00    +0.239 C 
ATOM      3  C   UNL A   1     -25.733  -1.516  30.155  0.00  0.00    +0.172 C 
ATOM      4  N   UNL A   1     -23.788  -1.179  29.328  0.00  0.00    -0.222 N 
ATOM      5  C   UNL A   1     -25.688  -3.004  29.946  0.00  0.00    +0.031 C 
ATOM      6  C   UNL A   1     -24.497  -3.349  29.203  0.00  0.00    +0.124 C 
ATOM      7  C   UNL A   1     -23.561  -2.422  28.987  0.00  0.00    +0.112 C 
ATOM      8  C   UNL A   1     -22.754  -0.145  29.095  0.00  0.00    +0.327 C 
ATOM      9  O   UNL A   1     -21.775  -0.162  29.937  0.00  0.00    -0.265 OA
ENDROOT
BRANCH   3  10
ATOM     10  C   UNL A   1     -27.064  -1.071  30.813  0.00  0.00    +0.406 C 
ATOM     11  F   UNL A   1     -27.620  -0.095  30.177  0.00  0.00    -0.170 F 
ATOM     12  F   UNL A   1     -26.820  -0.685  32.042  0.00  0.00    -0.170 F 
ATOM     13  F   UNL A   1     -27.990  -2.100  30.813  0.00  0.00    -0.170 F 
ENDBRANCH   3  10
BRANCH   8  14
ATOM     14  C   UNL A   1     -22.977   0.747  28.002  0.00  0.00    +0.470 C 
ATOM     15  F   UNL A   1     -23.317   1.820  28.397  0.00  0.00    -0.162 F 
ATOM     16  F   UNL A   1     -21.692   0.934  27.405  0.00  0.00    -0.162 F 
ATOM     17  F   UNL A   1     -23.819   0.195  27.142  0.00  0.00    -0.162 F 
ENDBRANCH   8  14
BRANCH   6  18
ATOM     18  C   UNL A   1     -24.390  -4.790  28.816  0.00  0.00    +0.366 C 
ATOM     19  O   UNL A   1     -23.626  -5.106  28.039  0.00  0.00    -0.246 OA
ATOM     20  O   UNL A   1     -25.140  -5.693  29.487  0.00  0.00    -0.246 OA
ENDBRANCH   6  18
TORSDOF 3
ENDMDL
ENDMDL
