REMARK  Name = No_3423-gen_results/8p0m/2024-11-26-14-13-15/
REMARK  9 active torsions:
REMARK  status: ('A' for Active; 'I' for Inactive)
REMARK    1  A    between atoms: C_2  and  C_21
REMARK    2  A    between atoms: C_5  and  C_7
REMARK    3  A    between atoms: C_7  and  C_8
REMARK    4  A    between atoms: C_7  and  C_10
REMARK    5  A    between atoms: C_12  and  C_29
REMARK    6  A    between atoms: C_21  and  C_22
REMARK    7  A    between atoms: C_22  and  C_23
REMARK    8  A    between atoms: C_22  and  C_32
REMARK    9  A    between atoms: C_32  and  C_34
REMARK                            x       y       z     vdW  Elec       q    Type
REMARK                         _______ _______ _______ _____ _____    ______ ____
ROOT
ATOM      1  C   UNL A   1     -28.016  -0.814  28.878  0.00  0.00    -0.005 A 
ATOM      2  C   UNL A   1     -27.064  -0.119  28.608  0.00  0.00    -0.022 A 
ATOM      3  C   UNL A   1     -26.876   1.133  28.913  0.00  0.00    -0.004 A 
ATOM      4  C   UNL A   1     -27.901   1.807  29.644  0.00  0.00    -0.001 A 
ATOM      5  C   UNL A   1     -29.046  -0.232  29.718  0.00  0.00    +0.013 A 
ATOM      6  C   UNL A   1     -28.940   1.052  30.060  0.00  0.00    -0.001 A 
ENDROOT
BRANCH   5   7
ATOM      7  C   UNL A   1     -30.163  -1.117  30.125  0.00  0.00    +0.183 C 
ATOM      8  O   UNL A   1     -29.764  -2.497  29.879  0.00  0.00    -0.212 OA
BRANCH   7   9
ATOM      9  C   UNL A   1     -30.637  -0.994  31.359  0.00  0.00    +0.013 A 
ATOM     10  C   UNL A   1     -31.006   0.025  31.990  0.00  0.00    -0.001 A 
ATOM     11  C   UNL A   1     -31.537   0.211  33.190  0.00  0.00    -0.000 A 
ATOM     12  C   UNL A   1     -31.628  -0.956  33.947  0.00  0.00    -0.000 A 
ATOM     13  C   UNL A   1     -31.095  -2.101  32.258  0.00  0.00    -0.001 A 
ATOM     14  C   UNL A   1     -31.431  -2.107  33.489  0.00  0.00    -0.000 A 
ENDBRANCH   7   9
BRANCH   7  15
ATOM     15  C   UNL A   1     -31.249  -0.971  29.015  0.00  0.00    +0.013 A 
ATOM     16  C   UNL A   1     -31.306  -0.003  28.271  0.00  0.00    +0.005 A 
ATOM     17  C   UNL A   1     -32.245  -0.004  27.146  0.00  0.00    +0.080 A 
ATOM     18  C   UNL A   1     -32.266  -2.008  28.920  0.00  0.00    -0.001 A 
ATOM     19  C   UNL A   1     -33.181  -1.995  27.921  0.00  0.00    -0.000 A 
ATOM     20  C   UNL A   1     -33.180  -0.942  27.044  0.00  0.00    +0.007 A 
BRANCH  17  21
ATOM     21  C   UNL A   1     -32.235   1.171  26.161  0.00  0.00    +0.388 C 
ATOM     22  O   UNL A   1     -32.378   2.232  26.401  0.00  0.00    -0.241 OA
ATOM     23  O   UNL A   1     -31.918   0.726  24.959  0.00  0.00    -0.241 OA
ENDBRANCH  17  21
ENDBRANCH   7  15
ENDBRANCH   5   7
BRANCH   2  24
ATOM     24  C   UNL A   1     -25.904  -0.707  27.735  0.00  0.00    +0.031 C 
BRANCH  24  25
ATOM     25  C   UNL A   1     -24.693  -1.063  28.575  0.00  0.00    +0.027 C 
BRANCH  25  26
ATOM     26  C   UNL A   1     -24.662  -2.258  29.117  0.00  0.00    -0.022 A 
ATOM     27  C   UNL A   1     -25.701  -3.189  29.128  0.00  0.00    -0.004 A 
ATOM     28  C   UNL A   1     -25.489  -4.595  29.354  0.00  0.00    -0.000 A 
ATOM     29  C   UNL A   1     -24.208  -5.072  29.195  0.00  0.00    -0.000 A 
ATOM     30  C   UNL A   1     -23.201  -4.184  28.734  0.00  0.00    -0.000 A 
ATOM     31  C   UNL A   1     -23.379  -2.884  28.721  0.00  0.00    -0.004 A 
ENDBRANCH  25  26
BRANCH  25  32
ATOM     32  C   UNL A   1     -23.782   0.024  28.872  0.00  0.00    +0.004 C 
ATOM     33  C   UNL A   1     -23.141   0.123  30.032  0.00  0.00    +0.000 C 
BRANCH  32  34
ATOM     34  C   UNL A   1     -23.348   0.881  27.775  0.00  0.00    +0.000 C 
ATOM     35  C   UNL A   1     -24.137   1.855  27.149  0.00  0.00    +0.000 C 
ENDBRANCH  32  34
ENDBRANCH  25  32
ENDBRANCH  24  25
ENDBRANCH   2  24
TORSDOF 9
