MODEL 3423
MODEL 1
REMARK VINA RESULT:    -8.385      0.000      0.000
REMARK INTER + INTRA:         -15.957
REMARK INTER:                 -12.797
REMARK INTRA:                  -3.160
REMARK UNBOUND:                -3.160
REMARK  Name = No_3423-gen_results/8p0m/2024-11-26-14-13-15/
REMARK  9 active torsions:
REMARK  status: ('A' for Active; 'I' for Inactive)
REMARK    1  A    between atoms: C_2  and  C_21
REMARK    2  A    between atoms: C_5  and  C_7
REMARK    3  A    between atoms: C_7  and  C_8
REMARK    4  A    between atoms: C_7  and  C_10
REMARK    5  A    between atoms: C_12  and  C_29
REMARK    6  A    between atoms: C_21  and  C_22
REMARK    7  A    between atoms: C_22  and  C_23
REMARK    8  A    between atoms: C_22  and  C_32
REMARK    9  A    between atoms: C_32  and  C_34
REMARK                            x       y       z     vdW  Elec       q    Type
REMARK                         _______ _______ _______ _____ _____    ______ ____
ROOT
ATOM      1  C   UNL A   1     -24.276   0.468  28.107  0.00  0.00    -0.005 A 
ATOM      2  C   UNL A   1     -23.863   0.835  27.031  0.00  0.00    -0.022 A 
ATOM      3  C   UNL A   1     -22.666   1.252  26.734  0.00  0.00    -0.004 A 
ATOM      4  C   UNL A   1     -21.697   1.310  27.781  0.00  0.00    -0.001 A 
ATOM      5  C   UNL A   1     -23.319   0.390  29.194  0.00  0.00    +0.013 A 
ATOM      6  C   UNL A   1     -22.074   0.816  28.980  0.00  0.00    -0.001 A 
ENDROOT
BRANCH   5   7
ATOM      7  C   UNL A   1     -23.808  -0.150  30.484  0.00  0.00    +0.183 C 
ATOM      8  O   UNL A   1     -22.698  -0.824  31.147  0.00  0.00    -0.212 OA
BRANCH   7   9
ATOM      9  C   UNL A   1     -24.398   0.689  31.327  0.00  0.00    +0.013 A 
ATOM     10  C   UNL A   1     -25.073   0.463  32.360  0.00  0.00    -0.001 A 
ATOM     11  C   UNL A   1     -25.637   1.245  33.269  0.00  0.00    -0.000 A 
ATOM     12  C   UNL A   1     -25.535   2.604  32.976  0.00  0.00    -0.000 A 
ATOM     13  C   UNL A   1     -24.202   2.172  31.401  0.00  0.00    -0.001 A 
ATOM     14  C   UNL A   1     -24.811   3.074  32.066  0.00  0.00    -0.000 A 
ENDBRANCH   7   9
BRANCH   7  15
ATOM     15  C   UNL A   1     -24.675  -1.396  30.124  0.00  0.00    +0.013 A 
ATOM     16  C   UNL A   1     -24.208  -2.394  29.596  0.00  0.00    +0.005 A 
ATOM     17  C   UNL A   1     -25.040  -3.589  29.435  0.00  0.00    +0.080 A 
ATOM     18  C   UNL A   1     -26.107  -1.322  30.375  0.00  0.00    -0.001 A 
ATOM     19  C   UNL A   1     -26.904  -2.399  30.176  0.00  0.00    -0.000 A 
ATOM     20  C   UNL A   1     -26.349  -3.540  29.659  0.00  0.00    +0.007 A 
BRANCH  17  21
ATOM     21  C   UNL A   1     -24.414  -4.867  28.864  0.00  0.00    +0.388 C 
ATOM     22  O   UNL A   1     -23.539  -4.933  28.206  0.00  0.00    -0.241 OA
ATOM     23  O   UNL A   1     -25.031  -5.917  29.374  0.00  0.00    -0.241 OA
ENDBRANCH  17  21
ENDBRANCH   7  15
ENDBRANCH   5   7
BRANCH   2  24
ATOM     24  C   UNL A   1     -24.844   0.904  25.812  0.00  0.00    +0.031 C 
BRANCH  24  25
ATOM     25  C   UNL A   1     -25.871   2.007  25.977  0.00  0.00    +0.027 C 
BRANCH  25  26
ATOM     26  C   UNL A   1     -27.067   1.801  25.478  0.00  0.00    -0.022 A 
ATOM     27  C   UNL A   1     -27.722   2.600  24.540  0.00  0.00    -0.004 A 
ATOM     28  C   UNL A   1     -28.816   2.124  23.735  0.00  0.00    -0.000 A 
ATOM     29  C   UNL A   1     -28.977   0.761  23.634  0.00  0.00    -0.000 A 
ATOM     30  C   UNL A   1     -28.015  -0.087  24.242  0.00  0.00    -0.000 A 
ATOM     31  C   UNL A   1     -27.149   0.366  25.118  0.00  0.00    -0.004 A 
ENDBRANCH  25  26
BRANCH  25  32
ATOM     32  C   UNL A   1     -25.373   3.269  26.487  0.00  0.00    +0.004 C 
ATOM     33  C   UNL A   1     -24.452   3.984  25.850  0.00  0.00    +0.000 C 
BRANCH  32  34
ATOM     34  C   UNL A   1     -26.095   3.904  27.583  0.00  0.00    +0.000 C 
ATOM     35  C   UNL A   1     -26.414   3.292  28.803  0.00  0.00    +0.000 C 
ENDBRANCH  32  34
ENDBRANCH  25  32
ENDBRANCH  24  25
ENDBRANCH   2  24
TORSDOF 9
ENDMDL
ENDMDL
