MODEL 3424
MODEL 1
REMARK VINA RESULT:    -6.303      0.000      0.000
REMARK INTER + INTRA:          -7.676
REMARK INTER:                  -7.408
REMARK INTRA:                  -0.268
REMARK UNBOUND:                -0.268
REMARK  Name = No_3424-gen_results/8p0m/2024-11-26-14-13-15/
REMARK  3 active torsions:
REMARK  status: ('A' for Active; 'I' for Inactive)
REMARK    1  A    between atoms: C_3  and  C_10
REMARK    2  A    between atoms: C_5  and  C_6
REMARK    3  A    between atoms: C_11  and  C_12
REMARK                            x       y       z     vdW  Elec       q    Type
REMARK                         _______ _______ _______ _____ _____    ______ ____
ROOT
ATOM      1  C   UNL A   1     -29.846  -9.662  31.939  0.00  0.00    +0.000 A 
ATOM      2  C   UNL A   1     -29.848 -10.282  30.902  0.00  0.00    -0.000 A 
ATOM      3  C   UNL A   1     -29.007 -11.340  30.603  0.00  0.00    +0.000 A 
ATOM      4  C   UNL A   1     -28.088 -11.743  31.617  0.00  0.00    +0.007 A 
ATOM      5  C   UNL A   1     -28.213 -11.145  32.812  0.00  0.00    +0.080 A 
ATOM      6  C   UNL A   1     -29.043 -10.119  32.990  0.00  0.00    +0.007 A 
ENDROOT
BRANCH   5   7
ATOM      7  C   UNL A   1     -27.347 -11.617  33.834  0.00  0.00    +0.388 C 
ATOM      8  O   UNL A   1     -26.759 -12.709  33.741  0.00  0.00    -0.241 OA
ATOM      9  O   UNL A   1     -26.941 -10.832  34.810  0.00  0.00    -0.241 OA
ENDBRANCH   5   7
BRANCH   3  10
ATOM     10  C   UNL A   1     -28.945 -11.953  29.206  0.00  0.00    +0.001 C 
ATOM     11  C   UNL A   1     -29.610 -11.377  28.203  0.00  0.00    +0.045 C 
BRANCH  11  12
ATOM     12  C   UNL A   1     -29.577 -12.052  26.888  0.00  0.00    +0.341 C 
ATOM     13  F   UNL A   1     -28.589 -12.794  26.708  0.00  0.00    -0.193 F 
ATOM     14  F   UNL A   1     -29.588 -11.173  25.798  0.00  0.00    -0.193 F 
ENDBRANCH  11  12
ENDBRANCH   3  10
TORSDOF 3
ENDMDL
ENDMDL
