REMARK  Name = No_3424-gen_results/8p0m/2024-11-26-14-13-15/
REMARK  3 active torsions:
REMARK  status: ('A' for Active; 'I' for Inactive)
REMARK    1  A    between atoms: C_3  and  C_10
REMARK    2  A    between atoms: C_5  and  C_6
REMARK    3  A    between atoms: C_11  and  C_12
REMARK                            x       y       z     vdW  Elec       q    Type
REMARK                         _______ _______ _______ _____ _____    ______ ____
ROOT
ATOM      1  C   UNL A   1     -28.016  -0.814  28.878  0.00  0.00    +0.000 A 
ATOM      2  C   UNL A   1     -27.064  -0.119  28.608  0.00  0.00    -0.000 A 
ATOM      3  C   UNL A   1     -26.972   0.714  27.506  0.00  0.00    +0.000 A 
ATOM      4  C   UNL A   1     -28.105   0.774  26.642  0.00  0.00    +0.007 A 
ATOM      5  C   UNL A   1     -29.204   0.118  27.048  0.00  0.00    +0.080 A 
ATOM      6  C   UNL A   1     -29.182  -0.676  28.117  0.00  0.00    +0.007 A 
ENDROOT
BRANCH   5   7
ATOM      7  C   UNL A   1     -30.349   0.257  26.220  0.00  0.00    +0.388 C 
ATOM      8  O   UNL A   1     -30.328  -0.055  25.016  0.00  0.00    -0.241 OA
ATOM      9  O   UNL A   1     -31.541   0.494  26.726  0.00  0.00    -0.241 OA
ENDBRANCH   5   7
BRANCH   3  10
ATOM     10  C   UNL A   1     -25.669   1.419  27.134  0.00  0.00    +0.001 C 
ATOM     11  C   UNL A   1     -24.529   1.050  27.720  0.00  0.00    +0.045 C 
BRANCH  11  12
ATOM     12  C   UNL A   1     -23.310   1.814  27.378  0.00  0.00    +0.341 C 
ATOM     13  F   UNL A   1     -23.418   2.545  26.372  0.00  0.00    -0.193 F 
ATOM     14  F   UNL A   1     -22.186   1.013  27.140  0.00  0.00    -0.193 F 
ENDBRANCH  11  12
ENDBRANCH   3  10
TORSDOF 3
