REMARK  Name = No_3425-gen_results/8p0m/2024-11-26-14-13-15/
REMARK  7 active torsions:
REMARK  status: ('A' for Active; 'I' for Inactive)
REMARK    1  A    between atoms: C_2  and  S_13
REMARK    2  A    between atoms: C_4  and  O_11
REMARK    3  A    between atoms: S_13  and  N_15
REMARK    4  A    between atoms: C_19  and  C_31
REMARK    5  A    between atoms: C_20  and  C_22
REMARK    6  A    between atoms: C_23  and  C_24
REMARK    7  A    between atoms: C_24  and  C_25
REMARK                            x       y       z     vdW  Elec       q    Type
REMARK                         _______ _______ _______ _____ _____    ______ ____
ROOT
ATOM      1  N   UNL A   1     -29.515  -3.208  30.699  0.00  0.00    -0.155 NA
ATOM      2  C   UNL A   1     -29.351  -4.523  30.453  0.00  0.00    +0.096 C 
ATOM      3  C   UNL A   1     -30.599  -5.120  29.921  0.00  0.00    +0.027 C 
ATOM      4  C   UNL A   1     -31.751  -4.484  30.271  0.00  0.00    +0.072 C 
ATOM      5  C   UNL A   1     -31.770  -3.076  30.396  0.00  0.00    +0.047 C 
ATOM      6  C   UNL A   1     -30.680  -2.523  30.812  0.00  0.00    +0.101 C 
ENDROOT
BRANCH   1   7
ATOM      7  S   UNL A   1     -28.198  -2.324  30.963  0.00  0.00    +0.063 S 
ATOM      8  O   UNL A   1     -27.080  -2.843  30.506  0.00  0.00    -0.153 OA
ATOM      9  O   UNL A   1     -28.183  -1.780  32.308  0.00  0.00    -0.153 OA
BRANCH   7  11
ATOM     10  C   UNL A   1     -28.016  -0.814  28.878  0.00  0.00    +0.023 A 
ATOM     11  C   UNL A   1     -28.469  -0.785  29.829  0.00  0.00    +0.122 A 
ATOM     12  C   UNL A   1     -28.182   0.428  28.113  0.00  0.00    +0.035 A 
ATOM     13  C   UNL A   1     -27.450   0.643  26.850  0.00  0.00    +0.139 A 
ATOM     14  C   UNL A   1     -27.860   1.457  25.908  0.00  0.00    +0.037 A 
ATOM     15  C   UNL A   1     -29.426   0.110  30.418  0.00  0.00    +0.020 A 
ATOM     16  C   UNL A   1     -29.623   1.220  29.735  0.00  0.00    +0.002 A 
ATOM     17  C   UNL A   1     -28.961   1.453  28.551  0.00  0.00    +0.003 A 
ATOM     18  C   UNL A   1     -28.787   2.547  26.317  0.00  0.00    +0.003 A 
ATOM     19  C   UNL A   1     -29.427   2.429  27.564  0.00  0.00    +0.000 A 
BRANCH  13  20
ATOM     20  O   UNL A   1     -26.552  -0.295  26.418  0.00  0.00    -0.471 OA
ATOM     21  C   UNL A   1     -25.731   0.191  25.468  0.00  0.00    +0.253 C 
ENDBRANCH  13  20
ENDBRANCH   7  11
ENDBRANCH   1   7
BRANCH   5  22
ATOM     22  C   UNL A   1     -33.012  -2.597  31.132  0.00  0.00    -0.029 C 
ATOM     23  C   UNL A   1     -33.400  -1.284  30.908  0.00  0.00    -0.026 C 
BRANCH  23  24
ATOM     24  C   UNL A   1     -32.776  -0.496  30.004  0.00  0.00    +0.052 C 
BRANCH  24  25
ATOM     25  C   UNL A   1     -33.422  -0.095  28.950  0.00  0.00    -0.018 A 
ATOM     26  C   UNL A   1     -32.759   0.577  27.820  0.00  0.00    -0.004 A 
ATOM     27  C   UNL A   1     -32.752   0.470  26.702  0.00  0.00    -0.000 A 
ATOM     28  C   UNL A   1     -33.555  -0.515  26.152  0.00  0.00    -0.000 A 
ATOM     29  C   UNL A   1     -34.462  -1.168  27.028  0.00  0.00    -0.000 A 
ATOM     30  C   UNL A   1     -34.794  -0.211  28.698  0.00  0.00    -0.004 A 
ENDBRANCH  24  25
ENDBRANCH  23  24
ENDBRANCH   5  22
BRANCH   4  31
ATOM     31  C   UNL A   1     -32.910  -5.338  30.269  0.00  0.00    +0.207 C 
ATOM     32  O   UNL A   1     -33.947  -4.988  30.854  0.00  0.00    -0.288 OA
ENDBRANCH   4  31
TORSDOF 7
