MODEL 3426
MODEL 1
REMARK VINA RESULT:    -6.525      0.000      0.000
REMARK INTER + INTRA:          -7.908
REMARK INTER:                  -7.287
REMARK INTRA:                  -0.621
REMARK UNBOUND:                -0.621
REMARK  Name = No_3426-gen_results/8p0m/2024-11-26-14-13-15/
REMARK  2 active torsions:
REMARK  status: ('A' for Active; 'I' for Inactive)
REMARK    1  A    between atoms: C_2  and  C_7
REMARK    2  A    between atoms: C_10  and  C_12
REMARK                            x       y       z     vdW  Elec       q    Type
REMARK                         _______ _______ _______ _____ _____    ______ ____
ROOT
ATOM      1  C   UNL A   1     -23.352  -1.483  29.248  0.00  0.00    +0.114 C 
ATOM      2  N   UNL A   1     -23.459  -0.710  28.221  0.00  0.00    -0.239 NA
ATOM      3  C   UNL A   1     -23.728   0.309  28.032  0.00  0.00    +0.043 C 
ATOM      4  C   UNL A   1     -24.135   1.086  27.420  0.00  0.00    +0.012 C 
ATOM      5  C   UNL A   1     -23.425   1.106  29.511  0.00  0.00    +0.043 C 
ATOM      6  C   UNL A   1     -23.041   0.395  30.543  0.00  0.00    +0.008 C 
ATOM      7  C   UNL A   1     -23.713  -0.851  30.498  0.00  0.00    +0.026 C 
ENDROOT
BRANCH   1   9
ATOM      8  C   UNL A   1     -23.920  -3.666  28.913  0.00  0.00    -0.003 A 
ATOM      9  C   UNL A   1     -24.293  -2.781  29.347  0.00  0.00    -0.003 A 
ATOM     10  C   UNL A   1     -24.831  -4.870  29.008  0.00  0.00    -0.000 A 
ATOM     11  C   UNL A   1     -26.136  -4.710  29.520  0.00  0.00    -0.000 A 
ATOM     12  C   UNL A   1     -25.597  -2.347  29.897  0.00  0.00    -0.003 A 
ATOM     13  C   UNL A   1     -26.463  -3.426  29.995  0.00  0.00    -0.000 A 
ENDBRANCH   1   9
BRANCH   4  14
ATOM     14  C   UNL A   1     -24.548   0.596  25.956  0.00  0.00    +0.001 C 
ATOM     15  C   UNL A   1     -25.653  -0.130  25.548  0.00  0.00    +0.000 C 
ENDBRANCH   4  14
TORSDOF 2
ENDMDL
ENDMDL
