REMARK  Name = No_3426-gen_results/8p0m/2024-11-26-14-13-15/
REMARK  2 active torsions:
REMARK  status: ('A' for Active; 'I' for Inactive)
REMARK    1  A    between atoms: C_2  and  C_7
REMARK    2  A    between atoms: C_10  and  C_12
REMARK                            x       y       z     vdW  Elec       q    Type
REMARK                         _______ _______ _______ _____ _____    ______ ____
ROOT
ATOM      1  C   UNL A   1     -30.074  -0.836  29.861  0.00  0.00    +0.114 C 
ATOM      2  N   UNL A   1     -30.717   0.096  30.478  0.00  0.00    -0.239 NA
ATOM      3  C   UNL A   1     -31.424   0.859  30.226  0.00  0.00    +0.043 C 
ATOM      4  C   UNL A   1     -31.879   1.817  30.367  0.00  0.00    +0.012 C 
ATOM      5  C   UNL A   1     -32.166   0.290  28.798  0.00  0.00    +0.043 C 
ATOM      6  C   UNL A   1     -31.728  -0.822  28.260  0.00  0.00    +0.008 C 
ATOM      7  C   UNL A   1     -30.324  -0.877  28.437  0.00  0.00    +0.026 C 
ENDROOT
BRANCH   1   9
ATOM      8  C   UNL A   1     -28.016  -0.814  28.878  0.00  0.00    -0.003 A 
ATOM      9  C   UNL A   1     -28.469  -0.785  29.829  0.00  0.00    -0.003 A 
ATOM     10  C   UNL A   1     -26.504  -0.778  28.877  0.00  0.00    -0.000 A 
ATOM     11  C   UNL A   1     -25.810  -0.853  30.103  0.00  0.00    -0.000 A 
ATOM     12  C   UNL A   1     -27.991  -0.892  31.226  0.00  0.00    -0.003 A 
ATOM     13  C   UNL A   1     -26.604  -0.868  31.265  0.00  0.00    -0.000 A 
ENDBRANCH   1   9
BRANCH   4  14
ATOM     14  C   UNL A   1     -31.330   2.603  31.646  0.00  0.00    +0.001 C 
ATOM     15  C   UNL A   1     -31.602   3.891  32.073  0.00  0.00    +0.000 C 
ENDBRANCH   4  14
TORSDOF 2
