REMARK  Name = No_3427-gen_results/8p0m/2024-11-26-14-13-15/
REMARK  3 active torsions:
REMARK  status: ('A' for Active; 'I' for Inactive)
REMARK    1  A    between atoms: P_1  and  O_2
REMARK    2  A    between atoms: O_2  and  C_6
REMARK    3  A    between atoms: C_6  and  C_7
REMARK                            x       y       z     vdW  Elec       q    Type
REMARK                         _______ _______ _______ _____ _____    ______ ____
ROOT
ATOM      1  O   UNL A   1     -27.240   0.061  28.428  0.00  0.00    -0.265 OA
ENDROOT
BRANCH   1   2
ATOM      2  P   UNL A   1     -27.951  -0.579  29.040  0.00  0.00    +0.533 P 
ATOM      3  O   UNL A   1     -27.244  -1.982  29.377  0.00  0.00    -0.115 OA
ATOM      4  O   UNL A   1     -28.184  -0.028  30.520  0.00  0.00    -0.222 OA
ATOM      5  O   UNL A   1     -29.399  -0.915  28.649  0.00  0.00    -0.115 OA
ENDBRANCH   1   2
BRANCH   1   6
ATOM      6  C   UNL A   1     -25.939   0.258  28.602  0.00  0.00    +0.180 C 
BRANCH   6   7
ATOM      7  C   UNL A   1     -25.216   1.130  27.685  0.00  0.00    +0.002 C 
ATOM      8  C   UNL A   1     -23.814   1.189  27.973  0.00  0.00    -0.028 C 
ATOM      9  C   UNL A   1     -22.991   2.256  27.458  0.00  0.00    +0.030 C 
ENDBRANCH   6   7
ENDBRANCH   1   6
TORSDOF 3
