MODEL 3427
MODEL 1
REMARK VINA RESULT:    -4.553      0.000      0.000
REMARK INTER + INTRA:          -5.414
REMARK INTER:                  -5.352
REMARK INTRA:                  -0.062
REMARK UNBOUND:                -0.062
REMARK  Name = No_3427-gen_results/8p0m/2024-11-26-14-13-15/
REMARK  3 active torsions:
REMARK  status: ('A' for Active; 'I' for Inactive)
REMARK    1  A    between atoms: P_1  and  O_2
REMARK    2  A    between atoms: O_2  and  C_6
REMARK    3  A    between atoms: C_6  and  C_7
REMARK                            x       y       z     vdW  Elec       q    Type
REMARK                         _______ _______ _______ _____ _____    ______ ____
ROOT
ATOM      1  O   UNL A   1     -28.261 -11.427  32.922  0.00  0.00    -0.265 OA
ENDROOT
BRANCH   1   2
ATOM      2  P   UNL A   1     -27.643 -11.749  33.819  0.00  0.00    +0.533 P 
ATOM      3  O   UNL A   1     -28.563 -12.610  34.815  0.00  0.00    -0.115 OA
ATOM      4  O   UNL A   1     -26.532 -12.839  33.463  0.00  0.00    -0.222 OA
ATOM      5  O   UNL A   1     -26.817 -10.807  34.710  0.00  0.00    -0.115 OA
ENDBRANCH   1   2
BRANCH   1   6
ATOM      6  C   UNL A   1     -28.166 -11.826  31.660  0.00  0.00    +0.180 C 
BRANCH   6   7
ATOM      7  C   UNL A   1     -29.037 -11.234  30.653  0.00  0.00    +0.002 C 
ATOM      8  C   UNL A   1     -29.053 -11.983  29.431  0.00  0.00    -0.028 C 
ATOM      9  C   UNL A   1     -29.523 -11.394  28.202  0.00  0.00    +0.030 C 
ENDBRANCH   6   7
ENDBRANCH   1   6
TORSDOF 3
ENDMDL
ENDMDL
