MODEL 3428
MODEL 1
REMARK VINA RESULT:    -5.803      0.000      0.000
REMARK INTER + INTRA:          -7.707
REMARK INTER:                  -7.160
REMARK INTRA:                  -0.547
REMARK UNBOUND:                -0.547
REMARK  Name = No_3428-gen_results/8p0m/2024-11-26-14-13-15/
REMARK  4 active torsions:
REMARK  status: ('A' for Active; 'I' for Inactive)
REMARK    1  A    between atoms: C_1  and  C_2
REMARK    2  A    between atoms: C_1  and  C_8
REMARK    3  A    between atoms: C_5  and  C_10
REMARK    4  A    between atoms: C_7  and  C_14
REMARK                            x       y       z     vdW  Elec       q    Type
REMARK                         _______ _______ _______ _____ _____    ______ ____
ROOT
ATOM      1  C   UNL A   1     -23.684   0.358  28.235  0.00  0.00    -0.011 A 
ATOM      2  C   UNL A   1     -22.952  -0.410  29.139  0.00  0.00    -0.004 A 
ATOM      3  C   UNL A   1     -23.083  -1.858  29.391  0.00  0.00    +0.006 A 
ATOM      4  C   UNL A   1     -24.213  -2.493  28.790  0.00  0.00    +0.080 A 
ATOM      5  C   UNL A   1     -25.003  -1.746  27.910  0.00  0.00    +0.006 A 
ATOM      6  C   UNL A   1     -24.788  -0.437  27.651  0.00  0.00    -0.004 A 
ENDROOT
BRANCH   4   7
ATOM      7  C   UNL A   1     -24.380  -3.906  29.096  0.00  0.00    +0.388 C 
ATOM      8  O   UNL A   1     -23.641  -4.729  28.541  0.00  0.00    -0.241 OA
ATOM      9  O   UNL A   1     -25.535  -4.415  29.625  0.00  0.00    -0.241 OA
ENDBRANCH   4   7
BRANCH   6  10
ATOM     10  C   UNL A   1     -25.708   0.300  26.767  0.00  0.00    -0.005 C 
ATOM     11  C   UNL A   1     -25.711  -0.178  25.509  0.00  0.00    -0.026 C 
ATOM     12  C   UNL A   1     -26.614   0.452  24.534  0.00  0.00    +0.031 C 
ENDBRANCH   6  10
BRANCH   1  13
ATOM     13  C   UNL A   1     -23.514   1.545  28.074  0.00  0.00    +0.140 C 
BRANCH  13  14
ATOM     14  C   UNL A   1     -22.425   1.839  27.068  0.00  0.00    +0.369 C 
ATOM     15  O   UNL A   1     -22.815   2.187  25.805  0.00  0.00    -0.245 OA
ATOM     16  O   UNL A   1     -21.317   1.865  27.316  0.00  0.00    -0.245 OA
ENDBRANCH  13  14
ENDBRANCH   1  13
TORSDOF 4
ENDMDL
ENDMDL
