REMARK  Name = No_3428-gen_results/8p0m/2024-11-26-14-13-15/
REMARK  4 active torsions:
REMARK  status: ('A' for Active; 'I' for Inactive)
REMARK    1  A    between atoms: C_1  and  C_2
REMARK    2  A    between atoms: C_1  and  C_8
REMARK    3  A    between atoms: C_5  and  C_10
REMARK    4  A    between atoms: C_7  and  C_14
REMARK                            x       y       z     vdW  Elec       q    Type
REMARK                         _______ _______ _______ _____ _____    ______ ____
ROOT
ATOM      1  C   UNL A   1     -27.064  -0.119  28.608  0.00  0.00    -0.011 A 
ATOM      2  C   UNL A   1     -25.765  -0.390  29.036  0.00  0.00    -0.004 A 
ATOM      3  C   UNL A   1     -24.552   0.406  28.765  0.00  0.00    +0.006 A 
ATOM      4  C   UNL A   1     -24.696   1.448  27.799  0.00  0.00    +0.080 A 
ATOM      5  C   UNL A   1     -25.976   1.725  27.308  0.00  0.00    +0.006 A 
ATOM      6  C   UNL A   1     -27.072   1.013  27.654  0.00  0.00    -0.004 A 
ENDROOT
BRANCH   4   7
ATOM      7  C   UNL A   1     -23.483   2.187  27.481  0.00  0.00    +0.388 C 
ATOM      8  O   UNL A   1     -23.554   3.144  26.699  0.00  0.00    -0.241 OA
ATOM      9  O   UNL A   1     -22.232   1.663  27.658  0.00  0.00    -0.241 OA
ENDBRANCH   4   7
BRANCH   6  10
ATOM     10  C   UNL A   1     -28.375   1.320  27.038  0.00  0.00    -0.005 C 
ATOM     11  C   UNL A   1     -28.949   2.419  27.562  0.00  0.00    -0.026 C 
ATOM     12  C   UNL A   1     -30.241   2.852  27.010  0.00  0.00    +0.031 C 
ENDBRANCH   6  10
BRANCH   1  13
ATOM     13  C   UNL A   1     -28.016  -0.814  28.878  0.00  0.00    +0.140 C 
BRANCH  13  14
ATOM     14  C   UNL A   1     -28.618  -0.469  30.221  0.00  0.00    +0.369 C 
ATOM     15  O   UNL A   1     -29.625  -1.271  30.682  0.00  0.00    -0.245 OA
ATOM     16  O   UNL A   1     -28.237   0.359  30.898  0.00  0.00    -0.245 OA
ENDBRANCH  13  14
ENDBRANCH   1  13
TORSDOF 4
