MODEL 3429
MODEL 1
REMARK VINA RESULT:    -5.252      0.000      0.000
REMARK INTER + INTRA:          -6.389
REMARK INTER:                  -6.173
REMARK INTRA:                  -0.216
REMARK UNBOUND:                -0.216
REMARK  Name = No_3429-gen_results/8p0m/2024-11-26-14-13-15/
REMARK  3 active torsions:
REMARK  status: ('A' for Active; 'I' for Inactive)
REMARK    1  A    between atoms: C_1  and  C_2
REMARK    2  A    between atoms: C_1  and  C_8
REMARK    3  A    between atoms: C_5  and  C_10
REMARK                            x       y       z     vdW  Elec       q    Type
REMARK                         _______ _______ _______ _____ _____    ______ ____
ROOT
ATOM      1  C   UNL A   1     -23.872  -1.971  29.028  0.00  0.00    -0.022 A 
ATOM      2  C   UNL A   1     -24.750  -1.305  28.180  0.00  0.00    -0.004 A 
ATOM      3  C   UNL A   1     -24.479  -0.029  27.457  0.00  0.00    +0.001 A 
ATOM      4  C   UNL A   1     -23.263   0.634  27.797  0.00  0.00    +0.021 A 
ATOM      5  C   UNL A   1     -22.413  -0.030  28.704  0.00  0.00    +0.001 A 
ATOM      6  C   UNL A   1     -22.691  -1.207  29.284  0.00  0.00    -0.004 A 
ENDROOT
BRANCH   4   7
ATOM      7  C   UNL A   1     -23.015   1.895  27.133  0.00  0.00    +0.122 C 
ATOM      8  N   UNL A   1     -23.770   2.986  27.399  0.00  0.00    -0.146 NA
ENDBRANCH   4   7
BRANCH   1   9
ATOM      9  C   UNL A   1     -24.187  -3.009  29.563  0.00  0.00    +0.026 C 
BRANCH   9  10
ATOM     10  C   UNL A   1     -24.165  -4.204  28.612  0.00  0.00    +0.005 C 
ATOM     11  C   UNL A   1     -24.874  -5.366  28.969  0.00  0.00    +0.000 C 
ENDBRANCH   9  10
ENDBRANCH   1   9
TORSDOF 3
ENDMDL
ENDMDL
