MODEL 342
MODEL 1
REMARK VINA RESULT:    -4.127      0.000      0.000
REMARK INTER + INTRA:          -4.738
REMARK INTER:                  -4.609
REMARK INTRA:                  -0.129
REMARK UNBOUND:                -0.129
REMARK  Name = No_342-gen_results/8p0m/2024-11-26-14-13-15/
REMARK  2 active torsions:
REMARK  status: ('A' for Active; 'I' for Inactive)
REMARK    1  A    between atoms: C_3  and  C_4
REMARK    2  A    between atoms: C_5  and  C_6
REMARK                            x       y       z     vdW  Elec       q    Type
REMARK                         _______ _______ _______ _____ _____    ______ ____
ROOT
ATOM      1  C   UNL A   1     -10.015  -9.384  19.930  0.00  0.00    -0.005 C 
ATOM      2  C   UNL A   1      -8.846  -9.265  20.714  0.00  0.00    -0.026 C 
ENDROOT
BRANCH   1   5
ATOM      3  C   UNL A   1      -9.898 -10.633  16.526  0.00  0.00    +0.031 C 
ATOM      4  C   UNL A   1     -10.082 -10.594  17.720  0.00  0.00    -0.026 C 
ATOM      5  C   UNL A   1      -9.884  -9.462  18.487  0.00  0.00    -0.005 C 
ENDBRANCH   1   5
BRANCH   2   6
ATOM      6  C   UNL A   1      -7.602  -9.205  19.991  0.00  0.00    +0.026 C 
ATOM      7  C   UNL A   1      -6.957  -8.036  19.660  0.00  0.00    +0.005 C 
ENDBRANCH   2   6
TORSDOF 2
ENDMDL
ENDMDL
