MODEL 3431
MODEL 1
REMARK VINA RESULT:    -7.493      0.000      0.000
REMARK INTER + INTRA:          -8.672
REMARK INTER:                  -7.931
REMARK INTRA:                  -0.741
REMARK UNBOUND:                -0.741
REMARK  Name = No_3431-gen_results/8p0m/2024-11-26-14-13-15/
REMARK  1 active torsions:
REMARK  status: ('A' for Active; 'I' for Inactive)
REMARK    1  A    between atoms: C_14  and  C_15
REMARK                            x       y       z     vdW  Elec       q    Type
REMARK                         _______ _______ _______ _____ _____    ______ ____
ROOT
ATOM      1  C   UNL A   1     -25.336  -0.708  26.967  0.00  0.00    +0.000 A 
ATOM      2  C   UNL A   1     -24.929  -0.025  26.276  0.00  0.00    +0.000 A 
ATOM      3  C   UNL A   1     -25.529  -0.177  28.369  0.00  0.00    +0.000 A 
ATOM      4  C   UNL A   1     -25.300   1.191  28.628  0.00  0.00    +0.000 A 
ATOM      5  C   UNL A   1     -24.642   1.428  26.277  0.00  0.00    +0.000 A 
ATOM      6  C   UNL A   1     -24.814   1.953  27.550  0.00  0.00    +0.000 A 
ATOM      7  C   UNL A   1     -25.379   1.517  29.971  0.00  0.00    +0.000 A 
ATOM      8  C   UNL A   1     -25.234   0.767  31.030  0.00  0.00    +0.000 A 
ATOM      9  C   UNL A   1     -25.342   1.301  32.376  0.00  0.00    +0.000 A 
ATOM     10  C   UNL A   1     -25.123   0.464  33.489  0.00  0.00    +0.000 A 
ATOM     11  C   UNL A   1     -24.548  -0.825  33.279  0.00  0.00    +0.000 A 
ATOM     12  C   UNL A   1     -24.262  -1.276  31.980  0.00  0.00    +0.000 A 
ATOM     13  C   UNL A   1     -24.535  -0.476  30.883  0.00  0.00    +0.000 A 
ATOM     14  C   UNL A   1     -25.169  -0.960  29.527  0.00  0.00    +0.000 A 
ENDROOT
BRANCH  14  15
ATOM     15  C   UNL A   1     -25.075  -2.497  29.416  0.00  0.00    +0.000 A 
ATOM     16  C   UNL A   1     -26.161  -3.141  29.787  0.00  0.00    +0.000 A 
ATOM     17  C   UNL A   1     -23.963  -3.112  28.940  0.00  0.00    +0.000 A 
ATOM     18  C   UNL A   1     -23.981  -4.435  28.677  0.00  0.00    +0.000 A 
ATOM     19  C   UNL A   1     -26.293  -4.516  29.622  0.00  0.00    +0.000 A 
ATOM     20  C   UNL A   1     -25.132  -5.159  29.072  0.00  0.00    +0.000 A 
ENDBRANCH  14  15
TORSDOF 1
ENDMDL
ENDMDL
