REMARK  Name = No_3431-gen_results/8p0m/2024-11-26-14-13-15/
REMARK  1 active torsions:
REMARK  status: ('A' for Active; 'I' for Inactive)
REMARK    1  A    between atoms: C_14  and  C_15
REMARK                            x       y       z     vdW  Elec       q    Type
REMARK                         _______ _______ _______ _____ _____    ______ ____
ROOT
ATOM      1  C   UNL A   1     -28.016  -0.814  28.878  0.00  0.00    +0.000 A 
ATOM      2  C   UNL A   1     -28.469  -0.785  29.829  0.00  0.00    +0.000 A 
ATOM      3  C   UNL A   1     -26.504  -0.778  28.877  0.00  0.00    +0.000 A 
ATOM      4  C   UNL A   1     -25.810  -0.853  30.103  0.00  0.00    +0.000 A 
ATOM      5  C   UNL A   1     -27.991  -0.892  31.226  0.00  0.00    +0.000 A 
ATOM      6  C   UNL A   1     -26.604  -0.868  31.265  0.00  0.00    +0.000 A 
ATOM      7  C   UNL A   1     -24.444  -0.673  29.974  0.00  0.00    +0.000 A 
ATOM      8  C   UNL A   1     -23.758  -0.077  29.035  0.00  0.00    +0.000 A 
ATOM      9  C   UNL A   1     -22.310   0.023  29.082  0.00  0.00    +0.000 A 
ATOM     10  C   UNL A   1     -21.617   0.724  28.074  0.00  0.00    +0.000 A 
ATOM     11  C   UNL A   1     -22.358   1.540  27.168  0.00  0.00    +0.000 A 
ATOM     12  C   UNL A   1     -23.759   1.597  27.241  0.00  0.00    +0.000 A 
ATOM     13  C   UNL A   1     -24.443   0.859  28.193  0.00  0.00    +0.000 A 
ATOM     14  C   UNL A   1     -25.771   0.051  27.951  0.00  0.00    +0.000 A 
ENDROOT
BRANCH  14  15
ATOM     15  C   UNL A   1     -26.438   0.508  26.636  0.00  0.00    +0.000 A 
ATOM     16  C   UNL A   1     -26.103  -0.199  25.577  0.00  0.00    +0.000 A 
ATOM     17  C   UNL A   1     -27.321   1.538  26.602  0.00  0.00    +0.000 A 
ATOM     18  C   UNL A   1     -28.027   1.789  25.481  0.00  0.00    +0.000 A 
ATOM     19  C   UNL A   1     -26.715  -0.008  24.342  0.00  0.00    +0.000 A 
ATOM     20  C   UNL A   1     -27.685   1.051  24.321  0.00  0.00    +0.000 A 
ENDBRANCH  14  15
TORSDOF 1
