MODEL 3432
MODEL 1
REMARK VINA RESULT:    -5.172      0.000      0.000
REMARK INTER + INTRA:          -5.695
REMARK INTER:                  -5.474
REMARK INTRA:                  -0.220
REMARK UNBOUND:                -0.220
REMARK  Name = No_3432-gen_results/8p0m/2024-11-26-14-13-15/
REMARK  1 active torsions:
REMARK  status: ('A' for Active; 'I' for Inactive)
REMARK    1  A    between atoms: C_3  and  C_4
REMARK                            x       y       z     vdW  Elec       q    Type
REMARK                         _______ _______ _______ _____ _____    ______ ____
ROOT
ATOM      1  C   UNL A   1     -25.818  -2.590  29.851  0.00  0.00    +0.004 A 
ATOM      2  C   UNL A   1     -26.370  -3.485  29.926  0.00  0.00    -0.000 A 
ATOM      3  C   UNL A   1     -24.533  -2.656  29.269  0.00  0.00    +0.071 A 
ATOM      4  C   UNL A   1     -26.040  -4.866  29.534  0.00  0.00    -0.000 A 
ATOM      5  C   UNL A   1     -24.780  -5.008  28.953  0.00  0.00    -0.000 A 
ATOM      6  C   UNL A   1     -24.011  -3.906  28.762  0.00  0.00    +0.004 A 
ENDROOT
BRANCH   3   7
ATOM      7  C   UNL A   1     -23.672  -1.476  28.990  0.00  0.00    +0.419 C 
ATOM      8  F   UNL A   1     -22.566  -1.853  28.952  0.00  0.00    -0.166 F 
ATOM      9  F   UNL A   1     -23.763  -0.654  30.068  0.00  0.00    -0.166 F 
ATOM     10  F   UNL A   1     -24.051  -0.802  27.877  0.00  0.00    -0.166 F 
ENDBRANCH   3   7
TORSDOF 1
ENDMDL
ENDMDL
