MODEL 3433
MODEL 1
REMARK VINA RESULT:    -5.618      0.000      0.000
REMARK INTER + INTRA:          -8.208
REMARK INTER:                  -7.589
REMARK INTRA:                  -0.618
REMARK UNBOUND:                -0.618
REMARK  Name = No_3433-gen_results/8p0m/2024-11-26-14-13-15/
REMARK  6 active torsions:
REMARK  status: ('A' for Active; 'I' for Inactive)
REMARK    1  A    between atoms: C_1  and  C_2
REMARK    2  A    between atoms: C_1  and  N_8
REMARK    3  A    between atoms: C_5  and  C_10
REMARK    4  A    between atoms: N_8  and  C_9
REMARK    5  A    between atoms: C_9  and  C_15
REMARK    6  A    between atoms: C_15  and  O_16
REMARK                            x       y       z     vdW  Elec       q    Type
REMARK                         _______ _______ _______ _____ _____    ______ ____
ROOT
ATOM      1  C   UNL A   1     -19.410 -20.225   5.703  0.00  0.00    +0.121 C 
ENDROOT
BRANCH   1   2
ATOM      2  C   UNL A   1     -18.603 -20.705   6.464  0.00  0.00    -0.005 A 
ATOM      3  C   UNL A   1     -18.999 -21.571   7.478  0.00  0.00    -0.003 A 
ATOM      4  C   UNL A   1     -18.105 -22.217   8.482  0.00  0.00    +0.004 A 
ATOM      5  C   UNL A   1     -16.705 -22.044   8.273  0.00  0.00    +0.057 A 
ATOM      6  C   UNL A   1     -16.324 -21.211   7.203  0.00  0.00    +0.004 A 
ATOM      7  C   UNL A   1     -17.180 -20.612   6.362  0.00  0.00    -0.003 A 
BRANCH   5   8
ATOM      8  C   UNL A   1     -15.757 -22.427   9.211  0.00  0.00    +0.284 C 
ATOM      9  N   UNL A   1     -16.006 -22.451  10.481  0.00  0.00    -0.084 NA
ATOM     10  O   UNL A   1     -14.453 -22.276   8.965  0.00  0.00    -0.267 OA
ENDBRANCH   5   8
ENDBRANCH   1   2
BRANCH   1  11
ATOM     11  N   UNL A   1     -19.521 -18.864   5.746  0.00  0.00    -0.150 NA
BRANCH  11  12
ATOM     12  C   UNL A   1     -20.690 -18.310   6.155  0.00  0.00    +0.408 C 
ATOM     13  F   UNL A   1     -21.134 -18.620   7.265  0.00  0.00    -0.176 F 
ATOM     14  O   UNL A   1     -20.522 -16.888   6.041  0.00  0.00    -0.160 OA
BRANCH  12  15
ATOM     15  C   UNL A   1     -21.922 -18.535   5.269  0.00  0.00    +0.394 C 
ATOM     16  O   UNL A   1     -23.015 -18.852   5.552  0.00  0.00    -0.242 OA
BRANCH  15  17
ATOM     17  O   UNL A   1     -21.652 -18.104   3.978  0.00  0.00    -0.440 OA
ATOM     18  C   UNL A   1     -22.002 -19.113   2.951  0.00  0.00    +0.256 C 
ENDBRANCH  15  17
ENDBRANCH  12  15
ENDBRANCH  11  12
ENDBRANCH   1  11
TORSDOF 6
ENDMDL
ENDMDL
