REMARK  Name = No_3433-gen_results/8p0m/2024-11-26-14-13-15/
REMARK  6 active torsions:
REMARK  status: ('A' for Active; 'I' for Inactive)
REMARK    1  A    between atoms: C_1  and  C_2
REMARK    2  A    between atoms: C_1  and  N_8
REMARK    3  A    between atoms: C_5  and  C_10
REMARK    4  A    between atoms: N_8  and  C_9
REMARK    5  A    between atoms: C_9  and  C_15
REMARK    6  A    between atoms: C_15  and  O_16
REMARK                            x       y       z     vdW  Elec       q    Type
REMARK                         _______ _______ _______ _____ _____    ______ ____
ROOT
ATOM      1  C   UNL A   1     -28.016  -0.814  28.878  0.00  0.00    +0.121 C 
ENDROOT
BRANCH   1   2
ATOM      2  C   UNL A   1     -27.064  -0.119  28.608  0.00  0.00    -0.005 A 
ATOM      3  C   UNL A   1     -25.792  -0.430  29.076  0.00  0.00    -0.003 A 
ATOM      4  C   UNL A   1     -24.546   0.349  28.823  0.00  0.00    +0.004 A 
ATOM      5  C   UNL A   1     -24.659   1.420  27.888  0.00  0.00    +0.057 A 
ATOM      6  C   UNL A   1     -25.947   1.681  27.379  0.00  0.00    +0.004 A 
ATOM      7  C   UNL A   1     -27.044   0.974  27.687  0.00  0.00    -0.003 A 
BRANCH   5   8
ATOM      8  C   UNL A   1     -23.645   2.344  27.683  0.00  0.00    +0.284 C 
ATOM      9  N   UNL A   1     -23.500   2.980  26.564  0.00  0.00    -0.084 NA
ATOM     10  O   UNL A   1     -22.494   2.257  28.355  0.00  0.00    -0.267 OA
ENDBRANCH   5   8
ENDBRANCH   1   2
BRANCH   1  11
ATOM     11  N   UNL A   1     -29.188  -0.147  29.092  0.00  0.00    -0.150 NA
BRANCH  11  12
ATOM     12  C   UNL A   1     -30.202  -0.783  29.730  0.00  0.00    +0.408 C 
ATOM     13  F   UNL A   1     -30.549  -0.374  30.842  0.00  0.00    -0.176 F 
ATOM     14  O   UNL A   1     -31.308  -0.797  28.812  0.00  0.00    -0.160 OA
BRANCH  12  15
ATOM     15  C   UNL A   1     -30.028  -2.282  30.006  0.00  0.00    +0.394 C 
ATOM     16  O   UNL A   1     -29.528  -3.122  29.358  0.00  0.00    -0.242 OA
BRANCH  15  17
ATOM     17  O   UNL A   1     -30.389  -2.560  31.317  0.00  0.00    -0.440 OA
ATOM     18  C   UNL A   1     -30.157  -3.975  31.689  0.00  0.00    +0.256 C 
ENDBRANCH  15  17
ENDBRANCH  12  15
ENDBRANCH  11  12
ENDBRANCH   1  11
TORSDOF 6
