MODEL 3434
MODEL 1
REMARK VINA RESULT:    -6.070      0.000      0.000
REMARK INTER + INTRA:          -6.955
REMARK INTER:                  -6.779
REMARK INTRA:                  -0.175
REMARK UNBOUND:                -0.175
REMARK  Name = No_3434-gen_results/8p0m/2024-11-26-14-13-15/
REMARK  2 active torsions:
REMARK  status: ('A' for Active; 'I' for Inactive)
REMARK    1  A    between atoms: C_2  and  O_7
REMARK    2  A    between atoms: O_7  and  C_8
REMARK                            x       y       z     vdW  Elec       q    Type
REMARK                         _______ _______ _______ _____ _____    ______ ____
ROOT
ATOM      1  O   UNL A   1     -24.644  -1.199  29.552  0.00  0.00    -0.454 OA
ENDROOT
BRANCH   1   3
ATOM      2  C   UNL A   1     -23.888  -3.077  28.805  0.00  0.00    +0.037 A 
ATOM      3  C   UNL A   1     -24.684  -2.643  29.342  0.00  0.00    +0.145 A 
ATOM      4  C   UNL A   1     -23.947  -4.533  28.601  0.00  0.00    +0.003 A 
ATOM      5  C   UNL A   1     -25.101  -5.273  28.992  0.00  0.00    +0.000 A 
ATOM      6  C   UNL A   1     -26.001  -3.165  29.797  0.00  0.00    +0.037 A 
ATOM      7  C   UNL A   1     -26.090  -4.515  29.634  0.00  0.00    +0.003 A 
ENDBRANCH   1   3
BRANCH   1   8
ATOM      8  C   UNL A   1     -24.359  -0.475  28.523  0.00  0.00    +0.145 A 
ATOM      9  C   UNL A   1     -23.291   0.334  28.515  0.00  0.00    +0.037 A 
ATOM     10  C   UNL A   1     -23.001   1.165  27.414  0.00  0.00    +0.003 A 
ATOM     11  C   UNL A   1     -23.922   1.160  26.340  0.00  0.00    +0.000 A 
ATOM     12  C   UNL A   1     -25.029   0.381  26.346  0.00  0.00    +0.003 A 
ATOM     13  C   UNL A   1     -25.284  -0.450  27.429  0.00  0.00    +0.037 A 
ENDBRANCH   1   8
TORSDOF 2
ENDMDL
ENDMDL
