REMARK  Name = No_3434-gen_results/8p0m/2024-11-26-14-13-15/
REMARK  2 active torsions:
REMARK  status: ('A' for Active; 'I' for Inactive)
REMARK    1  A    between atoms: C_2  and  O_7
REMARK    2  A    between atoms: O_7  and  C_8
REMARK                            x       y       z     vdW  Elec       q    Type
REMARK                         _______ _______ _______ _____ _____    ______ ____
ROOT
ATOM      1  O   UNL A   1     -29.927  -0.726  29.877  0.00  0.00    -0.454 OA
ENDROOT
BRANCH   1   3
ATOM      2  C   UNL A   1     -28.016  -0.814  28.878  0.00  0.00    +0.037 A 
ATOM      3  C   UNL A   1     -28.469  -0.785  29.829  0.00  0.00    +0.145 A 
ATOM      4  C   UNL A   1     -26.546  -0.876  28.850  0.00  0.00    +0.003 A 
ATOM      5  C   UNL A   1     -25.804  -1.032  30.057  0.00  0.00    +0.000 A 
ATOM      6  C   UNL A   1     -27.944  -0.987  31.207  0.00  0.00    +0.037 A 
ATOM      7  C   UNL A   1     -26.582  -1.039  31.223  0.00  0.00    +0.003 A 
ENDBRANCH   1   3
BRANCH   1   8
ATOM      8  C   UNL A   1     -30.505  -0.024  28.962  0.00  0.00    +0.145 A 
ATOM      9  C   UNL A   1     -31.483   0.841  29.262  0.00  0.00    +0.037 A 
ATOM     10  C   UNL A   1     -32.154   1.574  28.262  0.00  0.00    +0.003 A 
ATOM     11  C   UNL A   1     -31.796   1.312  26.919  0.00  0.00    +0.000 A 
ATOM     12  C   UNL A   1     -30.839   0.413  26.592  0.00  0.00    +0.003 A 
ATOM     13  C   UNL A   1     -30.172  -0.282  27.592  0.00  0.00    +0.037 A 
ENDBRANCH   1   8
TORSDOF 2
