REMARK  Name = No_3435-gen_results/8p0m/2024-11-26-14-13-15/
REMARK  2 active torsions:
REMARK  status: ('A' for Active; 'I' for Inactive)
REMARK    1  A    between atoms: C_2  and  N_3
REMARK    2  A    between atoms: C_4  and  C_13
REMARK                            x       y       z     vdW  Elec       q    Type
REMARK                         _______ _______ _______ _____ _____    ______ ____
ROOT
ATOM      1  C   UNL A   1     -28.016  -0.814  28.878  0.00  0.00    +0.021 A 
ATOM      2  C   UNL A   1     -27.064  -0.119  28.608  0.00  0.00    +0.048 A 
ATOM      3  C   UNL A   1     -27.961  -1.542  30.166  0.00  0.00    +0.081 A 
ATOM      4  C   UNL A   1     -26.781  -1.620  30.884  0.00  0.00    +0.007 A 
ATOM      5  C   UNL A   1     -25.704  -0.946  30.333  0.00  0.00    +0.002 A 
ATOM      6  C   UNL A   1     -25.760  -0.187  29.238  0.00  0.00    +0.015 A 
ENDROOT
BRANCH   2   7
ATOM      7  N   UNL A   1     -26.985   0.597  27.522  0.00  0.00    -0.307 N 
ATOM      8  C   UNL A   1     -26.800   1.899  27.411  0.00  0.00    +0.091 C 
ATOM      9  C   UNL A   1     -26.614   2.555  26.151  0.00  0.00    +0.021 C 
ATOM     10  C   UNL A   1     -27.164   0.023  26.187  0.00  0.00    +0.091 C 
ATOM     11  C   UNL A   1     -27.127   0.552  24.961  0.00  0.00    +0.021 C 
ATOM     12  C   UNL A   1     -26.838   1.897  24.906  0.00  0.00    +0.004 C 
ENDBRANCH   2   7
BRANCH   3  13
ATOM     13  C   UNL A   1     -29.127  -2.340  30.663  0.00  0.00    +0.388 C 
ATOM     14  O   UNL A   1     -29.820  -1.913  31.355  0.00  0.00    -0.241 OA
ATOM     15  O   UNL A   1     -28.959  -3.642  30.441  0.00  0.00    -0.241 OA
ENDBRANCH   3  13
TORSDOF 2
