MODEL 3435
MODEL 1
REMARK VINA RESULT:    -6.563      0.000      0.000
REMARK INTER + INTRA:          -7.727
REMARK INTER:                  -7.330
REMARK INTRA:                  -0.397
REMARK UNBOUND:                -0.397
REMARK  Name = No_3435-gen_results/8p0m/2024-11-26-14-13-15/
REMARK  2 active torsions:
REMARK  status: ('A' for Active; 'I' for Inactive)
REMARK    1  A    between atoms: C_2  and  N_3
REMARK    2  A    between atoms: C_4  and  C_13
REMARK                            x       y       z     vdW  Elec       q    Type
REMARK                         _______ _______ _______ _____ _____    ______ ____
ROOT
ATOM      1  C   UNL A   1     -25.699  -2.484  29.454  0.00  0.00    +0.021 A 
ATOM      2  C   UNL A   1     -24.546  -2.529  29.092  0.00  0.00    +0.048 A 
ATOM      3  C   UNL A   1     -26.336  -3.775  29.797  0.00  0.00    +0.081 A 
ATOM      4  C   UNL A   1     -25.726  -4.973  29.473  0.00  0.00    +0.007 A 
ATOM      5  C   UNL A   1     -24.490  -4.864  28.858  0.00  0.00    +0.002 A 
ATOM      6  C   UNL A   1     -23.844  -3.716  28.646  0.00  0.00    +0.015 A 
ENDROOT
BRANCH   2   7
ATOM      7  N   UNL A   1     -23.851  -1.471  28.782  0.00  0.00    -0.307 N 
ATOM      8  C   UNL A   1     -22.669  -1.104  29.240  0.00  0.00    +0.091 C 
ATOM      9  C   UNL A   1     -21.953   0.027  28.731  0.00  0.00    +0.021 C 
ATOM     10  C   UNL A   1     -24.349  -0.444  27.865  0.00  0.00    +0.091 C 
ATOM     11  C   UNL A   1     -23.824   0.697  27.411  0.00  0.00    +0.021 C 
ATOM     12  C   UNL A   1     -22.551   0.979  27.853  0.00  0.00    +0.004 C 
ENDBRANCH   2   7
BRANCH   3  13
ATOM     13  C   UNL A   1     -27.720  -3.836  30.368  0.00  0.00    +0.388 C 
ATOM     14  O   UNL A   1     -28.127  -4.765  30.704  0.00  0.00    -0.241 OA
ATOM     15  O   UNL A   1     -28.425  -2.751  30.057  0.00  0.00    -0.241 OA
ENDBRANCH   3  13
TORSDOF 2
ENDMDL
ENDMDL
