MODEL 3436
MODEL 1
REMARK VINA RESULT:    -6.538      0.000      0.000
REMARK INTER + INTRA:          -7.246
REMARK INTER:                  -6.920
REMARK INTRA:                  -0.326
REMARK UNBOUND:                -0.326
REMARK  Name = No_3436-gen_results/8p0m/2024-11-26-14-13-15/
REMARK  1 active torsions:
REMARK  status: ('A' for Active; 'I' for Inactive)
REMARK    1  A    between atoms: C_3  and  C_7
REMARK                            x       y       z     vdW  Elec       q    Type
REMARK                         _______ _______ _______ _____ _____    ______ ____
ROOT
ATOM      1  C   UNL A   1     -26.468  -3.661  29.814  0.00  0.00    +0.000 A 
ATOM      2  C   UNL A   1     -25.888  -2.619  29.610  0.00  0.00    +0.000 A 
ATOM      3  C   UNL A   1     -24.630  -2.541  29.014  0.00  0.00    +0.000 A 
ATOM      4  C   UNL A   1     -23.936  -3.765  28.666  0.00  0.00    +0.000 A 
ATOM      5  C   UNL A   1     -24.632  -4.943  28.936  0.00  0.00    +0.000 A 
ATOM      6  C   UNL A   1     -25.818  -4.926  29.514  0.00  0.00    +0.000 A 
ENDROOT
BRANCH   3   7
ATOM      7  C   UNL A   1     -23.859  -1.298  28.724  0.00  0.00    +0.000 A 
ATOM      8  C   UNL A   1     -24.282  -0.404  27.880  0.00  0.00    +0.000 A 
ATOM      9  C   UNL A   1     -23.490   0.748  27.552  0.00  0.00    +0.000 A 
ATOM     10  C   UNL A   1     -22.222   0.924  27.986  0.00  0.00    +0.000 A 
ATOM     11  C   UNL A   1     -22.483  -1.158  29.224  0.00  0.00    +0.000 A 
ATOM     12  C   UNL A   1     -21.702  -0.030  28.837  0.00  0.00    +0.000 A 
ENDBRANCH   3   7
TORSDOF 1
ENDMDL
ENDMDL
