MODEL 3437
MODEL 1
REMARK VINA RESULT:    -6.127      0.000      0.000
REMARK INTER + INTRA:          -7.033
REMARK INTER:                  -6.843
REMARK INTRA:                  -0.190
REMARK UNBOUND:                -0.190
REMARK  Name = No_3437-gen_results/8p0m/2024-11-26-14-13-15/
REMARK  2 active torsions:
REMARK  status: ('A' for Active; 'I' for Inactive)
REMARK    1  A    between atoms: C_2  and  O_13
REMARK    2  A    between atoms: O_13  and  C_14
REMARK                            x       y       z     vdW  Elec       q    Type
REMARK                         _______ _______ _______ _____ _____    ______ ____
ROOT
ATOM      1  C   UNL A   1     -23.262  -0.835  28.670  0.00  0.00    +0.033 A 
ATOM      2  C   UNL A   1     -23.618   0.148  28.801  0.00  0.00    +0.145 A 
ATOM      3  C   UNL A   1     -24.245  -1.863  29.008  0.00  0.00    -0.015 A 
ATOM      4  C   UNL A   1     -25.512  -1.550  29.435  0.00  0.00    +0.031 A 
ATOM      5  C   UNL A   1     -24.875   0.765  29.222  0.00  0.00    +0.038 A 
ATOM      6  C   UNL A   1     -25.834  -0.222  29.552  0.00  0.00    +0.006 A 
ATOM      7  C   UNL A   1     -23.942  -3.315  28.849  0.00  0.00    +0.043 C 
ATOM      8  C   UNL A   1     -24.987  -4.195  29.174  0.00  0.00    +0.092 C 
ATOM      9  C   UNL A   1     -26.230  -3.800  29.644  0.00  0.00    +0.086 C 
ATOM     10  C   UNL A   1     -26.519  -2.471  29.754  0.00  0.00    +0.174 C 
ATOM     11  O   UNL A   1     -27.747  -2.145  30.183  0.00  0.00    -0.291 OA
ATOM     12 CL   UNL A   1     -24.629  -5.902  28.999  0.00  0.00    -0.114 Cl
ENDROOT
BRANCH   2  13
ATOM     13  O   UNL A   1     -22.825   1.367  28.505  0.00  0.00    -0.451 OA
BRANCH  13  14
ATOM     14  C   UNL A   1     -22.498   1.717  27.367  0.00  0.00    +0.175 C 
ATOM     15  C   UNL A   1     -23.104   1.970  26.470  0.00  0.00    +0.015 C 
ATOM     16  C   UNL A   1     -22.629   2.458  25.182  0.00  0.00    +0.034 C 
ENDBRANCH  13  14
ENDBRANCH   2  13
TORSDOF 2
ENDMDL
ENDMDL
