MODEL 3438
MODEL 1
REMARK VINA RESULT:    -4.887      0.000      0.000
REMARK INTER + INTRA:          -4.887
REMARK INTER:                  -4.887
REMARK INTRA:                   0.000
REMARK UNBOUND:                 0.000
REMARK  Name = No_3438-gen_results/8p0m/2024-11-26-14-13-15/
REMARK  0 active torsions:
REMARK  status: ('A' for Active; 'I' for Inactive)
REMARK                            x       y       z     vdW  Elec       q    Type
REMARK                         _______ _______ _______ _____ _____    ______ ____
ROOT
ATOM      1  N   UNL A   1     -23.611  -3.769  28.648  0.00  0.00    -0.225 NA
ATOM      2  C   UNL A   1     -24.062  -2.778  29.226  0.00  0.00    +0.162 A 
ATOM      3  C   UNL A   1     -25.237  -2.777  29.789  0.00  0.00    +0.036 A 
ATOM      4  C   UNL A   1     -26.050  -3.909  29.750  0.00  0.00    +0.005 A 
ATOM      5  C   UNL A   1     -24.280  -4.926  28.659  0.00  0.00    +0.101 A 
ATOM      6  C   UNL A   1     -25.509  -5.030  29.169  0.00  0.00    +0.021 A 
ATOM      7  N   UNL A   1     -23.328  -1.585  29.319  0.00  0.00    -0.225 NA
ATOM      8  C   UNL A   1     -23.196  -0.871  30.382  0.00  0.00    +0.101 A 
ATOM      9  C   UNL A   1     -24.454  -0.500  30.956  0.00  0.00    +0.021 A 
ATOM     10  C   UNL A   1     -25.434  -1.697  30.896  0.00  0.00    +0.005 A 
ENDROOT
TORSDOF 0
ENDMDL
ENDMDL
