REMARK  Name = No_3438-gen_results/8p0m/2024-11-26-14-13-15/
REMARK  0 active torsions:
REMARK  status: ('A' for Active; 'I' for Inactive)
REMARK                            x       y       z     vdW  Elec       q    Type
REMARK                         _______ _______ _______ _____ _____    ______ ____
ROOT
ATOM      1  N   UNL A   1     -28.054  -1.050  28.725  0.00  0.00    -0.225 NA
ATOM      2  C   UNL A   1     -26.966  -0.472  28.771  0.00  0.00    +0.162 A 
ATOM      3  C   UNL A   1     -26.842   0.739  29.234  0.00  0.00    +0.036 A 
ATOM      4  C   UNL A   1     -27.952   1.448  29.692  0.00  0.00    +0.005 A 
ATOM      5  C   UNL A   1     -29.148  -0.483  29.244  0.00  0.00    +0.101 A 
ATOM      6  C   UNL A   1     -29.147   0.769  29.706  0.00  0.00    +0.021 A 
ATOM      7  N   UNL A   1     -25.786  -1.092  28.330  0.00  0.00    -0.225 NA
ATOM      8  C   UNL A   1     -24.659  -1.079  28.952  0.00  0.00    +0.101 A 
ATOM      9  C   UNL A   1     -24.212   0.248  29.253  0.00  0.00    +0.021 A 
ATOM     10  C   UNL A   1     -25.408   1.114  29.717  0.00  0.00    +0.005 A 
ENDROOT
TORSDOF 0
