REMARK  Name = No_3439-gen_results/8p0m/2024-11-26-14-13-15/
REMARK  1 active torsions:
REMARK  status: ('A' for Active; 'I' for Inactive)
REMARK    1  A    between atoms: C_3  and  C_8
REMARK                            x       y       z     vdW  Elec       q    Type
REMARK                         _______ _______ _______ _____ _____    ______ ____
ROOT
ATOM      1  C   UNL A   1     -28.016  -0.814  28.878  0.00  0.00    +0.011 A 
ATOM      2  C   UNL A   1     -27.064  -0.119  28.608  0.00  0.00    +0.001 A 
ATOM      3  C   UNL A   1     -25.765  -0.390  29.036  0.00  0.00    +0.000 A 
ATOM      4  C   UNL A   1     -25.530  -1.530  29.901  0.00  0.00    +0.001 A 
ATOM      5  C   UNL A   1     -26.689  -2.289  30.181  0.00  0.00    +0.011 A 
ATOM      6  C   UNL A   1     -27.873  -1.951  29.737  0.00  0.00    +0.058 A 
ATOM      7 CL   UNL A   1     -29.194  -2.923  30.219  0.00  0.00    -0.082 Cl
ENDROOT
BRANCH   3   8
ATOM      8  C   UNL A   1     -24.533   0.419  28.725  0.00  0.00    +0.000 A 
ATOM      9  C   UNL A   1     -24.532   1.288  27.720  0.00  0.00    +0.000 A 
ATOM     10  C   UNL A   1     -23.356   1.902  27.318  0.00  0.00    +0.000 A 
ATOM     11  C   UNL A   1     -22.127   1.704  27.948  0.00  0.00    +0.000 A 
ATOM     12  C   UNL A   1     -23.263   0.118  29.343  0.00  0.00    +0.000 A 
ATOM     13  C   UNL A   1     -22.081   0.791  28.977  0.00  0.00    +0.000 A 
ENDBRANCH   3   8
TORSDOF 1
