MODEL 3439
MODEL 1
REMARK VINA RESULT:    -6.516      0.000      0.000
REMARK INTER + INTRA:          -7.209
REMARK INTER:                  -6.897
REMARK INTRA:                  -0.311
REMARK UNBOUND:                -0.311
REMARK  Name = No_3439-gen_results/8p0m/2024-11-26-14-13-15/
REMARK  1 active torsions:
REMARK  status: ('A' for Active; 'I' for Inactive)
REMARK    1  A    between atoms: C_3  and  C_8
REMARK                            x       y       z     vdW  Elec       q    Type
REMARK                         _______ _______ _______ _____ _____    ______ ____
ROOT
ATOM      1  C   UNL A   1     -22.118  -0.147  29.008  0.00  0.00    +0.011 A 
ATOM      2  C   UNL A   1     -22.730  -1.118  29.388  0.00  0.00    +0.001 A 
ATOM      3  C   UNL A   1     -23.944  -1.529  28.839  0.00  0.00    +0.000 A 
ATOM      4  C   UNL A   1     -24.553  -0.729  27.794  0.00  0.00    +0.001 A 
ATOM      5  C   UNL A   1     -23.787   0.395  27.409  0.00  0.00    +0.011 A 
ATOM      6  C   UNL A   1     -22.655   0.705  27.990  0.00  0.00    +0.058 A 
ATOM      7 CL   UNL A   1     -21.877   2.135  27.468  0.00  0.00    -0.082 Cl
ENDROOT
BRANCH   3   8
ATOM      8  C   UNL A   1     -24.750  -2.734  29.250  0.00  0.00    +0.000 A 
ATOM      9  C   UNL A   1     -24.328  -3.959  28.957  0.00  0.00    +0.000 A 
ATOM     10  C   UNL A   1     -25.146  -5.058  29.172  0.00  0.00    +0.000 A 
ATOM     11  C   UNL A   1     -26.416  -4.975  29.743  0.00  0.00    +0.000 A 
ATOM     12  C   UNL A   1     -26.095  -2.598  29.757  0.00  0.00    +0.000 A 
ATOM     13  C   UNL A   1     -26.900  -3.720  30.036  0.00  0.00    +0.000 A 
ENDBRANCH   3   8
TORSDOF 1
ENDMDL
ENDMDL
