MODEL 343
MODEL 1
REMARK VINA RESULT:    -5.367      0.000      0.000
REMARK INTER + INTRA:          -5.737
REMARK INTER:                  -5.681
REMARK INTRA:                  -0.056
REMARK UNBOUND:                -0.056
REMARK  Name = No_343-gen_results/8p0m/2024-11-26-14-13-15/
REMARK  1 active torsions:
REMARK  status: ('A' for Active; 'I' for Inactive)
REMARK    1  A    between atoms: C_1  and  C_7
REMARK                            x       y       z     vdW  Elec       q    Type
REMARK                         _______ _______ _______ _____ _____    ______ ____
ROOT
ATOM      1  C   UNL A   1     -24.348  -2.791  29.108  0.00  0.00    +0.055 A 
ATOM      2  C   UNL A   1     -23.932  -3.851  28.699  0.00  0.00    +0.005 A 
ATOM      3  C   UNL A   1     -24.601  -5.048  28.859  0.00  0.00    +0.000 A 
ATOM      4  C   UNL A   1     -25.868  -5.023  29.507  0.00  0.00    +0.000 A 
ATOM      5  C   UNL A   1     -26.366  -3.797  29.792  0.00  0.00    +0.000 A 
ATOM      6  C   UNL A   1     -25.671  -2.699  29.566  0.00  0.00    +0.005 A 
ENDROOT
BRANCH   1   7
ATOM      7  C   UNL A   1     -23.555  -1.529  28.878  0.00  0.00    +0.265 C 
ATOM      8  O   UNL A   1     -24.071  -0.636  28.219  0.00  0.00    -0.268 OA
ATOM      9  N   UNL A   1     -22.253  -1.419  29.225  0.00  0.00    -0.200 NA
ATOM     10  C   UNL A   1     -21.478  -0.272  28.814  0.00  0.00    +0.139 C 
ENDBRANCH   1   7
TORSDOF 1
ENDMDL
ENDMDL
