REMARK  Name = No_3440-gen_results/8p0m/2024-11-26-14-13-15/
REMARK  2 active torsions:
REMARK  status: ('A' for Active; 'I' for Inactive)
REMARK    1  A    between atoms: C_3  and  C_4
REMARK    2  A    between atoms: C_5  and  C_6
REMARK                            x       y       z     vdW  Elec       q    Type
REMARK                         _______ _______ _______ _____ _____    ______ ____
ROOT
ATOM      1  C   UNL A   1     -26.020  -2.005  30.034  0.00  0.00    +0.002 C 
ATOM      2  C   UNL A   1     -24.866  -2.336  30.620  0.00  0.00    +0.000 C 
ENDROOT
BRANCH   1   5
ATOM      3  F   UNL A   1     -28.073  -1.254  28.532  0.00  0.00    -0.202 F 
ATOM      4  C   UNL A   1     -27.359  -0.379  28.722  0.00  0.00    +0.167 C 
ATOM      5  C   UNL A   1     -26.332  -0.644  29.452  0.00  0.00    +0.032 C 
ENDBRANCH   1   5
BRANCH   2   6
ATOM      6  C   UNL A   1     -23.919  -1.418  30.611  0.00  0.00    +0.000 C 
ATOM      7  C   UNL A   1     -23.924  -0.092  30.234  0.00  0.00    +0.000 C 
ENDBRANCH   2   6
TORSDOF 2
