MODEL 3440
MODEL 1
REMARK VINA RESULT:    -4.538      0.000      0.000
REMARK INTER + INTRA:          -5.159
REMARK INTER:                  -5.069
REMARK INTRA:                  -0.090
REMARK UNBOUND:                -0.090
REMARK  Name = No_3440-gen_results/8p0m/2024-11-26-14-13-15/
REMARK  2 active torsions:
REMARK  status: ('A' for Active; 'I' for Inactive)
REMARK    1  A    between atoms: C_3  and  C_4
REMARK    2  A    between atoms: C_5  and  C_6
REMARK                            x       y       z     vdW  Elec       q    Type
REMARK                         _______ _______ _______ _____ _____    ______ ____
ROOT
ATOM      1  C   UNL A   1      -9.971  -9.481  19.225  0.00  0.00    +0.002 C 
ATOM      2  C   UNL A   1      -9.122  -9.187  20.214  0.00  0.00    +0.000 C 
ENDROOT
BRANCH   1   5
ATOM      3  F   UNL A   1      -9.222 -11.646  17.887  0.00  0.00    -0.202 F 
ATOM      4  C   UNL A   1      -9.223 -10.723  17.210  0.00  0.00    +0.167 C 
ATOM      5  C   UNL A   1      -9.583  -9.620  17.769  0.00  0.00    +0.032 C 
ENDBRANCH   1   5
BRANCH   2   6
ATOM      6  C   UNL A   1      -7.849  -9.090  19.885  0.00  0.00    +0.000 C 
ATOM      7  C   UNL A   1      -7.030  -8.000  19.679  0.00  0.00    +0.000 C 
ENDBRANCH   2   6
TORSDOF 2
ENDMDL
ENDMDL
