REMARK  Name = No_3441-gen_results/8p0m/2024-11-26-14-13-15/
REMARK  2 active torsions:
REMARK  status: ('A' for Active; 'I' for Inactive)
REMARK    1  A    between atoms: C_2  and  C_3
REMARK    2  A    between atoms: C_8  and  C_11
REMARK                            x       y       z     vdW  Elec       q    Type
REMARK                         _______ _______ _______ _____ _____    ______ ____
ROOT
ATOM      1  C   UNL A   1     -27.190   0.246  29.527  0.00  0.00    +0.069 A 
ATOM      2  C   UNL A   1     -26.262   1.370  29.668  0.00  0.00    +0.017 A 
ATOM      3  C   UNL A   1     -25.923   2.133  30.667  0.00  0.00    +0.058 A 
ATOM      4  C   UNL A   1     -26.483   1.787  31.947  0.00  0.00    +0.018 A 
ATOM      5  C   UNL A   1     -27.343   0.702  31.995  0.00  0.00    +0.081 A 
ATOM      6  C   UNL A   1     -27.634  -0.042  30.965  0.00  0.00    +0.012 A 
ATOM      7 CL   UNL A   1     -24.849   3.434  30.596  0.00  0.00    -0.082 Cl
ENDROOT
BRANCH   1   9
ATOM      8  O   UNL A   1     -28.123  -1.335  28.487  0.00  0.00    -0.254 OA
ATOM      9  C   UNL A   1     -27.481  -0.404  28.709  0.00  0.00    +0.334 C 
ATOM     10  F   UNL A   1     -26.728  -0.124  27.407  0.00  0.00    -0.159 F 
ENDBRANCH   1   9
BRANCH   5  11
ATOM     11  C   UNL A   1     -27.886   0.373  33.379  0.00  0.00    +0.388 C 
ATOM     12  O   UNL A   1     -28.632  -0.381  33.528  0.00  0.00    -0.241 OA
ATOM     13  O   UNL A   1     -27.602   1.301  34.315  0.00  0.00    -0.241 OA
ENDBRANCH   5  11
TORSDOF 2
