MODEL 3441
MODEL 1
REMARK VINA RESULT:    -5.662      0.000      0.000
REMARK INTER + INTRA:          -6.442
REMARK INTER:                  -6.325
REMARK INTRA:                  -0.117
REMARK UNBOUND:                -0.117
REMARK  Name = No_3441-gen_results/8p0m/2024-11-26-14-13-15/
REMARK  2 active torsions:
REMARK  status: ('A' for Active; 'I' for Inactive)
REMARK    1  A    between atoms: C_2  and  C_3
REMARK    2  A    between atoms: C_8  and  C_11
REMARK                            x       y       z     vdW  Elec       q    Type
REMARK                         _______ _______ _______ _____ _____    ______ ____
ROOT
ATOM      1  C   UNL A   1     -29.315 -11.117  30.055  0.00  0.00    +0.069 A 
ATOM      2  C   UNL A   1     -29.905 -10.086  30.912  0.00  0.00    +0.017 A 
ATOM      3  C   UNL A   1     -29.790  -9.797  32.176  0.00  0.00    +0.058 A 
ATOM      4  C   UNL A   1     -28.826 -10.568  32.917  0.00  0.00    +0.018 A 
ATOM      5  C   UNL A   1     -28.135 -11.554  32.231  0.00  0.00    +0.081 A 
ATOM      6  C   UNL A   1     -28.275 -11.789  30.957  0.00  0.00    +0.012 A 
ATOM      7 CL   UNL A   1     -30.619  -8.571  32.989  0.00  0.00    -0.082 Cl
ENDROOT
BRANCH   1   9
ATOM      8  O   UNL A   1     -29.027 -12.149  28.238  0.00  0.00    -0.254 OA
ATOM      9  C   UNL A   1     -29.393 -11.369  29.003  0.00  0.00    +0.334 C 
ATOM     10  F   UNL A   1     -30.116 -10.309  28.170  0.00  0.00    -0.159 F 
ENDBRANCH   1   9
BRANCH   5  11
ATOM     11  C   UNL A   1     -27.116 -12.321  33.063  0.00  0.00    +0.388 C 
ATOM     12  O   UNL A   1     -26.414 -12.994  32.615  0.00  0.00    -0.241 OA
ATOM     13  O   UNL A   1     -27.382 -12.332  34.385  0.00  0.00    -0.241 OA
ENDBRANCH   5  11
TORSDOF 2
ENDMDL
ENDMDL
