REMARK  Name = No_3442-gen_results/8p0m/2024-11-26-14-13-15/
REMARK  1 active torsions:
REMARK  status: ('A' for Active; 'I' for Inactive)
REMARK    1  A    between atoms: C_7  and  C_9
REMARK                            x       y       z     vdW  Elec       q    Type
REMARK                         _______ _______ _______ _____ _____    ______ ____
ROOT
ATOM      1  C   UNL A   1     -28.016  -0.814  28.878  0.00  0.00    +0.003 A 
ATOM      2  C   UNL A   1     -28.469  -0.785  29.829  0.00  0.00    +0.000 A 
ATOM      3  C   UNL A   1     -28.182   0.428  28.113  0.00  0.00    +0.033 A 
ATOM      4  C   UNL A   1     -28.984   1.415  28.515  0.00  0.00    +0.067 A 
ATOM      5  C   UNL A   1     -29.380   0.138  30.461  0.00  0.00    +0.001 A 
ATOM      6  C   UNL A   1     -29.541   1.274  29.724  0.00  0.00    +0.016 A 
ATOM      7  C   UNL A   1     -27.459   0.493  26.770  0.00  0.00    +0.082 C 
ATOM      8  N   UNL A   1     -27.881   0.664  25.778  0.00  0.00    -0.246 NA
ATOM      9  C   UNL A   1     -29.337   0.825  25.689  0.00  0.00    +0.077 A 
ATOM     10  C   UNL A   1     -29.935   0.498  24.760  0.00  0.00    +0.019 A 
ATOM     11  C   UNL A   1     -31.351   0.568  24.601  0.00  0.00    +0.002 A 
ATOM     12  C   UNL A   1     -32.097   1.160  25.614  0.00  0.00    -0.000 A 
ATOM     13  C   UNL A   1     -31.425   1.575  26.721  0.00  0.00    -0.003 A 
ATOM     14  C   UNL A   1     -30.026   1.438  26.820  0.00  0.00    -0.003 A 
ATOM     15  C   UNL A   1     -29.504   3.034  26.842  0.00  0.00    +0.051 C 
ATOM     16  N   UNL A   1     -28.326   2.719  28.475  0.00  0.00    -0.237 NA
ATOM     17  C   UNL A   1     -28.767   3.682  27.656  0.00  0.00    +0.117 C 
ENDROOT
BRANCH   7  18
ATOM     18  C   UNL A   1     -25.936   0.312  26.830  0.00  0.00    +0.018 A 
ATOM     19  C   UNL A   1     -25.385   0.539  25.580  0.00  0.00    +0.002 A 
ATOM     20  C   UNL A   1     -23.936   0.679  25.665  0.00  0.00    +0.000 A 
ATOM     21  C   UNL A   1     -23.269   0.825  26.836  0.00  0.00    +0.000 A 
ATOM     22  C   UNL A   1     -23.920   0.661  28.098  0.00  0.00    +0.000 A 
ATOM     23  C   UNL A   1     -25.308   0.516  28.120  0.00  0.00    +0.002 A 
ENDBRANCH   7  18
TORSDOF 1
