REMARK  Name = No_3443-gen_results/8p0m/2024-11-26-14-13-15/
REMARK  5 active torsions:
REMARK  status: ('A' for Active; 'I' for Inactive)
REMARK    1  A    between atoms: C_1  and  C_2
REMARK    2  A    between atoms: C_1  and  C_8
REMARK    3  A    between atoms: C_5  and  C_10
REMARK    4  A    between atoms: C_9  and  C_16
REMARK    5  A    between atoms: C_16  and  C_17
REMARK                            x       y       z     vdW  Elec       q    Type
REMARK                         _______ _______ _______ _____ _____    ______ ____
ROOT
ATOM      1  C   UNL A   1     -28.743  -0.442  30.140  0.00  0.00    +0.004 C 
ATOM      2  C   UNL A   1     -29.859  -1.267  30.594  0.00  0.00    +0.005 C 
ATOM      3  C   UNL A   1     -29.227   1.000  30.142  0.00  0.00    +0.000 C 
ATOM      4  C   UNL A   1     -27.681  -0.492  31.372  0.00  0.00    +0.000 C 
ATOM      5  C   UNL A   1     -30.233   1.325  29.418  0.00  0.00    +0.000 C 
ATOM      6  C   UNL A   1     -31.178  -0.866  30.179  0.00  0.00    +0.000 C 
ATOM      7  C   UNL A   1     -32.268  -1.704  30.460  0.00  0.00    +0.000 C 
ATOM      8  C   UNL A   1     -31.363   0.474  29.617  0.00  0.00    +0.000 C 
ENDROOT
BRANCH   1   9
ATOM      9  C   UNL A   1     -28.016  -0.814  28.878  0.00  0.00    +0.026 C 
BRANCH   9  10
ATOM     10  C   UNL A   1     -27.064  -0.119  28.608  0.00  0.00    -0.022 A 
ATOM     11  C   UNL A   1     -26.972   0.714  27.506  0.00  0.00    -0.004 A 
ATOM     12  C   UNL A   1     -25.820   1.491  27.116  0.00  0.00    +0.004 A 
ATOM     13  C   UNL A   1     -24.656   1.424  27.918  0.00  0.00    +0.071 A 
ATOM     14  C   UNL A   1     -24.711   0.542  29.051  0.00  0.00    +0.004 A 
ATOM     15  C   UNL A   1     -25.804  -0.206  29.388  0.00  0.00    -0.004 A 
BRANCH  13  16
ATOM     16  C   UNL A   1     -23.447   2.158  27.627  0.00  0.00    +0.419 C 
ATOM     17  F   UNL A   1     -22.875   2.571  28.649  0.00  0.00    -0.166 F 
ATOM     18  F   UNL A   1     -23.608   3.188  26.754  0.00  0.00    -0.166 F 
ATOM     19  F   UNL A   1     -22.512   1.360  27.025  0.00  0.00    -0.166 F 
ENDBRANCH  13  16
ENDBRANCH   9  10
ENDBRANCH   1   9
BRANCH   2  20
ATOM     20  C   UNL A   1     -29.720  -2.419  31.090  0.00  0.00    +0.038 C 
BRANCH  20  21
ATOM     21  C   UNL A   1     -29.314  -3.496  30.244  0.00  0.00    +0.059 C 
ATOM     22  C   UNL A   1     -28.738  -4.708  30.893  0.00  0.00    +0.129 C 
ATOM     23  O   UNL A   1     -27.847  -5.240  30.431  0.00  0.00    -0.231 OA
ENDBRANCH  20  21
ENDBRANCH   2  20
TORSDOF 5
