MODEL 3443
MODEL 1
REMARK VINA RESULT:    -6.455      0.000      0.000
REMARK INTER + INTRA:          -8.874
REMARK INTER:                  -8.342
REMARK INTRA:                  -0.532
REMARK UNBOUND:                -0.532
REMARK  Name = No_3443-gen_results/8p0m/2024-11-26-14-13-15/
REMARK  5 active torsions:
REMARK  status: ('A' for Active; 'I' for Inactive)
REMARK    1  A    between atoms: C_1  and  C_2
REMARK    2  A    between atoms: C_1  and  C_8
REMARK    3  A    between atoms: C_5  and  C_10
REMARK    4  A    between atoms: C_9  and  C_16
REMARK    5  A    between atoms: C_16  and  C_17
REMARK                            x       y       z     vdW  Elec       q    Type
REMARK                         _______ _______ _______ _____ _____    ______ ____
ROOT
ATOM      1  C   UNL A   1     -23.394   0.155  28.979  0.00  0.00    +0.004 C 
ATOM      2  C   UNL A   1     -24.492  -0.799  29.101  0.00  0.00    +0.005 C 
ATOM      3  C   UNL A   1     -23.467   1.075  30.188  0.00  0.00    +0.000 C 
ATOM      4  C   UNL A   1     -22.058  -0.734  29.253  0.00  0.00    +0.000 C 
ATOM      5  C   UNL A   1     -24.527   1.768  30.386  0.00  0.00    +0.000 C 
ATOM      6  C   UNL A   1     -25.725  -0.307  29.657  0.00  0.00    +0.000 C 
ATOM      7  C   UNL A   1     -26.855  -1.139  29.658  0.00  0.00    +0.000 C 
ATOM      8  C   UNL A   1     -25.722   0.986  30.345  0.00  0.00    +0.000 C 
ENDROOT
BRANCH   1   9
ATOM      9  C   UNL A   1     -23.204   0.901  27.687  0.00  0.00    +0.026 C 
BRANCH   9  10
ATOM     10  C   UNL A   1     -24.196   1.006  27.004  0.00  0.00    -0.022 A 
ATOM     11  C   UNL A   1     -24.605   0.094  26.046  0.00  0.00    -0.004 A 
ATOM     12  C   UNL A   1     -25.737   0.234  25.161  0.00  0.00    +0.004 A 
ATOM     13  C   UNL A   1     -26.532   1.401  25.258  0.00  0.00    +0.071 A 
ATOM     14  C   UNL A   1     -26.112   2.381  26.222  0.00  0.00    +0.004 A 
ATOM     15  C   UNL A   1     -25.020   2.241  27.032  0.00  0.00    -0.004 A 
BRANCH  13  16
ATOM     16  C   UNL A   1     -27.687   1.647  24.428  0.00  0.00    +0.419 C 
ATOM     17  F   UNL A   1     -27.672   0.992  23.373  0.00  0.00    -0.166 F 
ATOM     18  F   UNL A   1     -27.907   2.958  24.141  0.00  0.00    -0.166 F 
ATOM     19  F   UNL A   1     -28.840   1.248  25.048  0.00  0.00    -0.166 F 
ENDBRANCH  13  16
ENDBRANCH   9  10
ENDBRANCH   1   9
BRANCH   2  20
ATOM     20  C   UNL A   1     -24.509  -1.922  28.525  0.00  0.00    +0.038 C 
BRANCH  20  21
ATOM     21  C   UNL A   1     -24.201  -3.095  29.280  0.00  0.00    +0.059 C 
ATOM     22  C   UNL A   1     -24.188  -4.399  28.558  0.00  0.00    +0.129 C 
ATOM     23  O   UNL A   1     -24.621  -5.331  29.044  0.00  0.00    -0.231 OA
ENDBRANCH  20  21
ENDBRANCH   2  20
TORSDOF 5
ENDMDL
ENDMDL
