REMARK  Name = No_3444-gen_results/8p0m/2024-11-26-14-13-15/
REMARK  2 active torsions:
REMARK  status: ('A' for Active; 'I' for Inactive)
REMARK    1  A    between atoms: C_2  and  C_5
REMARK    2  A    between atoms: C_5  and  C_9
REMARK                            x       y       z     vdW  Elec       q    Type
REMARK                         _______ _______ _______ _____ _____    ______ ____
ROOT
ATOM      1  C   UNL A   1     -28.016  -0.814  28.878  0.00  0.00    +0.001 A 
ATOM      2  C   UNL A   1     -28.469  -0.785  29.829  0.00  0.00    +0.015 A 
ATOM      3  C   UNL A   1     -27.136   0.236  28.535  0.00  0.00    +0.000 A 
ATOM      4  C   UNL A   1     -26.875   1.282  29.398  0.00  0.00    +0.000 A 
ATOM      5  C   UNL A   1     -27.503   1.225  30.628  0.00  0.00    +0.000 A 
ATOM      6  C   UNL A   1     -28.316   0.139  30.970  0.00  0.00    +0.001 A 
ENDROOT
BRANCH   2   7
ATOM      7  C   UNL A   1     -29.400  -1.913  30.310  0.00  0.00    +0.081 C 
ATOM      8  N   UNL A   1     -29.137  -3.167  30.391  0.00  0.00    -0.153 NA
BRANCH   7   9
ATOM      9  C   UNL A   1     -30.823  -1.676  30.647  0.00  0.00    +0.048 C 
ATOM     10  C   UNL A   1     -31.653  -2.710  30.915  0.00  0.00    +0.007 C 
ENDBRANCH   7   9
ENDBRANCH   2   7
TORSDOF 2
