MODEL 3444
MODEL 1
REMARK VINA RESULT:    -5.091      0.000      0.000
REMARK INTER + INTRA:          -5.905
REMARK INTER:                  -5.686
REMARK INTRA:                  -0.219
REMARK UNBOUND:                -0.219
REMARK  Name = No_3444-gen_results/8p0m/2024-11-26-14-13-15/
REMARK  2 active torsions:
REMARK  status: ('A' for Active; 'I' for Inactive)
REMARK    1  A    between atoms: C_2  and  C_5
REMARK    2  A    between atoms: C_5  and  C_9
REMARK                            x       y       z     vdW  Elec       q    Type
REMARK                         _______ _______ _______ _____ _____    ______ ____
ROOT
ATOM      1  C   UNL A   1     -23.992  -3.847  28.772  0.00  0.00    +0.001 A 
ATOM      2  C   UNL A   1     -24.361  -2.915  29.095  0.00  0.00    +0.015 A 
ATOM      3  C   UNL A   1     -24.817  -4.979  28.948  0.00  0.00    +0.000 A 
ATOM      4  C   UNL A   1     -26.064  -4.891  29.534  0.00  0.00    +0.000 A 
ATOM      5  C   UNL A   1     -26.468  -3.624  29.912  0.00  0.00    +0.000 A 
ATOM      6  C   UNL A   1     -25.661  -2.508  29.664  0.00  0.00    +0.001 A 
ENDROOT
BRANCH   2   7
ATOM      7  C   UNL A   1     -23.554  -1.618  28.896  0.00  0.00    +0.081 C 
ATOM      8  N   UNL A   1     -22.294  -1.444  29.067  0.00  0.00    -0.153 NA
BRANCH   7   9
ATOM      9  C   UNL A   1     -24.200  -0.325  28.573  0.00  0.00    +0.048 C 
ATOM     10  C   UNL A   1     -23.871   0.353  27.450  0.00  0.00    +0.007 C 
ENDBRANCH   7   9
ENDBRANCH   2   7
TORSDOF 2
ENDMDL
ENDMDL
