REMARK  Name = No_3445-gen_results/8p0m/2024-11-26-14-13-15/
REMARK  6 active torsions:
REMARK  status: ('A' for Active; 'I' for Inactive)
REMARK    1  A    between atoms: C_2  and  C_14
REMARK    2  A    between atoms: N_10  and  C_21
REMARK    3  A    between atoms: C_14  and  C_15
REMARK    4  A    between atoms: C_19  and  N_22
REMARK    5  A    between atoms: N_22  and  C_23
REMARK    6  A    between atoms: C_23  and  C_25
REMARK                            x       y       z     vdW  Elec       q    Type
REMARK                         _______ _______ _______ _____ _____    ______ ____
ROOT
ATOM      1  C   UNL A   1     -28.016  -0.814  28.878  0.00  0.00    +0.139 A 
ATOM      2  C   UNL A   1     -27.064  -0.119  28.608  0.00  0.00    +0.037 A 
ATOM      3  C   UNL A   1     -26.972   0.714  27.506  0.00  0.00    +0.135 A 
ATOM      4  C   UNL A   1     -28.105   0.774  26.642  0.00  0.00    +0.019 A 
ATOM      5  C   UNL A   1     -29.204   0.118  27.048  0.00  0.00    +0.055 A 
ATOM      6  C   UNL A   1     -29.253  -0.310  28.123  0.00  0.00    +0.034 A 
ATOM      7  F   UNL A   1     -25.827   1.321  27.122  0.00  0.00    -0.205 F 
ATOM      8  C   UNL A   1     -30.381   0.348  26.125  0.00  0.00    +0.258 C 
ATOM      9  O   UNL A   1     -31.299  -0.268  26.233  0.00  0.00    -0.269 OA
ATOM     10  N   UNL A   1     -30.227   1.176  25.004  0.00  0.00    -0.204 N 
ATOM     11  F   UNL A   1     -28.101  -1.470  30.022  0.00  0.00    -0.204 F 
ATOM     12  C   UNL A   1     -29.191   2.115  24.823  0.00  0.00    +0.240 C 
ATOM     13  C   UNL A   1     -27.925   1.796  25.538  0.00  0.00    +0.115 C 
ATOM     14  O   UNL A   1     -29.154   2.976  23.991  0.00  0.00    -0.274 OA
ENDROOT
BRANCH  10  15
ATOM     15  C   UNL A   1     -31.337   1.366  24.134  0.00  0.00    +0.061 A 
ATOM     16  C   UNL A   1     -31.618   2.676  23.824  0.00  0.00    +0.011 A 
ATOM     17  C   UNL A   1     -32.759   2.867  22.981  0.00  0.00    -0.021 A 
ATOM     18  C   UNL A   1     -33.393   1.813  22.372  0.00  0.00    -0.004 A 
ATOM     19  C   UNL A   1     -33.004   0.521  22.701  0.00  0.00    +0.001 A 
ATOM     20  C   UNL A   1     -31.981   0.299  23.591  0.00  0.00    +0.015 A 
ATOM     21  C   UNL A   1     -33.197   4.268  22.558  0.00  0.00    +0.031 C 
ENDBRANCH  10  15
BRANCH   2  22
ATOM     22  C   UNL A   1     -25.703  -0.338  29.391  0.00  0.00    +0.059 C 
BRANCH  22  23
ATOM     23  C   UNL A   1     -25.088  -1.521  29.240  0.00  0.00    +0.032 C 
ATOM     24  C   UNL A   1     -25.463  -2.615  28.958  0.00  0.00    +0.095 C 
ATOM     25  C   UNL A   1     -24.610  -3.811  28.972  0.00  0.00    +0.412 C 
ATOM     26  N   UNL A   1     -23.390  -3.280  29.046  0.00  0.00    -0.041 NA
ATOM     27  C   UNL A   1     -23.636  -1.896  29.286  0.00  0.00    +0.297 C 
ATOM     28  N   UNL A   1     -24.838  -5.049  28.732  0.00  0.00    +0.216 NA
BRANCH  27  29
ATOM     29  N   UNL A   1     -22.747  -0.894  29.504  0.00  0.00    -0.220 NA
ATOM     30  C   UNL A   1     -22.711  -0.281  30.828  0.00  0.00    +0.094 C 
BRANCH  29  31
ATOM     31  C   UNL A   1     -21.887  -0.506  28.516  0.00  0.00    +0.180 C 
BRANCH  31  32
ATOM     32  C   UNL A   1     -21.679   1.001  28.436  0.00  0.00    +0.412 C 
ATOM     33  F   UNL A   1     -22.500   1.500  27.411  0.00  0.00    -0.169 F 
ATOM     34  F   UNL A   1     -22.035   1.654  29.400  0.00  0.00    -0.169 F 
ATOM     35  F   UNL A   1     -20.451   1.268  27.958  0.00  0.00    -0.169 F 
ENDBRANCH  31  32
ENDBRANCH  29  31
ENDBRANCH  27  29
ENDBRANCH  22  23
ENDBRANCH   2  22
TORSDOF 6
