MODEL 3445
MODEL 1
REMARK VINA RESULT:    -7.589      0.000      0.000
REMARK INTER + INTRA:         -11.362
REMARK INTER:                 -10.251
REMARK INTRA:                  -1.111
REMARK UNBOUND:                -1.111
REMARK  Name = No_3445-gen_results/8p0m/2024-11-26-14-13-15/
REMARK  6 active torsions:
REMARK  status: ('A' for Active; 'I' for Inactive)
REMARK    1  A    between atoms: C_2  and  C_14
REMARK    2  A    between atoms: N_10  and  C_21
REMARK    3  A    between atoms: C_14  and  C_15
REMARK    4  A    between atoms: C_19  and  N_22
REMARK    5  A    between atoms: N_22  and  C_23
REMARK    6  A    between atoms: C_23  and  C_25
REMARK                            x       y       z     vdW  Elec       q    Type
REMARK                         _______ _______ _______ _____ _____    ______ ____
ROOT
ATOM      1  C   UNL A   1     -25.251   1.123  25.271  0.00  0.00    +0.139 A 
ATOM      2  C   UNL A   1     -25.393   2.128  25.928  0.00  0.00    +0.037 A 
ATOM      3  C   UNL A   1     -26.517   2.937  25.915  0.00  0.00    +0.135 A 
ATOM      4  C   UNL A   1     -27.600   2.529  25.082  0.00  0.00    +0.019 A 
ATOM      5  C   UNL A   1     -27.481   1.331  24.487  0.00  0.00    +0.055 A 
ATOM      6  C   UNL A   1     -26.621   0.620  24.796  0.00  0.00    +0.034 A 
ATOM      7  F   UNL A   1     -26.568   4.154  26.501  0.00  0.00    -0.205 F 
ATOM      8  C   UNL A   1     -28.731   0.941  23.730  0.00  0.00    +0.258 C 
ATOM      9  O   UNL A   1     -28.715   0.066  23.046  0.00  0.00    -0.269 OA
ATOM     10  N   UNL A   1     -29.832   1.810  23.722  0.00  0.00    -0.204 N 
ATOM     11  F   UNL A   1     -24.218   0.316  25.442  0.00  0.00    -0.204 F 
ATOM     12  C   UNL A   1     -30.045   2.860  24.638  0.00  0.00    +0.240 C 
ATOM     13  C   UNL A   1     -28.807   3.432  25.235  0.00  0.00    +0.115 C 
ATOM     14  O   UNL A   1     -31.064   3.471  24.789  0.00  0.00    -0.274 OA
ENDROOT
BRANCH  10  15
ATOM     15  C   UNL A   1     -30.993   1.440  22.988  0.00  0.00    +0.061 A 
ATOM     16  C   UNL A   1     -31.260   2.218  21.885  0.00  0.00    +0.011 A 
ATOM     17  C   UNL A   1     -32.450   1.868  21.172  0.00  0.00    -0.021 A 
ATOM     18  C   UNL A   1     -33.152   0.722  21.453  0.00  0.00    -0.004 A 
ATOM     19  C   UNL A   1     -32.776  -0.037  22.553  0.00  0.00    +0.001 A 
ATOM     20  C   UNL A   1     -31.701   0.329  23.326  0.00  0.00    +0.015 A 
ATOM     21  C   UNL A   1     -32.879   2.648  19.930  0.00  0.00    +0.031 C 
ENDBRANCH  10  15
BRANCH   2  22
ATOM     22  C   UNL A   1     -24.137   2.749  26.670  0.00  0.00    +0.059 C 
BRANCH  22  23
ATOM     23  C   UNL A   1     -23.429   1.936  27.469  0.00  0.00    +0.032 C 
ATOM     24  C   UNL A   1     -22.314   1.520  27.442  0.00  0.00    +0.095 C 
ATOM     25  C   UNL A   1     -21.781   0.521  28.379  0.00  0.00    +0.412 C 
ATOM     26  N   UNL A   1     -22.712   0.511  29.332  0.00  0.00    -0.041 NA
ATOM     27  C   UNL A   1     -23.767   1.299  28.785  0.00  0.00    +0.297 C 
ATOM     28  N   UNL A   1     -20.641  -0.054  28.486  0.00  0.00    +0.216 NA
BRANCH  27  29
ATOM     29  N   UNL A   1     -24.989   1.573  29.306  0.00  0.00    -0.220 NA
ATOM     30  C   UNL A   1     -25.408   2.969  29.383  0.00  0.00    +0.094 C 
BRANCH  29  31
ATOM     31  C   UNL A   1     -25.813   0.560  29.707  0.00  0.00    +0.180 C 
BRANCH  31  32
ATOM     32  C   UNL A   1     -26.631  -0.054  28.578  0.00  0.00    +0.412 C 
ATOM     33  F   UNL A   1     -27.470  -1.035  29.131  0.00  0.00    -0.169 F 
ATOM     34  F   UNL A   1     -27.422   0.681  28.014  0.00  0.00    -0.169 F 
ATOM     35  F   UNL A   1     -25.834  -0.790  27.784  0.00  0.00    -0.169 F 
ENDBRANCH  31  32
ENDBRANCH  29  31
ENDBRANCH  27  29
ENDBRANCH  22  23
ENDBRANCH   2  22
TORSDOF 6
ENDMDL
ENDMDL
