MODEL 3447
MODEL 1
REMARK VINA RESULT:    -7.180      0.000      0.000
REMARK INTER + INTRA:         -13.413
REMARK INTER:                 -10.538
REMARK INTRA:                  -2.875
REMARK UNBOUND:                -2.875
REMARK  Name = No_3447-gen_results/8p0m/2024-11-26-14-13-15/
REMARK  8 active torsions:
REMARK  status: ('A' for Active; 'I' for Inactive)
REMARK    1  A    between atoms: C_2  and  C_25
REMARK    2  A    between atoms: C_3  and  C_7
REMARK    3  A    between atoms: C_6  and  C_13
REMARK    4  A    between atoms: C_9  and  O_16
REMARK    5  A    between atoms: C_13  and  O_15
REMARK    6  A    between atoms: O_15  and  C_17
REMARK    7  A    between atoms: O_16  and  C_24
REMARK    8  A    between atoms: C_17  and  C_18
REMARK                            x       y       z     vdW  Elec       q    Type
REMARK                         _______ _______ _______ _____ _____    ______ ____
ROOT
ATOM      1  C   UNL A   1     -18.193 -22.054   8.127  0.00  0.00    +0.006 A 
ATOM      2  C   UNL A   1     -19.071 -21.448   7.558  0.00  0.00    +0.000 A 
ATOM      3  C   UNL A   1     -18.837 -20.536   6.530  0.00  0.00    +0.002 A 
ATOM      4  C   UNL A   1     -17.470 -20.240   6.146  0.00  0.00    +0.000 A 
ATOM      5  C   UNL A   1     -16.489 -20.946   6.842  0.00  0.00    +0.006 A 
ATOM      6  C   UNL A   1     -16.800 -21.784   7.811  0.00  0.00    +0.076 A 
ENDROOT
BRANCH   2   7
ATOM      7  C   UNL A   1     -20.551 -21.705   7.900  0.00  0.00    -0.001 A 
ATOM      8  C   UNL A   1     -21.139 -21.012   8.843  0.00  0.00    -0.000 A 
ATOM      9  C   UNL A   1     -22.135 -20.997   9.217  0.00  0.00    +0.003 A 
ATOM     10  C   UNL A   1     -23.079 -22.000   8.676  0.00  0.00    +0.042 A 
ATOM     11  C   UNL A   1     -22.680 -22.836   7.745  0.00  0.00    +0.192 A 
ATOM     12  C   UNL A   1     -21.366 -22.757   7.380  0.00  0.00    +0.017 A 
ATOM     13  C   UNL A   1     -20.661 -24.022   7.978  0.00  0.00    +0.034 C 
ATOM     14  O   UNL A   1     -23.029 -24.072   8.419  0.00  0.00    -0.287 OA
ENDBRANCH   2   7
BRANCH   3  15
ATOM     15  C   UNL A   1     -19.865 -19.759   5.778  0.00  0.00    +0.030 A 
ATOM     16  C   UNL A   1     -20.161 -18.531   6.082  0.00  0.00    +0.174 A 
ATOM     17  C   UNL A   1     -21.209 -17.824   5.401  0.00  0.00    +0.179 A 
ATOM     18  C   UNL A   1     -22.032 -18.407   4.500  0.00  0.00    +0.040 A 
ATOM     19  C   UNL A   1     -20.732 -20.444   4.807  0.00  0.00    +0.002 A 
ATOM     20  C   UNL A   1     -21.799 -19.730   4.186  0.00  0.00    +0.003 A 
ATOM     21  F   UNL A   1     -20.756 -18.582   7.063  0.00  0.00    -0.201 F 
BRANCH  17  22
ATOM     22  O   UNL A   1     -21.389 -16.499   5.742  0.00  0.00    -0.389 OA
BRANCH  22  23
ATOM     23  C   UNL A   1     -22.674 -15.970   5.537  0.00  0.00    +0.557 C 
ATOM     24  O   UNL A   1     -23.395 -15.422   6.593  0.00  0.00    -0.200 OA
ATOM     25  O   UNL A   1     -22.152 -14.904   5.173  0.00  0.00    -0.200 OA
ENDBRANCH  22  23
ENDBRANCH  17  22
ENDBRANCH   3  15
BRANCH   6  26
ATOM     26  C   UNL A   1     -15.682 -22.454   8.539  0.00  0.00    +0.345 C 
ATOM     27  O   UNL A   1     -15.029 -21.871   9.416  0.00  0.00    -0.245 OA
BRANCH  26  28
ATOM     28  O   UNL A   1     -15.668 -23.751   8.589  0.00  0.00    -0.391 OA
BRANCH  28  29
ATOM     29  C   UNL A   1     -15.610 -24.535   7.689  0.00  0.00    +0.502 C 
ATOM     30  F   UNL A   1     -14.953 -23.999   6.653  0.00  0.00    -0.156 F 
ATOM     31  F   UNL A   1     -14.567 -25.450   8.242  0.00  0.00    -0.156 F 
BRANCH  29  32
ATOM     32  C   UNL A   1     -16.756 -25.329   7.269  0.00  0.00    +0.497 C 
ATOM     33  F   UNL A   1     -16.561 -26.477   6.963  0.00  0.00    -0.162 F 
ATOM     34  F   UNL A   1     -17.442 -24.718   6.250  0.00  0.00    -0.162 F 
ATOM     35  F   UNL A   1     -17.573 -25.324   8.380  0.00  0.00    -0.162 F 
ENDBRANCH  29  32
ENDBRANCH  28  29
ENDBRANCH  26  28
ENDBRANCH   6  26
TORSDOF 8
ENDMDL
ENDMDL
