REMARK  Name = No_3447-gen_results/8p0m/2024-11-26-14-13-15/
REMARK  8 active torsions:
REMARK  status: ('A' for Active; 'I' for Inactive)
REMARK    1  A    between atoms: C_2  and  C_25
REMARK    2  A    between atoms: C_3  and  C_7
REMARK    3  A    between atoms: C_6  and  C_13
REMARK    4  A    between atoms: C_9  and  O_16
REMARK    5  A    between atoms: C_13  and  O_15
REMARK    6  A    between atoms: O_15  and  C_17
REMARK    7  A    between atoms: O_16  and  C_24
REMARK    8  A    between atoms: C_17  and  C_18
REMARK                            x       y       z     vdW  Elec       q    Type
REMARK                         _______ _______ _______ _____ _____    ______ ____
ROOT
ATOM      1  C   UNL A   1     -28.016  -0.814  28.878  0.00  0.00    +0.006 A 
ATOM      2  C   UNL A   1     -27.064  -0.119  28.608  0.00  0.00    +0.000 A 
ATOM      3  C   UNL A   1     -25.765  -0.390  29.036  0.00  0.00    +0.002 A 
ATOM      4  C   UNL A   1     -25.530  -1.530  29.901  0.00  0.00    +0.000 A 
ATOM      5  C   UNL A   1     -26.658  -2.292  30.203  0.00  0.00    +0.006 A 
ATOM      6  C   UNL A   1     -27.855  -1.956  29.763  0.00  0.00    +0.076 A 
ENDROOT
BRANCH   2   7
ATOM      7  C   UNL A   1     -27.223   1.109  27.691  0.00  0.00    -0.001 A 
ATOM      8  C   UNL A   1     -28.380   1.716  27.598  0.00  0.00    -0.000 A 
ATOM      9  C   UNL A   1     -28.705   2.578  27.066  0.00  0.00    +0.003 A 
ATOM     10  C   UNL A   1     -27.733   3.219  26.152  0.00  0.00    +0.042 A 
ATOM     11  C   UNL A   1     -26.515   2.738  26.054  0.00  0.00    +0.192 A 
ATOM     12  C   UNL A   1     -26.247   1.610  26.776  0.00  0.00    +0.017 A 
ATOM     13  C   UNL A   1     -26.152   0.434  25.746  0.00  0.00    +0.034 C 
ATOM     14  O   UNL A   1     -26.492   2.535  24.618  0.00  0.00    -0.287 OA
ENDBRANCH   2   7
BRANCH   3  15
ATOM     15  C   UNL A   1     -24.544   0.413  28.738  0.00  0.00    +0.030 A 
ATOM     16  C   UNL A   1     -24.473   1.206  27.711  0.00  0.00    +0.174 A 
ATOM     17  C   UNL A   1     -23.263   1.911  27.393  0.00  0.00    +0.179 A 
ATOM     18  C   UNL A   1     -22.096   1.712  28.046  0.00  0.00    +0.040 A 
ATOM     19  C   UNL A   1     -23.301   0.156  29.482  0.00  0.00    +0.002 A 
ATOM     20  C   UNL A   1     -22.102   0.831  29.108  0.00  0.00    +0.003 A 
ATOM     21  F   UNL A   1     -24.386   0.526  26.790  0.00  0.00    -0.201 F 
BRANCH  17  22
ATOM     22  O   UNL A   1     -23.317   2.791  26.331  0.00  0.00    -0.389 OA
BRANCH  22  23
ATOM     23  C   UNL A   1     -24.595   3.234  25.951  0.00  0.00    +0.557 C 
ATOM     24  O   UNL A   1     -24.778   4.508  25.422  0.00  0.00    -0.200 OA
ATOM     25  O   UNL A   1     -24.443   2.664  24.859  0.00  0.00    -0.200 OA
ENDBRANCH  22  23
ENDBRANCH  17  22
ENDBRANCH   3  15
BRANCH   6  26
ATOM     26  C   UNL A   1     -29.014  -2.798  30.183  0.00  0.00    +0.345 C 
ATOM     27  O   UNL A   1     -28.930  -4.030  30.274  0.00  0.00    -0.245 OA
BRANCH  26  28
ATOM     28  O   UNL A   1     -29.962  -2.241  30.874  0.00  0.00    -0.391 OA
BRANCH  28  29
ATOM     29  C   UNL A   1     -31.031  -2.683  31.171  0.00  0.00    +0.502 C 
ATOM     30  F   UNL A   1     -31.216  -3.874  30.589  0.00  0.00    -0.156 F 
ATOM     31  F   UNL A   1     -30.732  -3.097  32.574  0.00  0.00    -0.156 F 
BRANCH  29  32
ATOM     32  C   UNL A   1     -32.240  -1.871  31.169  0.00  0.00    +0.497 C 
ATOM     33  F   UNL A   1     -32.116  -0.679  31.291  0.00  0.00    -0.162 F 
ATOM     34  F   UNL A   1     -33.141  -2.312  32.105  0.00  0.00    -0.162 F 
ATOM     35  F   UNL A   1     -32.784  -2.110  29.924  0.00  0.00    -0.162 F 
ENDBRANCH  29  32
ENDBRANCH  28  29
ENDBRANCH  26  28
ENDBRANCH   6  26
TORSDOF 8
