REMARK  Name = No_3449-gen_results/8p0m/2024-11-26-14-13-15/
REMARK  1 active torsions:
REMARK  status: ('A' for Active; 'I' for Inactive)
REMARK    1  A    between atoms: C_3  and  C_4
REMARK                            x       y       z     vdW  Elec       q    Type
REMARK                         _______ _______ _______ _____ _____    ______ ____
ROOT
ATOM      1  C   UNL A   1     -26.252   0.411  27.422  0.00  0.00    +0.253 C 
ATOM      2  N   UNL A   1     -25.786   1.577  27.155  0.00  0.00    -0.251 N 
ATOM      3  C   UNL A   1     -24.403   1.734  26.942  0.00  0.00    +0.087 A 
ATOM      4  C   UNL A   1     -23.866   2.995  26.556  0.00  0.00    +0.161 A 
ATOM      5  C   UNL A   1     -23.446   0.824  27.474  0.00  0.00    +0.019 A 
ATOM      6  C   UNL A   1     -22.068   1.191  27.525  0.00  0.00    +0.022 A 
ATOM      7  N   UNL A   1     -22.547   3.239  26.439  0.00  0.00    -0.226 NA
ATOM      8  C   UNL A   1     -21.677   2.424  26.955  0.00  0.00    +0.101 A 
ATOM      9  C   UNL A   1     -26.639   2.626  26.776  0.00  0.00    +0.122 C 
ATOM     10  O   UNL A   1     -25.731  -0.595  26.864  0.00  0.00    -0.270 OA
ATOM     11  N   UNL A   1     -24.707   3.959  26.056  0.00  0.00    -0.217 NA
ATOM     12  C   UNL A   1     -26.068   3.837  26.189  0.00  0.00    +0.136 C 
ENDROOT
BRANCH   1  15
ATOM     13  C   UNL A   1     -28.016  -0.814  28.878  0.00  0.00    +0.004 A 
ATOM     14  C   UNL A   1     -28.469  -0.785  29.829  0.00  0.00    +0.000 A 
ATOM     15  C   UNL A   1     -27.087   0.290  28.638  0.00  0.00    +0.054 A 
ATOM     16  C   UNL A   1     -28.391   0.104  30.980  0.00  0.00    +0.000 A 
ATOM     17  C   UNL A   1     -27.533   1.167  30.787  0.00  0.00    +0.000 A 
ATOM     18  C   UNL A   1     -26.828   1.256  29.645  0.00  0.00    +0.004 A 
ENDBRANCH   1  15
TORSDOF 1
