MODEL 3449
MODEL 1
REMARK VINA RESULT:    -7.673      0.000      0.000
REMARK INTER + INTRA:          -8.431
REMARK INTER:                  -8.121
REMARK INTRA:                  -0.310
REMARK UNBOUND:                -0.310
REMARK  Name = No_3449-gen_results/8p0m/2024-11-26-14-13-15/
REMARK  1 active torsions:
REMARK  status: ('A' for Active; 'I' for Inactive)
REMARK    1  A    between atoms: C_3  and  C_4
REMARK                            x       y       z     vdW  Elec       q    Type
REMARK                         _______ _______ _______ _____ _____    ______ ____
ROOT
ATOM      1  C   UNL A   1     -25.803  -1.450  29.134  0.00  0.00    +0.253 C 
ATOM      2  N   UNL A   1     -24.857  -0.642  29.453  0.00  0.00    -0.251 N 
ATOM      3  C   UNL A   1     -24.499   0.385  28.559  0.00  0.00    +0.087 A 
ATOM      4  C   UNL A   1     -23.518   1.352  28.920  0.00  0.00    +0.161 A 
ATOM      5  C   UNL A   1     -24.753   0.296  27.161  0.00  0.00    +0.019 A 
ATOM      6  C   UNL A   1     -24.088   1.181  26.260  0.00  0.00    +0.022 A 
ATOM      7  N   UNL A   1     -23.054   2.294  28.076  0.00  0.00    -0.226 NA
ATOM      8  C   UNL A   1     -23.258   2.192  26.797  0.00  0.00    +0.101 A 
ATOM      9  C   UNL A   1     -24.386  -0.567  30.773  0.00  0.00    +0.122 C 
ATOM     10  O   UNL A   1     -26.791  -1.006  28.486  0.00  0.00    -0.270 OA
ATOM     11  N   UNL A   1     -23.175   1.501  30.241  0.00  0.00    -0.217 NA
ATOM     12  C   UNL A   1     -23.540   0.557  31.169  0.00  0.00    +0.136 C 
ENDROOT
BRANCH   1  15
ATOM     13  C   UNL A   1     -26.387  -3.892  29.791  0.00  0.00    +0.004 A 
ATOM     14  C   UNL A   1     -26.047  -4.883  29.680  0.00  0.00    +0.000 A 
ATOM     15  C   UNL A   1     -25.493  -2.896  29.200  0.00  0.00    +0.054 A 
ATOM     16  C   UNL A   1     -24.881  -5.510  29.072  0.00  0.00    +0.000 A 
ATOM     17  C   UNL A   1     -24.006  -4.600  28.514  0.00  0.00    +0.000 A 
ATOM     18  C   UNL A   1     -24.312  -3.291  28.518  0.00  0.00    +0.004 A 
ENDBRANCH   1  15
TORSDOF 1
ENDMDL
ENDMDL
