MODEL 344
MODEL 1
REMARK VINA RESULT:    -5.247      0.000      0.000
REMARK INTER + INTRA:          -5.848
REMARK INTER:                  -5.554
REMARK INTRA:                  -0.293
REMARK UNBOUND:                -0.293
REMARK  Name = No_344-gen_results/8p0m/2024-11-26-14-13-15/
REMARK  1 active torsions:
REMARK  status: ('A' for Active; 'I' for Inactive)
REMARK    1  A    between atoms: C_4  and  C_5
REMARK                            x       y       z     vdW  Elec       q    Type
REMARK                         _______ _______ _______ _____ _____    ______ ____
ROOT
ATOM      1  C   UNL A   1     -25.346  -5.265  29.285  0.00  0.00    -0.000 A 
ATOM      2  C   UNL A   1     -26.186  -4.474  29.647  0.00  0.00    -0.000 A 
ATOM      3  C   UNL A   1     -25.968  -3.112  29.731  0.00  0.00    -0.000 A 
ATOM      4  C   UNL A   1     -24.696  -2.614  29.332  0.00  0.00    -0.004 A 
ATOM      5  C   UNL A   1     -24.194  -4.790  28.571  0.00  0.00    -0.000 A 
ATOM      6  C   UNL A   1     -23.833  -3.487  28.763  0.00  0.00    -0.000 A 
ENDROOT
BRANCH   4   7
ATOM      7  C   UNL A   1     -24.363  -1.320  29.449  0.00  0.00    -0.026 C 
ATOM      8  C   UNL A   1     -23.736  -0.751  28.536  0.00  0.00    -0.030 C 
ATOM      9  C   UNL A   1     -24.797  -0.576  30.631  0.00  0.00    +0.031 C 
ATOM     10  C   UNL A   1     -22.980   0.528  28.758  0.00  0.00    +0.030 C 
ENDBRANCH   4   7
TORSDOF 1
ENDMDL
ENDMDL
