REMARK  Name = No_345-gen_results/8p0m/2024-11-26-14-13-15/
REMARK  3 active torsions:
REMARK  status: ('A' for Active; 'I' for Inactive)
REMARK    1  A    between atoms: C_2  and  O_7
REMARK    2  A    between atoms: O_7  and  C_8
REMARK    3  A    between atoms: C_14  and  C_15
REMARK                            x       y       z     vdW  Elec       q    Type
REMARK                         _______ _______ _______ _____ _____    ______ ____
ROOT
ATOM      1  C   UNL A   1     -26.967   2.220  28.188  0.00  0.00    +0.141 A 
ATOM      2  C   UNL A   1     -26.532   3.087  27.372  0.00  0.00    +0.013 A 
ATOM      3  C   UNL A   1     -26.067   2.788  26.058  0.00  0.00    +0.034 C 
ATOM      4  C   UNL A   1     -27.270   2.592  29.572  0.00  0.00    +0.037 A 
ATOM      5  C   UNL A   1     -27.101   3.937  29.882  0.00  0.00    +0.010 A 
ATOM      6  C   UNL A   1     -26.243   4.506  27.789  0.00  0.00    +0.005 A 
ATOM      7  C   UNL A   1     -26.581   4.865  29.046  0.00  0.00    +0.080 A 
ENDROOT
BRANCH   7   8
ATOM      8  C   UNL A   1     -26.354   6.270  29.500  0.00  0.00    +0.388 C 
ATOM      9  O   UNL A   1     -25.946   6.506  30.576  0.00  0.00    -0.241 OA
ATOM     10  O   UNL A   1     -26.495   7.204  28.614  0.00  0.00    -0.241 OA
ENDBRANCH   7   8
BRANCH   1  11
ATOM     11  O   UNL A   1     -27.123   1.023  27.850  0.00  0.00    -0.454 OA
BRANCH  11  13
ATOM     12  C   UNL A   1     -28.016  -0.814  28.878  0.00  0.00    +0.037 A 
ATOM     13  C   UNL A   1     -27.064  -0.119  28.608  0.00  0.00    +0.145 A 
ATOM     14  C   UNL A   1     -25.792  -0.430  29.076  0.00  0.00    +0.037 A 
ATOM     15  C   UNL A   1     -25.576  -1.565  29.936  0.00  0.00    +0.003 A 
ATOM     16  C   UNL A   1     -26.735  -2.300  30.217  0.00  0.00    +0.000 A 
ATOM     17  C   UNL A   1     -27.918  -1.954  29.763  0.00  0.00    +0.003 A 
ENDBRANCH  11  13
ENDBRANCH   1  11
TORSDOF 3
