MODEL 3450
MODEL 1
REMARK VINA RESULT:    -5.068      0.000      0.000
REMARK INTER + INTRA:          -5.858
REMARK INTER:                  -5.660
REMARK INTRA:                  -0.197
REMARK UNBOUND:                -0.197
REMARK  Name = No_3450-gen_results/8p0m/2024-11-26-14-13-15/
REMARK  2 active torsions:
REMARK  status: ('A' for Active; 'I' for Inactive)
REMARK    1  A    between atoms: C_1  and  C_2
REMARK    2  A    between atoms: C_1  and  C_8
REMARK                            x       y       z     vdW  Elec       q    Type
REMARK                         _______ _______ _______ _____ _____    ______ ____
ROOT
ATOM      1  C   UNL A   1     -24.205  -2.447  29.440  0.00  0.00    -0.017 A 
ATOM      2  C   UNL A   1     -23.176  -1.792  28.984  0.00  0.00    -0.004 A 
ATOM      3  C   UNL A   1     -22.410  -0.746  29.706  0.00  0.00    -0.000 A 
ATOM      4  C   UNL A   1     -22.880  -0.401  31.005  0.00  0.00    -0.000 A 
ATOM      5  C   UNL A   1     -23.999  -1.046  31.466  0.00  0.00    -0.000 A 
ATOM      6  C   UNL A   1     -24.680  -1.985  30.768  0.00  0.00    -0.004 A 
ENDROOT
BRANCH   1   7
ATOM      7  C   UNL A   1     -24.852  -3.299  28.877  0.00  0.00    +0.099 C 
BRANCH   7   8
ATOM      8  C   UNL A   1     -24.249  -4.702  28.769  0.00  0.00    +0.323 C 
ATOM      9  F   UNL A   1     -23.705  -4.980  27.891  0.00  0.00    -0.198 F 
ATOM     10  F   UNL A   1     -25.338  -5.572  28.927  0.00  0.00    -0.198 F 
ENDBRANCH   7   8
ENDBRANCH   1   7
TORSDOF 2
ENDMDL
ENDMDL
