REMARK  Name = No_3451-gen_results/8p0m/2024-11-26-14-13-15/
REMARK  6 active torsions:
REMARK  status: ('A' for Active; 'I' for Inactive)
REMARK    1  A    between atoms: C_4  and  C_11
REMARK    2  A    between atoms: C_7  and  O_15
REMARK    3  A    between atoms: O_15  and  C_16
REMARK    4  A    between atoms: C_16  and  C_17
REMARK    5  A    between atoms: C_17  and  C_18
REMARK    6  A    between atoms: C_18  and  C_20
REMARK                            x       y       z     vdW  Elec       q    Type
REMARK                         _______ _______ _______ _____ _____    ______ ____
ROOT
ATOM      1  C   UNL A   1     -28.016  -0.814  28.878  0.00  0.00    +0.037 A 
ATOM      2  C   UNL A   1     -27.064  -0.119  28.608  0.00  0.00    +0.003 A 
ATOM      3  C   UNL A   1     -25.765  -0.390  29.036  0.00  0.00    +0.005 A 
ATOM      4  C   UNL A   1     -24.552   0.406  28.765  0.00  0.00    +0.054 A 
ATOM      5  C   UNL A   1     -23.230   0.118  29.258  0.00  0.00    +0.004 A 
ATOM      6  C   UNL A   1     -23.094  -1.131  29.873  0.00  0.00    +0.000 A 
ATOM      7  C   UNL A   1     -27.798  -1.934  29.856  0.00  0.00    +0.139 A 
ATOM      8  C   UNL A   1     -26.542  -2.327  30.258  0.00  0.00    +0.037 A 
ATOM      9  C   UNL A   1     -25.451  -1.552  29.908  0.00  0.00    +0.003 A 
ATOM     10  C   UNL A   1     -24.156  -1.910  30.281  0.00  0.00    +0.000 A 
ENDROOT
BRANCH   4  11
ATOM     11  C   UNL A   1     -24.645   1.658  27.946  0.00  0.00    +0.249 C 
ATOM     12  N   UNL A   1     -23.723   1.882  27.072  0.00  0.00    -0.273 N 
ATOM     13  C   UNL A   1     -23.889   2.596  25.930  0.00  0.00    +0.115 C 
ATOM     14  O   UNL A   1     -25.533   2.416  28.166  0.00  0.00    -0.270 OA
ATOM     15  C   UNL A   1     -22.269   2.360  27.551  0.00  0.00    +0.115 C 
ENDBRANCH   4  11
BRANCH   7  16
ATOM     16  O   UNL A   1     -28.927  -2.644  30.186  0.00  0.00    -0.474 OA
BRANCH  16  17
ATOM     17  C   UNL A   1     -29.221  -2.836  31.537  0.00  0.00    +0.225 C 
BRANCH  17  18
ATOM     18  C   UNL A   1     -29.751  -4.162  31.785  0.00  0.00    +0.140 C 
ATOM     19  N   UNL A   1     -29.078  -4.885  32.926  0.00  0.00    -0.129 NA
BRANCH  18  20
ATOM     20  C   UNL A   1     -29.844  -5.029  30.802  0.00  0.00    +0.049 C 
BRANCH  20  21
ATOM     21  C   UNL A   1     -31.174  -5.268  30.187  0.00  0.00    -0.021 A 
ATOM     22  C   UNL A   1     -31.419  -4.948  29.263  0.00  0.00    -0.004 A 
ATOM     23  C   UNL A   1     -32.741  -4.941  28.742  0.00  0.00    -0.000 A 
ATOM     24  C   UNL A   1     -33.664  -5.682  29.398  0.00  0.00    -0.000 A 
ATOM     25  C   UNL A   1     -32.274  -5.764  30.935  0.00  0.00    -0.004 A 
ATOM     26  C   UNL A   1     -33.454  -6.028  30.572  0.00  0.00    -0.000 A 
ENDBRANCH  20  21
ENDBRANCH  18  20
ENDBRANCH  17  18
ENDBRANCH  16  17
ENDBRANCH   7  16
TORSDOF 6
