MODEL 3451
MODEL 1
REMARK VINA RESULT:    -5.881      0.000      0.000
REMARK INTER + INTRA:         -10.860
REMARK INTER:                  -7.943
REMARK INTRA:                  -2.917
REMARK UNBOUND:                -2.917
REMARK  Name = No_3451-gen_results/8p0m/2024-11-26-14-13-15/
REMARK  6 active torsions:
REMARK  status: ('A' for Active; 'I' for Inactive)
REMARK    1  A    between atoms: C_4  and  C_11
REMARK    2  A    between atoms: C_7  and  O_15
REMARK    3  A    between atoms: O_15  and  C_16
REMARK    4  A    between atoms: C_16  and  C_17
REMARK    5  A    between atoms: C_17  and  C_18
REMARK    6  A    between atoms: C_18  and  C_20
REMARK                            x       y       z     vdW  Elec       q    Type
REMARK                         _______ _______ _______ _____ _____    ______ ____
ROOT
ATOM      1  C   UNL A   1      -7.943   1.140   9.138  0.00  0.00    +0.037 A 
ATOM      2  C   UNL A   1      -8.558   2.179   9.193  0.00  0.00    +0.003 A 
ATOM      3  C   UNL A   1      -9.247   2.609  10.327  0.00  0.00    +0.005 A 
ATOM      4  C   UNL A   1     -10.030   3.851  10.478  0.00  0.00    +0.054 A 
ATOM      5  C   UNL A   1     -10.763   4.244  11.653  0.00  0.00    +0.004 A 
ATOM      6  C   UNL A   1     -10.525   3.455  12.783  0.00  0.00    +0.000 A 
ATOM      7  C   UNL A   1      -8.068   0.201  10.304  0.00  0.00    +0.139 A 
ATOM      8  C   UNL A   1      -8.649   0.577  11.494  0.00  0.00    +0.037 A 
ATOM      9  C   UNL A   1      -9.313   1.788  11.564  0.00  0.00    +0.003 A 
ATOM     10  C   UNL A   1      -9.911   2.221  12.747  0.00  0.00    +0.000 A 
ENDROOT
BRANCH   4  11
ATOM     11  C   UNL A   1     -10.145   4.808   9.330  0.00  0.00    +0.249 C 
ATOM     12  N   UNL A   1      -9.226   5.702   9.190  0.00  0.00    -0.273 N 
ATOM     13  C   UNL A   1      -8.854   6.259   8.010  0.00  0.00    +0.115 C 
ATOM     14  O   UNL A   1     -11.099   4.738   8.625  0.00  0.00    -0.270 OA
ATOM     15  C   UNL A   1      -9.184   6.965  10.177  0.00  0.00    +0.115 C 
ENDBRANCH   4  11
BRANCH   7  16
ATOM     16  O   UNL A   1      -7.411  -0.997  10.158  0.00  0.00    -0.474 OA
BRANCH  16  17
ATOM     17  C   UNL A   1      -6.404  -1.320  11.069  0.00  0.00    +0.225 C 
BRANCH  17  18
ATOM     18  C   UNL A   1      -5.178  -0.598  10.787  0.00  0.00    +0.140 C 
ATOM     19  N   UNL A   1      -4.117  -1.436  10.118  0.00  0.00    -0.129 NA
BRANCH  18  20
ATOM     20  C   UNL A   1      -4.573   0.071  11.743  0.00  0.00    +0.049 C 
BRANCH  20  21
ATOM     21  C   UNL A   1      -5.121   1.391  12.144  0.00  0.00    -0.021 A 
ATOM     22  C   UNL A   1      -5.501   1.574  13.060  0.00  0.00    -0.004 A 
ATOM     23  C   UNL A   1      -6.248   2.734  13.400  0.00  0.00    -0.000 A 
ATOM     24  C   UNL A   1      -6.183   3.780  12.544  0.00  0.00    -0.000 A 
ATOM     25  C   UNL A   1      -5.360   2.427  11.204  0.00  0.00    -0.004 A 
ATOM     26  C   UNL A   1      -5.808   3.595  11.375  0.00  0.00    -0.000 A 
ENDBRANCH  20  21
ENDBRANCH  18  20
ENDBRANCH  17  18
ENDBRANCH  16  17
ENDBRANCH   7  16
TORSDOF 6
ENDMDL
ENDMDL
