REMARK  Name = No_3452-gen_results/8p0m/2024-11-26-14-13-15/
REMARK  6 active torsions:
REMARK  status: ('A' for Active; 'I' for Inactive)
REMARK    1  A    between atoms: C_3  and  C_8
REMARK    2  A    between atoms: C_6  and  O_7
REMARK    3  A    between atoms: O_7  and  C_15
REMARK    4  A    between atoms: N_20  and  C_21
REMARK    5  A    between atoms: C_22  and  C_23
REMARK    6  A    between atoms: C_28  and  C_29
REMARK                            x       y       z     vdW  Elec       q    Type
REMARK                         _______ _______ _______ _____ _____    ______ ____
ROOT
ATOM      1  C   UNL A   1     -28.942  -3.891  30.575  0.00  0.00    +0.186 C 
ATOM      2  C   UNL A   1     -28.939  -4.779  30.109  0.00  0.00    +0.047 C 
ATOM      3  C   UNL A   1     -29.928  -5.361  30.285  0.00  0.00    +0.025 C 
ATOM      4  C   UNL A   1     -30.483  -5.619  31.609  0.00  0.00    +0.091 C 
ATOM      5  C   UNL A   1     -28.813  -3.881  32.113  0.00  0.00    +0.135 C 
ATOM      6  N   UNL A   1     -29.977  -4.763  32.532  0.00  0.00    -0.303 N 
ENDROOT
BRANCH   6   7
ATOM      7  C   UNL A   1     -30.019  -5.155  34.005  0.00  0.00    +0.061 C 
ATOM      8  C   UNL A   1     -30.145  -4.073  34.783  0.00  0.00    +0.016 C 
BRANCH   8   9
ATOM      9  C   UNL A   1     -30.592  -2.865  34.303  0.00  0.00    +0.001 A 
ATOM     10  C   UNL A   1     -30.625  -1.717  35.171  0.00  0.00    +0.000 A 
ATOM     11  C   UNL A   1     -31.016  -0.414  34.654  0.00  0.00    +0.000 A 
ATOM     12  C   UNL A   1     -31.132  -0.241  33.539  0.00  0.00    -0.000 A 
ATOM     13  C   UNL A   1     -31.009  -1.264  32.520  0.00  0.00    -0.000 A 
ATOM     14  C   UNL A   1     -30.653  -2.528  32.984  0.00  0.00    -0.004 A 
BRANCH  14  15
ATOM     15  C   UNL A   1     -31.334  -3.424  32.190  0.00  0.00    -0.022 C 
ATOM     16  C   UNL A   1     -32.591  -3.807  32.767  0.00  0.00    -0.005 C 
ATOM     17  C   UNL A   1     -31.936  -2.493  30.972  0.00  0.00    +0.031 C 
ENDBRANCH  14  15
ENDBRANCH   8   9
ENDBRANCH   6   7
BRANCH   1  18
ATOM     18  O   UNL A   1     -29.015  -2.574  30.098  0.00  0.00    -0.477 OA
BRANCH  18  24
ATOM     19  C   UNL A   1     -28.016  -0.814  28.878  0.00  0.00    +0.037 A 
ATOM     20  C   UNL A   1     -27.064  -0.119  28.608  0.00  0.00    +0.005 A 
ATOM     21  C   UNL A   1     -25.765  -0.390  29.036  0.00  0.00    +0.018 A 
ATOM     22  C   UNL A   1     -25.530  -1.530  29.901  0.00  0.00    +0.005 A 
ATOM     23  C   UNL A   1     -26.689  -2.289  30.181  0.00  0.00    +0.037 A 
ATOM     24  C   UNL A   1     -27.873  -1.951  29.737  0.00  0.00    +0.139 A 
BRANCH  21  25
ATOM     25  C   UNL A   1     -24.409   0.209  28.770  0.00  0.00    +0.083 A 
ATOM     26  N   UNL A   1     -24.312   1.196  27.897  0.00  0.00    -0.228 NA
ATOM     27  C   UNL A   1     -23.138   1.665  27.475  0.00  0.00    +0.170 A 
ATOM     28  N   UNL A   1     -22.971   2.710  26.638  0.00  0.00    -0.107 NA
ATOM     29  C   UNL A   1     -23.216  -0.231  29.280  0.00  0.00    +0.019 A 
ATOM     30  C   UNL A   1     -21.869   1.206  28.013  0.00  0.00    +0.038 A 
ATOM     31  C   UNL A   1     -21.907   0.248  28.958  0.00  0.00    +0.004 A 
ENDBRANCH  21  25
ENDBRANCH  18  24
ENDBRANCH   1  18
TORSDOF 6
