MODEL 3452
MODEL 1
REMARK VINA RESULT:    -6.457      0.000      0.000
REMARK INTER + INTRA:         -10.995
REMARK INTER:                  -8.721
REMARK INTRA:                  -2.274
REMARK UNBOUND:                -2.274
REMARK  Name = No_3452-gen_results/8p0m/2024-11-26-14-13-15/
REMARK  6 active torsions:
REMARK  status: ('A' for Active; 'I' for Inactive)
REMARK    1  A    between atoms: C_3  and  C_8
REMARK    2  A    between atoms: C_6  and  O_7
REMARK    3  A    between atoms: O_7  and  C_15
REMARK    4  A    between atoms: N_20  and  C_21
REMARK    5  A    between atoms: C_22  and  C_23
REMARK    6  A    between atoms: C_28  and  C_29
REMARK                            x       y       z     vdW  Elec       q    Type
REMARK                         _______ _______ _______ _____ _____    ______ ____
ROOT
ATOM      1  C   UNL A   1     -20.541 -18.710   5.643  0.00  0.00    +0.186 C 
ATOM      2  C   UNL A   1     -21.149 -18.129   6.190  0.00  0.00    +0.047 C 
ATOM      3  C   UNL A   1     -21.810 -18.756   6.909  0.00  0.00    +0.025 C 
ATOM      4  C   UNL A   1     -22.635 -19.876   6.471  0.00  0.00    +0.091 C 
ATOM      5  C   UNL A   1     -21.170 -19.558   4.517  0.00  0.00    +0.135 C 
ATOM      6  N   UNL A   1     -22.216 -20.358   5.273  0.00  0.00    -0.303 N 
ENDROOT
BRANCH   6   7
ATOM      7  C   UNL A   1     -23.193 -21.156   4.416  0.00  0.00    +0.061 C 
ATOM      8  C   UNL A   1     -22.826 -22.441   4.346  0.00  0.00    +0.016 C 
BRANCH   8   9
ATOM      9  C   UNL A   1     -21.960 -23.014   5.247  0.00  0.00    +0.001 A 
ATOM     10  C   UNL A   1     -22.428 -23.371   6.561  0.00  0.00    +0.000 A 
ATOM     11  C   UNL A   1     -21.545 -24.053   7.496  0.00  0.00    +0.000 A 
ATOM     12  C   UNL A   1     -20.546 -24.468   7.157  0.00  0.00    -0.000 A 
ATOM     13  C   UNL A   1     -19.983 -24.304   5.831  0.00  0.00    -0.000 A 
ATOM     14  C   UNL A   1     -20.795 -23.639   4.916  0.00  0.00    -0.004 A 
BRANCH  14  15
ATOM     15  C   UNL A   1     -19.943 -22.894   4.132  0.00  0.00    -0.022 C 
ATOM     16  C   UNL A   1     -18.565 -23.186   4.406  0.00  0.00    -0.005 C 
ATOM     17  C   UNL A   1     -20.025 -23.625   2.658  0.00  0.00    +0.031 C 
ENDBRANCH  14  15
ENDBRANCH   8   9
ENDBRANCH   6   7
BRANCH   1  18
ATOM     18  O   UNL A   1     -19.152 -18.909   5.665  0.00  0.00    -0.477 OA
BRANCH  18  24
ATOM     19  C   UNL A   1     -17.279 -20.267   6.146  0.00  0.00    +0.037 A 
ATOM     20  C   UNL A   1     -16.718 -21.097   6.823  0.00  0.00    +0.005 A 
ATOM     21  C   UNL A   1     -17.357 -21.851   7.806  0.00  0.00    +0.018 A 
ATOM     22  C   UNL A   1     -18.758 -21.601   8.089  0.00  0.00    +0.005 A 
ATOM     23  C   UNL A   1     -19.343 -20.612   7.266  0.00  0.00    +0.037 A 
ATOM     24  C   UNL A   1     -18.658 -19.950   6.369  0.00  0.00    +0.139 A 
BRANCH  21  25
ATOM     25  C   UNL A   1     -16.958 -22.998   8.697  0.00  0.00    +0.083 A 
ATOM     26  N   UNL A   1     -16.330 -22.734   9.828  0.00  0.00    -0.228 NA
ATOM     27  C   UNL A   1     -15.790 -23.688  10.587  0.00  0.00    +0.170 A 
ATOM     28  N   UNL A   1     -15.195 -23.491  11.781  0.00  0.00    -0.107 NA
ATOM     29  C   UNL A   1     -17.097 -24.331   8.410  0.00  0.00    +0.019 A 
ATOM     30  C   UNL A   1     -15.936 -25.103  10.292  0.00  0.00    +0.038 A 
ATOM     31  C   UNL A   1     -16.628 -25.437   9.186  0.00  0.00    +0.004 A 
ENDBRANCH  21  25
ENDBRANCH  18  24
ENDBRANCH   1  18
TORSDOF 6
ENDMDL
ENDMDL
