REMARK  Name = No_3453-gen_results/8p0m/2024-11-26-14-13-15/
REMARK  2 active torsions:
REMARK  status: ('A' for Active; 'I' for Inactive)
REMARK    1  A    between atoms: N_3  and  C_4
REMARK    2  A    between atoms: C_4  and  C_5
REMARK                            x       y       z     vdW  Elec       q    Type
REMARK                         _______ _______ _______ _____ _____    ______ ____
ROOT
ATOM      1  C   UNL A   1     -24.651   0.444  28.765  0.00  0.00    +0.151 C 
ENDROOT
BRANCH   1   4
ATOM      2  C   UNL A   1     -28.016  -0.814  28.878  0.00  0.00    +0.053 C 
ATOM      3  C   UNL A   1     -27.064  -0.119  28.608  0.00  0.00    +0.068 C 
ATOM      4  N   UNL A   1     -25.818  -0.343  29.049  0.00  0.00    -0.269 NA
ENDBRANCH   1   4
BRANCH   1   5
ATOM      5  C   UNL A   1     -23.339   0.117  29.258  0.00  0.00    -0.005 C 
ATOM      6  C   UNL A   1     -23.217  -1.216  29.688  0.00  0.00    -0.028 C 
ATOM      7  C   UNL A   1     -24.297  -2.032  29.879  0.00  0.00    +0.030 C 
ENDBRANCH   1   5
TORSDOF 2
