MODEL 3453
MODEL 1
REMARK VINA RESULT:    -3.564      0.000      0.000
REMARK INTER + INTRA:          -4.053
REMARK INTER:                  -3.981
REMARK INTRA:                  -0.073
REMARK UNBOUND:                -0.073
REMARK  Name = No_3453-gen_results/8p0m/2024-11-26-14-13-15/
REMARK  2 active torsions:
REMARK  status: ('A' for Active; 'I' for Inactive)
REMARK    1  A    between atoms: N_3  and  C_4
REMARK    2  A    between atoms: C_4  and  C_5
REMARK                            x       y       z     vdW  Elec       q    Type
REMARK                         _______ _______ _______ _____ _____    ______ ____
ROOT
ATOM      1  C   UNL A   1     -13.129 -20.593  19.309  0.00  0.00    +0.151 C 
ENDROOT
BRANCH   1   4
ATOM      2  C   UNL A   1     -11.624 -21.025  22.544  0.00  0.00    +0.053 C 
ATOM      3  C   UNL A   1     -11.792 -21.064  21.347  0.00  0.00    +0.068 C 
ATOM      4  N   UNL A   1     -12.872 -20.575  20.721  0.00  0.00    -0.269 NA
ENDBRANCH   1   4
BRANCH   1   5
ATOM      5  C   UNL A   1     -13.631 -19.457  18.583  0.00  0.00    -0.005 C 
ATOM      6  C   UNL A   1     -12.993 -19.253  17.347  0.00  0.00    -0.028 C 
ATOM      7  C   UNL A   1     -11.836 -19.892  16.999  0.00  0.00    +0.030 C 
ENDBRANCH   1   5
TORSDOF 2
ENDMDL
ENDMDL
