MODEL 3454
MODEL 1
REMARK VINA RESULT:    -6.233      0.000      0.000
REMARK INTER + INTRA:         -12.248
REMARK INTER:                  -9.148
REMARK INTRA:                  -3.100
REMARK UNBOUND:                -3.100
REMARK  Name = No_3454-gen_results/8p0m/2024-11-26-14-13-15/
REMARK  8 active torsions:
REMARK  status: ('A' for Active; 'I' for Inactive)
REMARK    1  A    between atoms: C_2  and  C_7
REMARK    2  A    between atoms: C_4  and  C_10
REMARK    3  A    between atoms: C_7  and  O_9
REMARK    4  A    between atoms: O_9  and  C_19
REMARK    5  A    between atoms: C_13  and  C_16
REMARK    6  A    between atoms: C_19  and  C_20
REMARK    7  A    between atoms: C_19  and  C_27
REMARK    8  A    between atoms: C_20  and  C_21
REMARK                            x       y       z     vdW  Elec       q    Type
REMARK                         _______ _______ _______ _____ _____    ______ ____
ROOT
ATOM      1  C   UNL A   1     -24.098   0.903  26.187  0.00  0.00    +0.006 A 
ATOM      2  C   UNL A   1     -23.931   1.807  26.701  0.00  0.00    +0.076 A 
ATOM      3  C   UNL A   1     -25.419   0.807  25.455  0.00  0.00    +0.000 A 
ATOM      4  C   UNL A   1     -26.254   1.941  25.383  0.00  0.00    +0.000 A 
ATOM      5  C   UNL A   1     -24.603   3.125  26.760  0.00  0.00    +0.006 A 
ATOM      6  C   UNL A   1     -25.819   3.077  26.092  0.00  0.00    +0.000 A 
ENDROOT
BRANCH   4   7
ATOM      7  C   UNL A   1     -27.528   1.878  24.707  0.00  0.00    +0.000 A 
ATOM      8  C   UNL A   1     -28.170   2.672  24.337  0.00  0.00    +0.000 A 
ATOM      9  C   UNL A   1     -28.046   0.483  24.502  0.00  0.00    +0.007 A 
ATOM     10  C   UNL A   1     -29.246   0.295  23.799  0.00  0.00    +0.080 A 
ATOM     11  C   UNL A   1     -29.484   2.686  23.683  0.00  0.00    +0.000 A 
ATOM     12  C   UNL A   1     -29.901   1.388  23.347  0.00  0.00    +0.007 A 
BRANCH  10  13
ATOM     13  C   UNL A   1     -29.701  -1.062  23.495  0.00  0.00    +0.388 C 
ATOM     14  O   UNL A   1     -30.959  -1.390  23.517  0.00  0.00    -0.241 OA
ATOM     15  O   UNL A   1     -28.818  -2.001  23.238  0.00  0.00    -0.241 OA
ENDBRANCH  10  13
ENDBRANCH   4   7
BRANCH   2  16
ATOM     16  C   UNL A   1     -22.531   1.943  27.476  0.00  0.00    +0.342 C 
ATOM     17  O   UNL A   1     -21.637   1.886  26.816  0.00  0.00    -0.245 OA
BRANCH  16  18
ATOM     18  O   UNL A   1     -22.452   1.781  28.795  0.00  0.00    -0.441 OA
BRANCH  18  19
ATOM     19  C   UNL A   1     -22.763   0.779  29.327  0.00  0.00    +0.237 C 
BRANCH  19  20
ATOM     20  C   UNL A   1     -21.880  -0.318  29.119  0.00  0.00    +0.251 C 
ATOM     21  O   UNL A   1     -22.201  -1.409  28.989  0.00  0.00    -0.284 OA
ENDBRANCH  19  20
BRANCH  19  22
ATOM     22  C   UNL A   1     -23.781   0.758  30.238  0.00  0.00    +0.078 C 
BRANCH  22  23
ATOM     23  C   UNL A   1     -25.007   0.736  29.785  0.00  0.00    -0.018 A 
ATOM     24  C   UNL A   1     -25.557  -0.308  29.190  0.00  0.00    -0.004 A 
ATOM     25  C   UNL A   1     -26.924  -0.385  28.699  0.00  0.00    -0.000 A 
ATOM     26  C   UNL A   1     -27.670   0.814  28.803  0.00  0.00    -0.000 A 
ATOM     27  C   UNL A   1     -27.126   1.933  29.370  0.00  0.00    -0.000 A 
ATOM     28  C   UNL A   1     -25.827   1.910  29.876  0.00  0.00    -0.004 A 
ENDBRANCH  22  23
ENDBRANCH  19  22
ENDBRANCH  18  19
ENDBRANCH  16  18
ENDBRANCH   2  16
TORSDOF 8
ENDMDL
ENDMDL
