REMARK  Name = No_3455-gen_results/8p0m/2024-11-26-14-13-15/
REMARK  1 active torsions:
REMARK  status: ('A' for Active; 'I' for Inactive)
REMARK    1  A    between atoms: C_3  and  C_7
REMARK                            x       y       z     vdW  Elec       q    Type
REMARK                         _______ _______ _______ _____ _____    ______ ____
ROOT
ATOM      1  C   UNL A   1     -28.016  -0.814  28.878  0.00  0.00    +0.000 A 
ATOM      2  C   UNL A   1     -27.064  -0.119  28.608  0.00  0.00    +0.000 A 
ATOM      3  C   UNL A   1     -26.876   1.133  28.913  0.00  0.00    +0.002 A 
ATOM      4  C   UNL A   1     -27.901   1.807  29.644  0.00  0.00    +0.000 A 
ATOM      5  C   UNL A   1     -28.945   1.039  30.036  0.00  0.00    +0.000 A 
ATOM      6  C   UNL A   1     -29.027  -0.289  29.705  0.00  0.00    +0.000 A 
ENDROOT
BRANCH   3   7
ATOM      7  C   UNL A   1     -25.696   1.950  28.476  0.00  0.00    +0.019 A 
ATOM      8  C   UNL A   1     -24.939   2.540  29.069  0.00  0.00    +0.099 A 
ATOM      9  C   UNL A   1     -25.521   1.995  27.002  0.00  0.00    +0.003 A 
ATOM     10  C   UNL A   1     -24.381   2.604  26.485  0.00  0.00    +0.021 A 
ATOM     11  N   UNL A   1     -23.764   3.213  28.657  0.00  0.00    -0.242 NA
ATOM     12  C   UNL A   1     -23.486   3.244  27.356  0.00  0.00    +0.099 A 
ENDBRANCH   3   7
TORSDOF 1
