MODEL 3455
MODEL 1
REMARK VINA RESULT:    -6.282      0.000      0.000
REMARK INTER + INTRA:          -6.884
REMARK INTER:                  -6.649
REMARK INTRA:                  -0.236
REMARK UNBOUND:                -0.236
REMARK  Name = No_3455-gen_results/8p0m/2024-11-26-14-13-15/
REMARK  1 active torsions:
REMARK  status: ('A' for Active; 'I' for Inactive)
REMARK    1  A    between atoms: C_3  and  C_7
REMARK                            x       y       z     vdW  Elec       q    Type
REMARK                         _______ _______ _______ _____ _____    ______ ____
ROOT
ATOM      1  C   UNL A   1     -24.592  -4.916  28.905  0.00  0.00    +0.000 A 
ATOM      2  C   UNL A   1     -23.967  -3.888  28.788  0.00  0.00    +0.000 A 
ATOM      3  C   UNL A   1     -24.356  -2.679  29.074  0.00  0.00    +0.002 A 
ATOM      4  C   UNL A   1     -25.680  -2.501  29.577  0.00  0.00    +0.000 A 
ATOM      5  C   UNL A   1     -26.382  -3.637  29.799  0.00  0.00    +0.000 A 
ATOM      6  C   UNL A   1     -25.862  -4.873  29.510  0.00  0.00    +0.000 A 
ENDROOT
BRANCH   3   7
ATOM      7  C   UNL A   1     -23.543  -1.441  28.831  0.00  0.00    +0.019 A 
ATOM      8  C   UNL A   1     -22.518  -1.141  29.193  0.00  0.00    +0.099 A 
ATOM      9  C   UNL A   1     -24.233  -0.438  27.979  0.00  0.00    +0.003 A 
ATOM     10  C   UNL A   1     -23.525   0.687  27.569  0.00  0.00    +0.021 A 
ATOM     11  N   UNL A   1     -21.713  -0.023  28.866  0.00  0.00    -0.242 NA
ATOM     12  C   UNL A   1     -22.223   0.895  28.049  0.00  0.00    +0.099 A 
ENDBRANCH   3   7
TORSDOF 1
ENDMDL
ENDMDL
