REMARK  Name = No_3456-gen_results/8p0m/2024-11-26-14-13-15/
REMARK  3 active torsions:
REMARK  status: ('A' for Active; 'I' for Inactive)
REMARK    1  A    between atoms: C_2  and  O_7
REMARK    2  A    between atoms: C_5  and  C_14
REMARK    3  A    between atoms: O_7  and  C_8
REMARK                            x       y       z     vdW  Elec       q    Type
REMARK                         _______ _______ _______ _____ _____    ______ ____
ROOT
ATOM      1  C   UNL A   1     -28.016  -0.814  28.878  0.00  0.00    +0.044 A 
ATOM      2  C   UNL A   1     -27.064  -0.119  28.608  0.00  0.00    +0.145 A 
ATOM      3  C   UNL A   1     -26.876   1.133  28.913  0.00  0.00    +0.037 A 
ATOM      4  C   UNL A   1     -27.901   1.807  29.644  0.00  0.00    +0.003 A 
ATOM      5  C   UNL A   1     -29.046  -0.232  29.718  0.00  0.00    +0.083 A 
ATOM      6  C   UNL A   1     -28.940   1.052  30.060  0.00  0.00    +0.007 A 
ENDROOT
BRANCH   5   7
ATOM      7  C   UNL A   1     -30.194  -1.100  30.131  0.00  0.00    +0.388 C 
ATOM      8  O   UNL A   1     -30.756  -0.833  30.947  0.00  0.00    -0.241 OA
ATOM      9  O   UNL A   1     -30.316  -2.163  29.401  0.00  0.00    -0.241 OA
ENDBRANCH   5   7
BRANCH   2  10
ATOM     10  O   UNL A   1     -25.980  -0.691  27.875  0.00  0.00    -0.454 OA
BRANCH  10  11
ATOM     11  C   UNL A   1     -24.934  -1.250  28.664  0.00  0.00    +0.145 A 
ATOM     12  C   UNL A   1     -24.939  -2.391  29.088  0.00  0.00    +0.037 A 
ATOM     13  C   UNL A   1     -23.724  -0.432  28.721  0.00  0.00    +0.037 A 
ATOM     14  C   UNL A   1     -22.602  -0.990  29.404  0.00  0.00    +0.003 A 
ATOM     15  C   UNL A   1     -23.840  -2.998  29.728  0.00  0.00    +0.003 A 
ATOM     16  C   UNL A   1     -22.674  -2.258  29.874  0.00  0.00    +0.000 A 
ENDBRANCH  10  11
ENDBRANCH   2  10
TORSDOF 3
