MODEL 3456
MODEL 1
REMARK VINA RESULT:    -6.597      0.000      0.000
REMARK INTER + INTRA:          -8.165
REMARK INTER:                  -7.754
REMARK INTRA:                  -0.411
REMARK UNBOUND:                -0.411
REMARK  Name = No_3456-gen_results/8p0m/2024-11-26-14-13-15/
REMARK  3 active torsions:
REMARK  status: ('A' for Active; 'I' for Inactive)
REMARK    1  A    between atoms: C_2  and  O_7
REMARK    2  A    between atoms: C_5  and  C_14
REMARK    3  A    between atoms: O_7  and  C_8
REMARK                            x       y       z     vdW  Elec       q    Type
REMARK                         _______ _______ _______ _____ _____    ______ ____
ROOT
ATOM      1  C   UNL A   1     -24.937  -0.385  27.598  0.00  0.00    +0.044 A 
ATOM      2  C   UNL A   1     -24.176  -0.380  28.538  0.00  0.00    +0.145 A 
ATOM      3  C   UNL A   1     -23.096   0.331  28.688  0.00  0.00    +0.037 A 
ATOM      4  C   UNL A   1     -22.723   1.217  27.632  0.00  0.00    +0.003 A 
ATOM      5  C   UNL A   1     -24.688   0.572  26.537  0.00  0.00    +0.083 A 
ATOM      6  C   UNL A   1     -23.591   1.327  26.603  0.00  0.00    +0.007 A 
ENDROOT
BRANCH   5   7
ATOM      7  C   UNL A   1     -25.663   0.639  25.402  0.00  0.00    +0.388 C 
ATOM      8  O   UNL A   1     -26.216   1.493  25.266  0.00  0.00    -0.241 OA
ATOM      9  O   UNL A   1     -25.730  -0.463  24.724  0.00  0.00    -0.241 OA
ENDBRANCH   5   7
BRANCH   2  10
ATOM     10  O   UNL A   1     -24.452  -1.231  29.651  0.00  0.00    -0.454 OA
BRANCH  10  11
ATOM     11  C   UNL A   1     -24.714  -2.594  29.330  0.00  0.00    +0.145 A 
ATOM     12  C   UNL A   1     -23.893  -3.346  28.838  0.00  0.00    +0.037 A 
ATOM     13  C   UNL A   1     -25.974  -3.104  29.867  0.00  0.00    +0.037 A 
ATOM     14  C   UNL A   1     -26.240  -4.493  29.674  0.00  0.00    +0.003 A 
ATOM     15  C   UNL A   1     -24.095  -4.731  28.669  0.00  0.00    +0.003 A 
ATOM     16  C   UNL A   1     -25.296  -5.277  29.101  0.00  0.00    +0.000 A 
ENDBRANCH  10  11
ENDBRANCH   2  10
TORSDOF 3
ENDMDL
ENDMDL
