MODEL 3457
MODEL 1
REMARK VINA RESULT:    -9.322      0.000      0.000
REMARK INTER + INTRA:         -12.431
REMARK INTER:                 -11.502
REMARK INTRA:                  -0.928
REMARK UNBOUND:                -0.928
REMARK  Name = No_3457-gen_results/8p0m/2024-11-26-14-13-15/
REMARK  4 active torsions:
REMARK  status: ('A' for Active; 'I' for Inactive)
REMARK    1  A    between atoms: C_3  and  C_4
REMARK    2  A    between atoms: C_6  and  C_13
REMARK    3  A    between atoms: N_20  and  C_21
REMARK    4  A    between atoms: C_21  and  C_22
REMARK                            x       y       z     vdW  Elec       q    Type
REMARK                         _______ _______ _______ _____ _____    ______ ____
ROOT
ATOM      1  C   UNL A   1     -24.031   1.142  25.984  0.00  0.00    +0.000 A 
ATOM      2  C   UNL A   1     -23.125   2.151  25.504  0.00  0.00    -0.000 A 
ATOM      3  C   UNL A   1     -21.936   2.349  26.170  0.00  0.00    +0.003 A 
ATOM      4  C   UNL A   1     -21.555   1.835  27.366  0.00  0.00    +0.037 A 
ATOM      5  C   UNL A   1     -23.634   0.571  27.262  0.00  0.00    +0.028 A 
ATOM      6  C   UNL A   1     -22.426   0.917  27.891  0.00  0.00    +0.138 A 
ATOM      7  O   UNL A   1     -22.159   0.306  29.076  0.00  0.00    -0.458 OA
ATOM      8  C   UNL A   1     -23.374   0.007  29.758  0.00  0.00    +0.285 C 
ATOM      9  C   UNL A   1     -24.516  -0.083  28.093  0.00  0.00    +0.105 C 
ATOM     10  N   UNL A   1     -24.316  -0.457  29.280  0.00  0.00    -0.228 NA
ENDROOT
BRANCH   1  13
ATOM     11  C   UNL A   1     -27.570   1.336  25.071  0.00  0.00    +0.004 A 
ATOM     12  C   UNL A   1     -26.512   1.661  25.558  0.00  0.00    -0.000 A 
ATOM     13  C   UNL A   1     -25.384   0.859  25.424  0.00  0.00    -0.000 A 
ATOM     14  C   UNL A   1     -27.734  -0.005  24.489  0.00  0.00    +0.071 A 
ATOM     15  C   UNL A   1     -26.658  -0.825  24.255  0.00  0.00    +0.004 A 
ATOM     16  C   UNL A   1     -25.399  -0.457  24.761  0.00  0.00    -0.000 A 
BRANCH  14  17
ATOM     17  C   UNL A   1     -28.959  -0.599  23.875  0.00  0.00    +0.419 C 
ATOM     18  F   UNL A   1     -28.863  -1.702  23.280  0.00  0.00    -0.166 F 
ATOM     19  F   UNL A   1     -29.428   0.360  23.058  0.00  0.00    -0.166 F 
ATOM     20  F   UNL A   1     -29.847  -0.759  24.902  0.00  0.00    -0.166 F 
ENDBRANCH  14  17
ENDBRANCH   1  13
BRANCH  10  21
ATOM     21  C   UNL A   1     -25.269  -1.214  29.987  0.00  0.00    +0.102 C 
BRANCH  21  22
ATOM     22  C   UNL A   1     -25.306  -2.644  29.689  0.00  0.00    -0.006 A 
ATOM     23  C   UNL A   1     -26.423  -3.395  29.946  0.00  0.00    -0.003 A 
ATOM     24  C   UNL A   1     -26.449  -4.780  29.692  0.00  0.00    -0.000 A 
ATOM     25  C   UNL A   1     -25.294  -5.387  29.122  0.00  0.00    -0.000 A 
ATOM     26  C   UNL A   1     -24.208  -4.623  28.789  0.00  0.00    -0.000 A 
ATOM     27  C   UNL A   1     -24.168  -3.303  29.072  0.00  0.00    -0.003 A 
ENDBRANCH  21  22
ENDBRANCH  10  21
TORSDOF 4
ENDMDL
ENDMDL
