REMARK  Name = No_3457-gen_results/8p0m/2024-11-26-14-13-15/
REMARK  4 active torsions:
REMARK  status: ('A' for Active; 'I' for Inactive)
REMARK    1  A    between atoms: C_3  and  C_4
REMARK    2  A    between atoms: C_6  and  C_13
REMARK    3  A    between atoms: N_20  and  C_21
REMARK    4  A    between atoms: C_21  and  C_22
REMARK                            x       y       z     vdW  Elec       q    Type
REMARK                         _______ _______ _______ _____ _____    ______ ____
ROOT
ATOM      1  C   UNL A   1     -24.546   0.349  28.823  0.00  0.00    +0.000 A 
ATOM      2  C   UNL A   1     -23.241   0.022  29.332  0.00  0.00    -0.000 A 
ATOM      3  C   UNL A   1     -22.165   0.794  28.952  0.00  0.00    +0.003 A 
ATOM      4  C   UNL A   1     -22.124   1.748  27.989  0.00  0.00    +0.037 A 
ATOM      5  C   UNL A   1     -24.523   1.378  27.795  0.00  0.00    +0.028 A 
ATOM      6  C   UNL A   1     -23.339   2.042  27.430  0.00  0.00    +0.138 A 
ATOM      7  O   UNL A   1     -23.447   2.994  26.466  0.00  0.00    -0.458 OA
ATOM      8  C   UNL A   1     -24.505   2.666  25.569  0.00  0.00    +0.285 C 
ATOM      9  C   UNL A   1     -25.550   1.558  26.897  0.00  0.00    +0.105 C 
ATOM     10  N   UNL A   1     -25.554   2.296  25.874  0.00  0.00    -0.228 NA
ENDROOT
BRANCH   1  13
ATOM     11  C   UNL A   1     -28.016  -0.814  28.878  0.00  0.00    +0.004 A 
ATOM     12  C   UNL A   1     -27.064  -0.119  28.608  0.00  0.00    -0.000 A 
ATOM     13  C   UNL A   1     -25.792  -0.430  29.076  0.00  0.00    -0.000 A 
ATOM     14  C   UNL A   1     -27.882  -1.899  29.863  0.00  0.00    +0.071 A 
ATOM     15  C   UNL A   1     -26.653  -2.314  30.314  0.00  0.00    +0.004 A 
ATOM     16  C   UNL A   1     -25.515  -1.561  29.979  0.00  0.00    -0.000 A 
BRANCH  14  17
ATOM     17  C   UNL A   1     -28.937  -2.836  30.349  0.00  0.00    +0.419 C 
ATOM     18  F   UNL A   1     -28.662  -4.059  30.445  0.00  0.00    -0.166 F 
ATOM     19  F   UNL A   1     -29.979  -2.631  29.525  0.00  0.00    -0.166 F 
ATOM     20  F   UNL A   1     -29.282  -2.391  31.595  0.00  0.00    -0.166 F 
ENDBRANCH  14  17
ENDBRANCH   1  13
BRANCH  10  21
ATOM     21  C   UNL A   1     -26.712   2.472  25.094  0.00  0.00    +0.102 C 
BRANCH  21  22
ATOM     22  C   UNL A   1     -27.814   3.191  25.731  0.00  0.00    -0.006 A 
ATOM     23  C   UNL A   1     -29.068   3.201  25.180  0.00  0.00    -0.003 A 
ATOM     24  C   UNL A   1     -30.123   3.921  25.773  0.00  0.00    -0.000 A 
ATOM     25  C   UNL A   1     -29.870   4.618  26.989  0.00  0.00    -0.000 A 
ATOM     26  C   UNL A   1     -28.639   4.541  27.582  0.00  0.00    -0.000 A 
ATOM     27  C   UNL A   1     -27.617   3.885  26.992  0.00  0.00    -0.003 A 
ENDBRANCH  21  22
ENDBRANCH  10  21
TORSDOF 4
