MODEL 3459
MODEL 1
REMARK VINA RESULT:    -4.920      0.000      0.000
REMARK INTER + INTRA:          -5.530
REMARK INTER:                  -5.496
REMARK INTRA:                  -0.034
REMARK UNBOUND:                -0.034
REMARK  Name = No_3459-gen_results/8p0m/2024-11-26-14-13-15/
REMARK  2 active torsions:
REMARK  status: ('A' for Active; 'I' for Inactive)
REMARK    1  A    between atoms: C_1  and  C_2
REMARK    2  A    between atoms: C_1  and  C_8
REMARK                            x       y       z     vdW  Elec       q    Type
REMARK                         _______ _______ _______ _____ _____    ______ ____
ROOT
ATOM      1  C   UNL A   1     -24.549  -2.679  28.994  0.00  0.00    -0.021 A 
ATOM      2  C   UNL A   1     -23.897  -3.816  28.548  0.00  0.00    -0.004 A 
ATOM      3  C   UNL A   1     -24.326  -5.179  28.743  0.00  0.00    -0.000 A 
ATOM      4  C   UNL A   1     -25.316  -5.401  29.138  0.00  0.00    -0.000 A 
ATOM      5  C   UNL A   1     -26.254  -4.412  29.713  0.00  0.00    -0.000 A 
ATOM      6  C   UNL A   1     -25.819  -3.122  29.547  0.00  0.00    -0.004 A 
ENDROOT
BRANCH   1   7
ATOM      7  C   UNL A   1     -24.208  -1.543  28.760  0.00  0.00    +0.047 C 
BRANCH   7   8
ATOM      8  C   UNL A   1     -23.026  -1.068  29.573  0.00  0.00    +0.114 C 
ATOM      9  N   UNL A   1     -21.793  -1.027  28.986  0.00  0.00    -0.131 NA
ENDBRANCH   7   8
ENDBRANCH   1   7
TORSDOF 2
ENDMDL
ENDMDL
