REMARK  Name = No_3459-gen_results/8p0m/2024-11-26-14-13-15/
REMARK  2 active torsions:
REMARK  status: ('A' for Active; 'I' for Inactive)
REMARK    1  A    between atoms: C_1  and  C_2
REMARK    2  A    between atoms: C_1  and  C_8
REMARK                            x       y       z     vdW  Elec       q    Type
REMARK                         _______ _______ _______ _____ _____    ______ ____
ROOT
ATOM      1  C   UNL A   1     -27.064  -0.119  28.608  0.00  0.00    -0.021 A 
ATOM      2  C   UNL A   1     -26.972   0.714  27.506  0.00  0.00    -0.004 A 
ATOM      3  C   UNL A   1     -25.821   1.491  27.116  0.00  0.00    -0.000 A 
ATOM      4  C   UNL A   1     -24.858   1.342  27.601  0.00  0.00    -0.000 A 
ATOM      5  C   UNL A   1     -24.622   0.529  28.814  0.00  0.00    -0.000 A 
ATOM      6  C   UNL A   1     -25.734  -0.181  29.191  0.00  0.00    -0.004 A 
ENDROOT
BRANCH   1   7
ATOM      7  C   UNL A   1     -28.016  -0.814  28.878  0.00  0.00    +0.047 C 
BRANCH   7   8
ATOM      8  C   UNL A   1     -27.960  -1.441  30.252  0.00  0.00    +0.114 C 
ATOM      9  N   UNL A   1     -29.020  -2.188  30.682  0.00  0.00    -0.131 NA
ENDBRANCH   7   8
ENDBRANCH   1   7
TORSDOF 2
