MODEL 345
MODEL 1
REMARK VINA RESULT:    -7.328      0.000      0.000
REMARK INTER + INTRA:          -9.217
REMARK INTER:                  -8.613
REMARK INTRA:                  -0.605
REMARK UNBOUND:                -0.605
REMARK  Name = No_345-gen_results/8p0m/2024-11-26-14-13-15/
REMARK  3 active torsions:
REMARK  status: ('A' for Active; 'I' for Inactive)
REMARK    1  A    between atoms: C_2  and  O_7
REMARK    2  A    between atoms: O_7  and  C_8
REMARK    3  A    between atoms: C_14  and  C_15
REMARK                            x       y       z     vdW  Elec       q    Type
REMARK                         _______ _______ _______ _____ _____    ______ ____
ROOT
ATOM      1  C   UNL A   1     -24.116  -0.481  28.557  0.00  0.00    +0.141 A 
ATOM      2  C   UNL A   1     -22.999   0.118  28.578  0.00  0.00    +0.013 A 
ATOM      3  C   UNL A   1     -22.037  -0.018  29.622  0.00  0.00    +0.034 C 
ATOM      4  C   UNL A   1     -25.110  -0.157  27.530  0.00  0.00    +0.037 A 
ATOM      5  C   UNL A   1     -24.712   0.784  26.586  0.00  0.00    +0.010 A 
ATOM      6  C   UNL A   1     -22.663   1.223  27.610  0.00  0.00    +0.005 A 
ATOM      7  C   UNL A   1     -23.551   1.478  26.626  0.00  0.00    +0.080 A 
ENDROOT
BRANCH   7   8
ATOM      8  C   UNL A   1     -23.251   2.535  25.615  0.00  0.00    +0.388 C 
ATOM      9  O   UNL A   1     -22.398   2.395  24.819  0.00  0.00    -0.241 OA
ATOM     10  O   UNL A   1     -24.057   3.548  25.565  0.00  0.00    -0.241 OA
ENDBRANCH   7   8
BRANCH   1  11
ATOM     11  O   UNL A   1     -24.416  -1.339  29.420  0.00  0.00    -0.454 OA
BRANCH  11  13
ATOM     12  C   UNL A   1     -23.820  -3.445  28.759  0.00  0.00    +0.037 A 
ATOM     13  C   UNL A   1     -24.605  -2.691  29.286  0.00  0.00    +0.145 A 
ATOM     14  C   UNL A   1     -25.811  -3.154  29.802  0.00  0.00    +0.037 A 
ATOM     15  C   UNL A   1     -26.183  -4.540  29.684  0.00  0.00    +0.003 A 
ATOM     16  C   UNL A   1     -25.228  -5.338  29.041  0.00  0.00    +0.000 A 
ATOM     17  C   UNL A   1     -24.110  -4.848  28.555  0.00  0.00    +0.003 A 
ENDBRANCH  11  13
ENDBRANCH   1  11
TORSDOF 3
ENDMDL
ENDMDL
