MODEL 3460
MODEL 1
REMARK VINA RESULT:    -7.697      0.000      0.000
REMARK INTER + INTRA:         -14.979
REMARK INTER:                 -12.197
REMARK INTRA:                  -2.783
REMARK UNBOUND:                -2.783
REMARK  Name = No_3460-gen_results/8p0m/2024-11-26-14-13-15/
REMARK  10 active torsions:
REMARK  status: ('A' for Active; 'I' for Inactive)
REMARK    1  A    between atoms: C_2  and  C_7
REMARK    2  A    between atoms: C_6  and  O_21
REMARK    3  A    between atoms: C_7  and  C_8
REMARK    4  A    between atoms: C_7  and  C_14
REMARK    5  A    between atoms: C_15  and  N_32
REMARK    6  A    between atoms: O_21  and  C_22
REMARK    7  A    between atoms: C_22  and  C_23
REMARK    8  A    between atoms: C_23  and  N_24
REMARK    9  A    between atoms: N_24  and  C_25
REMARK   10  A    between atoms: N_32  and  C_33
REMARK                            x       y       z     vdW  Elec       q    Type
REMARK                         _______ _______ _______ _____ _____    ______ ____
ROOT
ATOM      1  C   UNL A   1     -25.231  -1.397  29.576  0.00  0.00    +0.068 C 
ENDROOT
BRANCH   1   2
ATOM      2  C   UNL A   1     -25.581  -0.566  30.762  0.00  0.00    -0.003 A 
ATOM      3  C   UNL A   1     -26.777   0.021  30.816  0.00  0.00    +0.067 A 
ATOM      4  C   UNL A   1     -27.056   0.838  31.863  0.00  0.00    +0.016 A 
ATOM      5  C   UNL A   1     -24.674  -0.391  31.728  0.00  0.00    -0.024 A 
ATOM      6  C   UNL A   1     -23.270  -1.022  31.661  0.00  0.00    +0.031 C 
ATOM      7  C   UNL A   1     -26.095   1.030  32.891  0.00  0.00    +0.001 A 
ATOM      8  C   UNL A   1     -24.964   0.386  32.816  0.00  0.00    -0.004 A 
BRANCH   3   9
ATOM      9  N   UNL A   1     -27.803  -0.087  29.839  0.00  0.00    -0.212 NA
BRANCH   9  10
ATOM     10  C   UNL A   1     -28.246   0.672  28.892  0.00  0.00    +0.081 C 
ATOM     11  C   UNL A   1     -27.618   1.714  28.544  0.00  0.00    -0.008 C 
ATOM     12  C   UNL A   1     -27.863   2.254  27.553  0.00  0.00    +0.032 C 
ENDBRANCH   9  10
ENDBRANCH   3   9
ENDBRANCH   1   2
BRANCH   1  14
ATOM     13  C   UNL A   1     -25.320  -0.690  27.286  0.00  0.00    +0.033 A 
ATOM     14  C   UNL A   1     -24.860  -0.568  28.397  0.00  0.00    -0.011 A 
ATOM     15  C   UNL A   1     -23.917   0.413  28.681  0.00  0.00    -0.003 A 
ATOM     16  C   UNL A   1     -23.424   1.287  27.647  0.00  0.00    +0.003 A 
ATOM     17  C   UNL A   1     -23.992   1.062  26.387  0.00  0.00    +0.037 A 
ATOM     18  C   UNL A   1     -24.868   0.109  26.168  0.00  0.00    +0.138 A 
BRANCH  18  19
ATOM     19  O   UNL A   1     -25.343  -0.104  24.924  0.00  0.00    -0.474 OA
BRANCH  19  20
ATOM     20  C   UNL A   1     -26.351   0.699  24.409  0.00  0.00    +0.227 C 
BRANCH  20  21
ATOM     21  C   UNL A   1     -27.574   0.122  24.416  0.00  0.00    +0.139 C 
BRANCH  21  22
ATOM     22  N   UNL A   1     -28.505   0.815  23.944  0.00  0.00    -0.302 N 
ATOM     23  C   UNL A   1     -28.314   2.242  23.641  0.00  0.00    +0.112 C 
BRANCH  22  24
ATOM     24  C   UNL A   1     -29.733   0.433  23.682  0.00  0.00    +0.048 A 
ATOM     25  C   UNL A   1     -30.577   1.074  23.293  0.00  0.00    +0.015 A 
ATOM     26  C   UNL A   1     -31.924   0.697  22.813  0.00  0.00    +0.001 A 
ATOM     27  C   UNL A   1     -32.242  -0.616  22.940  0.00  0.00    +0.000 A 
ATOM     28  C   UNL A   1     -31.317  -1.483  23.443  0.00  0.00    +0.001 A 
ATOM     29  C   UNL A   1     -30.020  -1.022  23.818  0.00  0.00    +0.015 A 
ENDBRANCH  22  24
ENDBRANCH  21  22
ENDBRANCH  20  21
ENDBRANCH  19  20
ENDBRANCH  18  19
ENDBRANCH   1  14
BRANCH   1  30
ATOM     30  C   UNL A   1     -25.163  -2.606  29.738  0.00  0.00    -0.014 A 
ATOM     31  C   UNL A   1     -23.963  -3.322  29.120  0.00  0.00    -0.004 A 
ATOM     32  C   UNL A   1     -23.986  -4.398  28.512  0.00  0.00    -0.000 A 
ATOM     33  C   UNL A   1     -25.055  -5.344  28.941  0.00  0.00    -0.000 A 
ATOM     34  C   UNL A   1     -26.114  -4.841  29.648  0.00  0.00    -0.000 A 
ATOM     35  C   UNL A   1     -26.230  -3.482  29.947  0.00  0.00    -0.004 A 
ENDBRANCH   1  30
TORSDOF 10
ENDMDL
ENDMDL
