REMARK  Name = No_3460-gen_results/8p0m/2024-11-26-14-13-15/
REMARK  10 active torsions:
REMARK  status: ('A' for Active; 'I' for Inactive)
REMARK    1  A    between atoms: C_2  and  C_7
REMARK    2  A    between atoms: C_6  and  O_21
REMARK    3  A    between atoms: C_7  and  C_8
REMARK    4  A    between atoms: C_7  and  C_14
REMARK    5  A    between atoms: C_15  and  N_32
REMARK    6  A    between atoms: O_21  and  C_22
REMARK    7  A    between atoms: C_22  and  C_23
REMARK    8  A    between atoms: C_23  and  N_24
REMARK    9  A    between atoms: N_24  and  C_25
REMARK   10  A    between atoms: N_32  and  C_33
REMARK                            x       y       z     vdW  Elec       q    Type
REMARK                         _______ _______ _______ _____ _____    ______ ____
ROOT
ATOM      1  C   UNL A   1     -27.106   1.102  27.759  0.00  0.00    +0.068 C 
ENDROOT
BRANCH   1   2
ATOM      2  C   UNL A   1     -27.553   0.806  26.368  0.00  0.00    -0.003 A 
ATOM      3  C   UNL A   1     -28.838   0.968  26.049  0.00  0.00    +0.067 A 
ATOM      4  C   UNL A   1     -29.249   0.622  24.803  0.00  0.00    +0.016 A 
ATOM      5  C   UNL A   1     -26.667   0.345  25.481  0.00  0.00    -0.024 A 
ATOM      6  C   UNL A   1     -25.188   0.107  25.844  0.00  0.00    +0.031 C 
ATOM      7  C   UNL A   1     -28.312   0.129  23.856  0.00  0.00    +0.001 A 
ATOM      8  C   UNL A   1     -27.058   0.046  24.205  0.00  0.00    -0.004 A 
BRANCH   3   9
ATOM      9  N   UNL A   1     -29.860   1.435  26.918  0.00  0.00    -0.212 NA
BRANCH   9  10
ATOM     10  C   UNL A   1     -31.033   1.014  27.257  0.00  0.00    +0.081 C 
ATOM     11  C   UNL A   1     -31.557   0.012  26.688  0.00  0.00    -0.008 C 
ATOM     12  C   UNL A   1     -32.477  -0.517  27.142  0.00  0.00    +0.032 C 
ENDBRANCH   9  10
ENDBRANCH   3   9
ENDBRANCH   1   2
BRANCH   1  14
ATOM     13  C   UNL A   1     -28.016  -0.814  28.878  0.00  0.00    +0.033 A 
ATOM     14  C   UNL A   1     -27.064  -0.119  28.608  0.00  0.00    -0.011 A 
ATOM     15  C   UNL A   1     -25.792  -0.430  29.076  0.00  0.00    -0.003 A 
ATOM     16  C   UNL A   1     -25.576  -1.565  29.936  0.00  0.00    +0.003 A 
ATOM     17  C   UNL A   1     -26.735  -2.300  30.217  0.00  0.00    +0.037 A 
ATOM     18  C   UNL A   1     -27.918  -1.954  29.763  0.00  0.00    +0.138 A 
BRANCH  18  19
ATOM     19  O   UNL A   1     -29.011  -2.663  30.109  0.00  0.00    -0.474 OA
BRANCH  19  20
ATOM     20  C   UNL A   1     -28.889  -3.972  30.553  0.00  0.00    +0.227 C 
BRANCH  20  21
ATOM     21  C   UNL A   1     -29.890  -4.787  30.152  0.00  0.00    +0.139 C 
BRANCH  21  22
ATOM     22  N   UNL A   1     -31.042  -4.455  30.518  0.00  0.00    -0.302 N 
ATOM     23  C   UNL A   1     -31.246  -3.526  31.641  0.00  0.00    +0.112 C 
BRANCH  22  24
ATOM     24  C   UNL A   1     -32.187  -4.866  30.026  0.00  0.00    +0.048 A 
ATOM     25  C   UNL A   1     -32.678  -4.524  29.069  0.00  0.00    +0.015 A 
ATOM     26  C   UNL A   1     -33.865  -5.050  28.360  0.00  0.00    +0.001 A 
ATOM     27  C   UNL A   1     -34.532  -6.044  28.998  0.00  0.00    +0.000 A 
ATOM     28  C   UNL A   1     -34.059  -6.511  30.189  0.00  0.00    +0.001 A 
ATOM     29  C   UNL A   1     -32.865  -5.973  30.755  0.00  0.00    +0.015 A 
ENDBRANCH  22  24
ENDBRANCH  21  22
ENDBRANCH  20  21
ENDBRANCH  19  20
ENDBRANCH  18  19
ENDBRANCH   1  14
BRANCH   1  30
ATOM     30  C   UNL A   1     -26.716   2.235  27.994  0.00  0.00    -0.014 A 
ATOM     31  C   UNL A   1     -26.069   2.477  29.357  0.00  0.00    -0.004 A 
ATOM     32  C   UNL A   1     -26.262   3.449  30.096  0.00  0.00    -0.000 A 
ATOM     33  C   UNL A   1     -26.604   4.719  29.395  0.00  0.00    -0.000 A 
ATOM     34  C   UNL A   1     -27.047   4.641  28.101  0.00  0.00    -0.000 A 
ATOM     35  C   UNL A   1     -27.210   3.420  27.444  0.00  0.00    -0.004 A 
ENDBRANCH   1  30
TORSDOF 10
