MODEL 3461
MODEL 1
REMARK VINA RESULT:    -8.089      0.000      0.000
REMARK INTER + INTRA:         -13.760
REMARK INTER:                 -12.818
REMARK INTRA:                  -0.942
REMARK UNBOUND:                -0.942
REMARK  Name = No_3461-gen_results/8p0m/2024-11-26-14-13-15/
REMARK  10 active torsions:
REMARK  status: ('A' for Active; 'I' for Inactive)
REMARK    1  A    between atoms: C_1  and  C_2
REMARK    2  A    between atoms: C_1  and  O_8
REMARK    3  A    between atoms: C_5  and  C_10
REMARK    4  A    between atoms: O_8  and  C_14
REMARK    5  A    between atoms: C_14  and  C_15
REMARK    6  A    between atoms: N_17  and  C_18
REMARK    7  A    between atoms: N_17  and  C_19
REMARK    8  A    between atoms: C_18  and  C_30
REMARK    9  A    between atoms: C_19  and  C_20
REMARK   10  A    between atoms: N_22  and  C_24
REMARK                            x       y       z     vdW  Elec       q    Type
REMARK                         _______ _______ _______ _____ _____    ______ ____
ROOT
ATOM      1  C   UNL A   1     -23.083   0.080  30.468  0.00  0.00    +0.271 C 
ATOM      2  O   UNL A   1     -22.678  -0.637  31.353  0.00  0.00    -0.271 OA
ATOM      3  N   UNL A   1     -23.454  -0.508  29.244  0.00  0.00    -0.264 N 
ENDROOT
BRANCH   1   4
ATOM      4  C   UNL A   1     -23.614   1.184  30.830  0.00  0.00    +0.293 C 
BRANCH   4   5
ATOM      5  O   UNL A   1     -24.460   1.319  32.014  0.00  0.00    -0.435 OA
BRANCH   5   6
ATOM      6  C   UNL A   1     -25.402   0.552  32.281  0.00  0.00    +0.342 C 
ATOM      7  O   UNL A   1     -26.396   0.450  31.404  0.00  0.00    -0.245 OA
BRANCH   6   8
ATOM      8  C   UNL A   1     -25.507   0.174  33.425  0.00  0.00    +0.076 A 
ATOM      9  C   UNL A   1     -26.443   0.671  34.311  0.00  0.00    +0.006 A 
ATOM     10  C   UNL A   1     -26.559   0.309  35.711  0.00  0.00    +0.004 A 
ATOM     11  C   UNL A   1     -25.659  -0.641  36.244  0.00  0.00    +0.071 A 
ATOM     12  C   UNL A   1     -24.669  -1.157  35.333  0.00  0.00    +0.004 A 
ATOM     13  C   UNL A   1     -24.555  -0.771  34.018  0.00  0.00    +0.006 A 
BRANCH  11  14
ATOM     14  C   UNL A   1     -25.699  -1.079  37.599  0.00  0.00    +0.419 C 
ATOM     15  F   UNL A   1     -24.891  -0.666  38.292  0.00  0.00    -0.166 F 
ATOM     16  F   UNL A   1     -25.582  -2.510  37.667  0.00  0.00    -0.166 F 
ATOM     17  F   UNL A   1     -26.931  -0.802  38.132  0.00  0.00    -0.166 F 
ENDBRANCH  11  14
ENDBRANCH   6   8
ENDBRANCH   5   6
ENDBRANCH   4   5
ENDBRANCH   1   4
BRANCH   3  18
ATOM     18  C   UNL A   1     -23.125  -1.855  28.905  0.00  0.00    +0.121 C 
BRANCH  18  19
ATOM     19  C   UNL A   1     -24.185  -2.704  29.167  0.00  0.00    -0.002 A 
ATOM     20  C   UNL A   1     -25.338  -2.421  29.708  0.00  0.00    -0.003 A 
ATOM     21  C   UNL A   1     -26.374  -3.401  29.985  0.00  0.00    -0.000 A 
ATOM     22  C   UNL A   1     -26.086  -4.695  29.559  0.00  0.00    -0.000 A 
ATOM     23  C   UNL A   1     -24.897  -5.004  28.944  0.00  0.00    -0.000 A 
ATOM     24  C   UNL A   1     -23.928  -4.035  28.755  0.00  0.00    -0.003 A 
ENDBRANCH  18  19
ENDBRANCH   3  18
BRANCH   3  25
ATOM     25  C   UNL A   1     -24.063   0.293  28.171  0.00  0.00    +0.180 C 
BRANCH  25  26
ATOM     26  C   UNL A   1     -23.219   0.949  27.467  0.00  0.00    +0.250 C 
ATOM     27  O   UNL A   1     -22.163   1.212  27.690  0.00  0.00    -0.273 OA
ATOM     28  N   UNL A   1     -23.686   1.533  26.144  0.00  0.00    -0.256 N 
ATOM     29  C   UNL A   1     -22.858   2.235  25.209  0.00  0.00    +0.120 C 
BRANCH  28  30
ATOM     30  C   UNL A   1     -25.066   1.235  25.761  0.00  0.00    +0.054 A 
ATOM     31  C   UNL A   1     -25.299   0.115  25.034  0.00  0.00    +0.015 A 
ATOM     32  C   UNL A   1     -26.650  -0.100  24.582  0.00  0.00    +0.001 A 
ATOM     33  C   UNL A   1     -27.439   0.813  24.770  0.00  0.00    +0.000 A 
ATOM     34  C   UNL A   1     -27.222   2.005  25.420  0.00  0.00    +0.001 A 
ATOM     35  C   UNL A   1     -25.925   2.241  25.918  0.00  0.00    +0.015 A 
ENDBRANCH  28  30
ENDBRANCH  25  26
ENDBRANCH   3  25
TORSDOF 10
ENDMDL
ENDMDL
