REMARK  Name = No_3461-gen_results/8p0m/2024-11-26-14-13-15/
REMARK  10 active torsions:
REMARK  status: ('A' for Active; 'I' for Inactive)
REMARK    1  A    between atoms: C_1  and  C_2
REMARK    2  A    between atoms: C_1  and  O_8
REMARK    3  A    between atoms: C_5  and  C_10
REMARK    4  A    between atoms: O_8  and  C_14
REMARK    5  A    between atoms: C_14  and  C_15
REMARK    6  A    between atoms: N_17  and  C_18
REMARK    7  A    between atoms: N_17  and  C_19
REMARK    8  A    between atoms: C_18  and  C_30
REMARK    9  A    between atoms: C_19  and  C_20
REMARK   10  A    between atoms: N_22  and  C_24
REMARK                            x       y       z     vdW  Elec       q    Type
REMARK                         _______ _______ _______ _____ _____    ______ ____
ROOT
ATOM      1  C   UNL A   1     -31.489  -0.811  29.035  0.00  0.00    +0.271 C 
ATOM      2  O   UNL A   1     -31.719  -0.162  28.042  0.00  0.00    -0.271 OA
ATOM      3  N   UNL A   1     -32.241  -1.979  29.263  0.00  0.00    -0.264 N 
ENDROOT
BRANCH   1   4
ATOM      4  C   UNL A   1     -30.313  -0.707  29.521  0.00  0.00    +0.293 C 
BRANCH   4   5
ATOM      5  O   UNL A   1     -29.148  -0.319  28.730  0.00  0.00    -0.435 OA
BRANCH   5   6
ATOM      6  C   UNL A   1     -28.016  -0.814  28.878  0.00  0.00    +0.342 C 
ATOM      7  O   UNL A   1     -27.905  -1.921  29.605  0.00  0.00    -0.245 OA
BRANCH   6   8
ATOM      8  C   UNL A   1     -27.064  -0.119  28.608  0.00  0.00    +0.076 A 
ATOM      9  C   UNL A   1     -27.001   0.691  27.491  0.00  0.00    +0.006 A 
ATOM     10  C   UNL A   1     -25.855   1.482  27.083  0.00  0.00    +0.004 A 
ATOM     11  C   UNL A   1     -24.690   1.453  27.881  0.00  0.00    +0.071 A 
ATOM     12  C   UNL A   1     -24.738   0.601  29.042  0.00  0.00    +0.004 A 
ATOM     13  C   UNL A   1     -25.823  -0.169  29.389  0.00  0.00    +0.006 A 
BRANCH  11  14
ATOM     14  C   UNL A   1     -23.519   2.206  27.579  0.00  0.00    +0.419 C 
ATOM     15  F   UNL A   1     -23.601   2.953  26.719  0.00  0.00    -0.166 F 
ATOM     16  F   UNL A   1     -22.434   1.328  27.235  0.00  0.00    -0.166 F 
ATOM     17  F   UNL A   1     -23.095   2.863  28.704  0.00  0.00    -0.166 F 
ENDBRANCH  11  14
ENDBRANCH   6   8
ENDBRANCH   5   6
ENDBRANCH   4   5
ENDBRANCH   1   4
BRANCH   3  18
ATOM     18  C   UNL A   1     -33.429  -2.286  28.533  0.00  0.00    +0.121 C 
BRANCH  18  19
ATOM     19  C   UNL A   1     -34.501  -2.469  29.387  0.00  0.00    -0.002 A 
ATOM     20  C   UNL A   1     -34.742  -1.880  30.526  0.00  0.00    -0.003 A 
ATOM     21  C   UNL A   1     -35.881  -2.180  31.376  0.00  0.00    -0.000 A 
ATOM     22  C   UNL A   1     -36.773  -3.113  30.855  0.00  0.00    -0.000 A 
ATOM     23  C   UNL A   1     -36.562  -3.710  29.635  0.00  0.00    -0.000 A 
ATOM     24  C   UNL A   1     -35.429  -3.420  28.895  0.00  0.00    -0.003 A 
ENDBRANCH  18  19
ENDBRANCH   3  18
BRANCH   3  25
ATOM     25  C   UNL A   1     -31.931  -2.874  30.389  0.00  0.00    +0.180 C 
BRANCH  25  26
ATOM     26  C   UNL A   1     -31.251  -3.908  30.061  0.00  0.00    +0.250 C 
ATOM     27  O   UNL A   1     -31.100  -4.369  29.061  0.00  0.00    -0.273 OA
ATOM     28  N   UNL A   1     -30.574  -4.703  31.164  0.00  0.00    -0.256 N 
ATOM     29  C   UNL A   1     -29.727  -5.842  30.966  0.00  0.00    +0.120 C 
BRANCH  28  30
ATOM     30  C   UNL A   1     -30.713  -4.170  32.519  0.00  0.00    +0.054 A 
ATOM     31  C   UNL A   1     -29.754  -3.327  32.975  0.00  0.00    +0.015 A 
ATOM     32  C   UNL A   1     -29.860  -2.900  34.347  0.00  0.00    +0.001 A 
ATOM     33  C   UNL A   1     -30.722  -3.442  35.022  0.00  0.00    +0.000 A 
ATOM     34  C   UNL A   1     -31.655  -4.370  34.624  0.00  0.00    +0.001 A 
ATOM     35  C   UNL A   1     -31.617  -4.786  33.278  0.00  0.00    +0.015 A 
ENDBRANCH  28  30
ENDBRANCH  25  26
ENDBRANCH   3  25
TORSDOF 10
