MODEL 3462
MODEL 1
REMARK VINA RESULT:    -6.638      0.000      0.000
REMARK INTER + INTRA:         -14.145
REMARK INTER:                  -9.742
REMARK INTRA:                  -4.402
REMARK UNBOUND:                -4.402
REMARK  Name = No_3462-gen_results/8p0m/2024-11-26-14-13-15/
REMARK  8 active torsions:
REMARK  status: ('A' for Active; 'I' for Inactive)
REMARK    1  A    between atoms: C_2  and  C_10
REMARK    2  A    between atoms: C_5  and  C_7
REMARK    3  A    between atoms: C_14  and  C_16
REMARK    4  A    between atoms: N_17  and  C_19
REMARK    5  A    between atoms: C_22  and  C_25
REMARK    6  A    between atoms: C_25  and  O_27
REMARK    7  A    between atoms: O_27  and  C_28
REMARK    8  A    between atoms: C_28  and  C_29
REMARK                            x       y       z     vdW  Elec       q    Type
REMARK                         _______ _______ _______ _____ _____    ______ ____
ROOT
ATOM      1  C   UNL A   1     -29.977 -14.875  12.479  0.00  0.00    +0.269 C 
ATOM      2  N   UNL A   1     -29.677 -13.582  12.817  0.00  0.00    -0.175 NA
ATOM      3  O   UNL A   1     -29.786 -15.759  13.348  0.00  0.00    -0.268 OA
ENDROOT
BRANCH   1   8
ATOM      4  C   UNL A   1     -29.689 -15.959   8.780  0.00  0.00    +0.000 A 
ATOM      5  C   UNL A   1     -30.690 -15.875   8.459  0.00  0.00    +0.000 A 
ATOM      6  C   UNL A   1     -31.841 -15.343   9.279  0.00  0.00    +0.000 A 
ATOM      7  C   UNL A   1     -31.558 -15.025  10.618  0.00  0.00    +0.005 A 
ATOM      8  C   UNL A   1     -30.239 -15.178  11.066  0.00  0.00    +0.055 A 
ATOM      9  C   UNL A   1     -29.223 -15.707  10.197  0.00  0.00    +0.005 A 
BRANCH   4  11
ATOM     10  C   UNL A   1     -28.661 -17.273   6.983  0.00  0.00    +0.000 A 
ATOM     11  C   UNL A   1     -28.485 -16.526   7.918  0.00  0.00    +0.000 A 
ATOM     12  C   UNL A   1     -27.238 -16.215   8.424  0.00  0.00    +0.000 A 
ATOM     13  C   UNL A   1     -26.099 -16.776   7.781  0.00  0.00    +0.007 A 
ATOM     14  C   UNL A   1     -26.337 -17.464   6.641  0.00  0.00    +0.080 A 
ATOM     15  C   UNL A   1     -27.565 -17.678   6.207  0.00  0.00    +0.007 A 
BRANCH  14  16
ATOM     16  C   UNL A   1     -25.140 -18.013   5.971  0.00  0.00    +0.388 C 
ATOM     17  O   UNL A   1     -24.089 -17.564   6.233  0.00  0.00    -0.241 OA
ATOM     18  O   UNL A   1     -25.332 -18.950   5.051  0.00  0.00    -0.241 OA
ENDBRANCH  14  16
ENDBRANCH   4  11
ENDBRANCH   1   8
BRANCH   2  19
ATOM     19  C   UNL A   1     -29.946 -12.428  12.097  0.00  0.00    +0.074 A 
ATOM     20  C   UNL A   1     -31.284 -11.883  12.077  0.00  0.00    +0.017 A 
ATOM     21  C   UNL A   1     -29.037 -12.013  11.097  0.00  0.00    +0.023 A 
ATOM     22  C   UNL A   1     -29.548 -11.085  10.098  0.00  0.00    +0.077 A 
ATOM     23  C   UNL A   1     -30.783 -10.629  10.120  0.00  0.00    +0.006 A 
ATOM     24  C   UNL A   1     -31.671 -11.019  11.105  0.00  0.00    +0.002 A 
BRANCH  22  25
ATOM     25  C   UNL A   1     -28.510 -10.595   9.104  0.00  0.00    +0.342 C 
ATOM     26  O   UNL A   1     -28.307  -9.527   8.882  0.00  0.00    -0.245 OA
BRANCH  25  27
ATOM     27  O   UNL A   1     -27.816 -11.562   8.567  0.00  0.00    -0.440 OA
BRANCH  27  28
ATOM     28  C   UNL A   1     -28.452 -12.399   7.625  0.00  0.00    +0.235 C 
BRANCH  28  29
ATOM     29  C   UNL A   1     -28.038 -12.988   6.792  0.00  0.00    +0.021 A 
ATOM     30  C   UNL A   1     -28.429 -13.508   5.839  0.00  0.00    -0.001 A 
ATOM     31  C   UNL A   1     -27.796 -14.275   4.741  0.00  0.00    -0.000 A 
ATOM     32  C   UNL A   1     -26.411 -14.301   4.806  0.00  0.00    -0.000 A 
ATOM     33  C   UNL A   1     -25.749 -13.661   5.809  0.00  0.00    -0.000 A 
ATOM     34  C   UNL A   1     -26.440 -13.033   6.746  0.00  0.00    -0.001 A 
ENDBRANCH  28  29
ENDBRANCH  27  28
ENDBRANCH  25  27
ENDBRANCH  22  25
ENDBRANCH   2  19
TORSDOF 8
ENDMDL
ENDMDL
