REMARK  Name = No_3462-gen_results/8p0m/2024-11-26-14-13-15/
REMARK  8 active torsions:
REMARK  status: ('A' for Active; 'I' for Inactive)
REMARK    1  A    between atoms: C_2  and  C_10
REMARK    2  A    between atoms: C_5  and  C_7
REMARK    3  A    between atoms: C_14  and  C_16
REMARK    4  A    between atoms: N_17  and  C_19
REMARK    5  A    between atoms: C_22  and  C_25
REMARK    6  A    between atoms: C_25  and  O_27
REMARK    7  A    between atoms: O_27  and  C_28
REMARK    8  A    between atoms: C_28  and  C_29
REMARK                            x       y       z     vdW  Elec       q    Type
REMARK                         _______ _______ _______ _____ _____    ______ ____
ROOT
ATOM      1  C   UNL A   1     -22.118   1.018  28.653  0.00  0.00    +0.269 C 
ATOM      2  N   UNL A   1     -22.275   1.751  27.507  0.00  0.00    -0.175 NA
ATOM      3  O   UNL A   1     -20.951   0.690  28.974  0.00  0.00    -0.268 OA
ENDROOT
BRANCH   1   8
ATOM      4  C   UNL A   1     -25.706  -0.198  29.422  0.00  0.00    +0.000 A 
ATOM      5  C   UNL A   1     -25.560  -0.719  30.328  0.00  0.00    +0.000 A 
ATOM      6  C   UNL A   1     -24.266  -0.804  31.102  0.00  0.00    +0.000 A 
ATOM      7  C   UNL A   1     -23.141  -0.213  30.503  0.00  0.00    +0.005 A 
ATOM      8  C   UNL A   1     -23.316   0.441  29.276  0.00  0.00    +0.055 A 
ATOM      9  C   UNL A   1     -24.597   0.449  28.622  0.00  0.00    +0.005 A 
BRANCH   4  11
ATOM     10  C   UNL A   1     -28.016  -0.814  28.878  0.00  0.00    +0.000 A 
ATOM     11  C   UNL A   1     -27.064  -0.119  28.608  0.00  0.00    +0.000 A 
ATOM     12  C   UNL A   1     -27.001   0.691  27.491  0.00  0.00    +0.000 A 
ATOM     13  C   UNL A   1     -28.137   0.736  26.635  0.00  0.00    +0.007 A 
ATOM     14  C   UNL A   1     -29.236   0.076  27.069  0.00  0.00    +0.080 A 
ATOM     15  C   UNL A   1     -29.218  -0.643  28.175  0.00  0.00    +0.007 A 
BRANCH  14  16
ATOM     16  C   UNL A   1     -30.415   0.159  26.182  0.00  0.00    +0.388 C 
ATOM     17  O   UNL A   1     -31.009   1.167  26.123  0.00  0.00    -0.241 OA
ATOM     18  O   UNL A   1     -30.776  -0.948  25.544  0.00  0.00    -0.241 OA
ENDBRANCH  14  16
ENDBRANCH   4  11
ENDBRANCH   1   8
BRANCH   2  19
ATOM     19  C   UNL A   1     -23.429   2.358  27.035  0.00  0.00    +0.074 A 
ATOM     20  C   UNL A   1     -23.516   2.772  25.653  0.00  0.00    +0.017 A 
ATOM     21  C   UNL A   1     -24.344   2.911  27.959  0.00  0.00    +0.023 A 
ATOM     22  C   UNL A   1     -25.285   3.892  27.436  0.00  0.00    +0.077 A 
ATOM     23  C   UNL A   1     -25.312   4.242  26.167  0.00  0.00    +0.006 A 
ATOM     24  C   UNL A   1     -24.430   3.692  25.256  0.00  0.00    +0.002 A 
BRANCH  22  25
ATOM     25  C   UNL A   1     -26.308   4.384  28.445  0.00  0.00    +0.342 C 
ATOM     26  O   UNL A   1     -26.244   4.214  29.539  0.00  0.00    -0.245 OA
BRANCH  25  27
ATOM     27  O   UNL A   1     -27.260   5.097  27.906  0.00  0.00    -0.440 OA
BRANCH  27  28
ATOM     28  C   UNL A   1     -28.562   4.988  28.440  0.00  0.00    +0.235 C 
BRANCH  28  29
ATOM     29  C   UNL A   1     -28.904   4.712  29.449  0.00  0.00    +0.021 A 
ATOM     30  C   UNL A   1     -29.799   4.160  29.924  0.00  0.00    -0.001 A 
ATOM     31  C   UNL A   1     -30.182   3.805  31.311  0.00  0.00    -0.000 A 
ATOM     32  C   UNL A   1     -29.212   4.111  32.253  0.00  0.00    -0.000 A 
ATOM     33  C   UNL A   1     -28.034   4.683  31.879  0.00  0.00    -0.000 A 
ATOM     34  C   UNL A   1     -27.830   4.975  30.605  0.00  0.00    -0.001 A 
ENDBRANCH  28  29
ENDBRANCH  27  28
ENDBRANCH  25  27
ENDBRANCH  22  25
ENDBRANCH   2  19
TORSDOF 8
