REMARK  Name = No_3463-gen_results/8p0m/2024-11-26-14-13-15/
REMARK  3 active torsions:
REMARK  status: ('A' for Active; 'I' for Inactive)
REMARK    1  A    between atoms: C_6  and  O_12
REMARK    2  A    between atoms: O_12  and  C_13
REMARK    3  A    between atoms: C_19  and  C_20
REMARK                            x       y       z     vdW  Elec       q    Type
REMARK                         _______ _______ _______ _____ _____    ______ ____
ROOT
ATOM      1  O   UNL A   1     -28.991  -2.674  30.110  0.00  0.00    -0.458 OA
ENDROOT
BRANCH   1   7
ATOM      2  C   UNL A   1     -28.016  -0.814  28.878  0.00  0.00    +0.037 A 
ATOM      3  C   UNL A   1     -27.064  -0.119  28.608  0.00  0.00    +0.003 A 
ATOM      4  C   UNL A   1     -25.765  -0.390  29.036  0.00  0.00    +0.001 A 
ATOM      5  C   UNL A   1     -25.530  -1.530  29.901  0.00  0.00    +0.003 A 
ATOM      6  C   UNL A   1     -26.689  -2.289  30.181  0.00  0.00    +0.037 A 
ATOM      7  C   UNL A   1     -27.873  -1.951  29.737  0.00  0.00    +0.145 A 
ATOM      8  C   UNL A   1     -24.549   0.410  28.734  0.00  0.00    +0.011 A 
ATOM      9  C   UNL A   1     -23.331   0.044  29.057  0.00  0.00    +0.058 A 
ATOM     10  C   UNL A   1     -23.211  -1.223  29.798  0.00  0.00    +0.011 A 
ATOM     11  C   UNL A   1     -24.236  -1.957  30.220  0.00  0.00    +0.001 A 
ATOM     12 CL   UNL A   1     -21.916   0.893  28.678  0.00  0.00    -0.082 Cl
ENDBRANCH   1   7
BRANCH   1  13
ATOM     13  C   UNL A   1     -28.870  -3.966  30.553  0.00  0.00    +0.123 C 
ATOM     14  C   UNL A   1     -28.540  -4.273  31.446  0.00  0.00    +0.033 C 
ATOM     15  C   UNL A   1     -29.604  -4.550  32.289  0.00  0.00    -0.002 C 
ATOM     16  C   UNL A   1     -30.500  -5.618  31.936  0.00  0.00    -0.025 C 
ATOM     17  C   UNL A   1     -29.379  -4.862  29.455  0.00  0.00    +0.074 C 
ATOM     18  C   UNL A   1     -30.962  -6.192  30.832  0.00  0.00    +0.036 C 
ATOM     19  C   UNL A   1     -30.435  -5.745  29.638  0.00  0.00    +0.090 C 
BRANCH  19  20
ATOM     20  C   UNL A   1     -30.910  -6.385  28.384  0.00  0.00    +0.242 C 
ATOM     21  O   UNL A   1     -30.896  -5.787  27.303  0.00  0.00    -0.273 OA
ATOM     22  N   UNL A   1     -31.344  -7.683  28.409  0.00  0.00    -0.203 NA
ATOM     23  C   UNL A   1     -31.817  -8.377  27.246  0.00  0.00    +0.139 C 
ENDBRANCH  19  20
ENDBRANCH   1  13
TORSDOF 3
