MODEL 3463
MODEL 1
REMARK VINA RESULT:    -7.418      0.000      0.000
REMARK INTER + INTRA:          -9.186
REMARK INTER:                  -8.719
REMARK INTRA:                  -0.467
REMARK UNBOUND:                -0.467
REMARK  Name = No_3463-gen_results/8p0m/2024-11-26-14-13-15/
REMARK  3 active torsions:
REMARK  status: ('A' for Active; 'I' for Inactive)
REMARK    1  A    between atoms: C_6  and  O_12
REMARK    2  A    between atoms: O_12  and  C_13
REMARK    3  A    between atoms: C_19  and  C_20
REMARK                            x       y       z     vdW  Elec       q    Type
REMARK                         _______ _______ _______ _____ _____    ______ ____
ROOT
ATOM      1  O   UNL A   1     -25.645   1.673  26.573  0.00  0.00    -0.458 OA
ENDROOT
BRANCH   1   7
ATOM      2  C   UNL A   1     -26.827   0.203  25.034  0.00  0.00    +0.037 A 
ATOM      3  C   UNL A   1     -27.788  -0.033  24.339  0.00  0.00    +0.003 A 
ATOM      4  C   UNL A   1     -28.798   0.892  24.078  0.00  0.00    +0.001 A 
ATOM      5  C   UNL A   1     -28.743   2.195  24.712  0.00  0.00    +0.003 A 
ATOM      6  C   UNL A   1     -27.598   2.396  25.517  0.00  0.00    +0.037 A 
ATOM      7  C   UNL A   1     -26.702   1.461  25.708  0.00  0.00    +0.145 A 
ATOM      8  C   UNL A   1     -29.998   0.676  23.227  0.00  0.00    +0.011 A 
ATOM      9  C   UNL A   1     -30.855   1.619  22.914  0.00  0.00    +0.058 A 
ATOM     10  C   UNL A   1     -30.596   2.947  23.495  0.00  0.00    +0.011 A 
ATOM     11  C   UNL A   1     -29.623   3.223  24.358  0.00  0.00    +0.001 A 
ATOM     12 CL   UNL A   1     -32.197   1.431  21.899  0.00  0.00    -0.082 Cl
ENDBRANCH   1   7
BRANCH   1  13
ATOM     13  C   UNL A   1     -24.403   1.162  26.297  0.00  0.00    +0.123 C 
ATOM     14  C   UNL A   1     -23.800   1.410  25.539  0.00  0.00    +0.033 C 
ATOM     15  C   UNL A   1     -22.845   2.323  25.957  0.00  0.00    -0.002 C 
ATOM     16  C   UNL A   1     -21.893   1.913  26.955  0.00  0.00    -0.025 C 
ATOM     17  C   UNL A   1     -24.077   0.173  27.385  0.00  0.00    +0.074 C 
ATOM     18  C   UNL A   1     -21.847   1.083  27.989  0.00  0.00    +0.036 C 
ATOM     19  C   UNL A   1     -22.962   0.300  28.202  0.00  0.00    +0.090 C 
BRANCH  19  20
ATOM     20  C   UNL A   1     -22.933  -0.661  29.335  0.00  0.00    +0.242 C 
ATOM     21  O   UNL A   1     -22.731  -1.867  29.161  0.00  0.00    -0.273 OA
ATOM     22  N   UNL A   1     -23.098  -0.203  30.615  0.00  0.00    -0.203 NA
ATOM     23  C   UNL A   1     -23.082  -1.059  31.765  0.00  0.00    +0.139 C 
ENDBRANCH  19  20
ENDBRANCH   1  13
TORSDOF 3
ENDMDL
ENDMDL
