MODEL 3464
MODEL 1
REMARK VINA RESULT:    -8.254      0.000      0.000
REMARK INTER + INTRA:         -13.567
REMARK INTER:                 -12.114
REMARK INTRA:                  -1.453
REMARK UNBOUND:                -1.453
REMARK  Name = No_3464-gen_results/8p0m/2024-11-26-14-13-15/
REMARK  8 active torsions:
REMARK  status: ('A' for Active; 'I' for Inactive)
REMARK    1  A    between atoms: C_3  and  C_4
REMARK    2  A    between atoms: C_6  and  C_13
REMARK    3  A    between atoms: N_15  and  C_16
REMARK    4  A    between atoms: N_15  and  C_17
REMARK    5  A    between atoms: C_16  and  C_32
REMARK    6  A    between atoms: C_17  and  C_18
REMARK    7  A    between atoms: C_22  and  C_24
REMARK    8  A    between atoms: C_33  and  C_34
REMARK                            x       y       z     vdW  Elec       q    Type
REMARK                         _______ _______ _______ _____ _____    ______ ____
ROOT
ATOM      1  C   UNL A   1      -9.425   1.056  34.849  0.00  0.00    +0.249 C 
ATOM      2  O   UNL A   1      -9.928   1.407  33.811  0.00  0.00    -0.270 OA
ATOM      3  N   UNL A   1     -10.192   0.825  35.931  0.00  0.00    -0.268 N 
ENDROOT
BRANCH   1   7
ATOM      4  C   UNL A   1      -7.944  -1.063  34.599  0.00  0.00    +0.004 A 
ATOM      5  C   UNL A   1      -6.846  -1.561  34.509  0.00  0.00    +0.000 A 
ATOM      6  C   UNL A   1      -5.699  -0.828  34.792  0.00  0.00    +0.000 A 
ATOM      7  C   UNL A   1      -8.081   0.385  34.827  0.00  0.00    +0.054 A 
ATOM      8  C   UNL A   1      -7.028   1.172  35.187  0.00  0.00    +0.004 A 
ATOM      9  C   UNL A   1      -5.755   0.577  35.183  0.00  0.00    +0.000 A 
BRANCH   6  10
ATOM     10  C   UNL A   1      -4.295  -1.322  34.709  0.00  0.00    +0.000 A 
ATOM     11  C   UNL A   1      -3.759  -2.136  33.651  0.00  0.00    +0.000 A 
ATOM     12  C   UNL A   1      -2.442  -2.492  33.703  0.00  0.00    +0.000 A 
ATOM     13  C   UNL A   1      -1.484  -1.974  34.519  0.00  0.00    +0.000 A 
ATOM     14  C   UNL A   1      -3.300  -0.806  35.620  0.00  0.00    +0.000 A 
ATOM     15  C   UNL A   1      -1.954  -1.143  35.511  0.00  0.00    +0.000 A 
ENDBRANCH   6  10
ENDBRANCH   1   7
BRANCH   3  16
ATOM     16  C   UNL A   1     -11.571   1.373  35.966  0.00  0.00    +0.120 C 
BRANCH  16  17
ATOM     17  C   UNL A   1     -11.758   2.545  36.578  0.00  0.00    -0.005 C 
ATOM     18  C   UNL A   1     -12.657   3.147  36.567  0.00  0.00    -0.003 C 
BRANCH  18  19
ATOM     19  C   UNL A   1     -13.882   2.589  36.036  0.00  0.00    -0.000 C 
ATOM     20  C   UNL A   1     -15.014   3.344  36.146  0.00  0.00    -0.000 C 
ENDBRANCH  18  19
ENDBRANCH  16  17
ENDBRANCH   3  16
BRANCH   3  21
ATOM     21  C   UNL A   1      -9.735   0.220  37.153  0.00  0.00    +0.121 C 
BRANCH  21  22
ATOM     22  C   UNL A   1     -10.411  -0.693  37.661  0.00  0.00    -0.002 A 
ATOM     23  C   UNL A   1     -10.757  -1.630  37.045  0.00  0.00    -0.003 A 
ATOM     24  C   UNL A   1     -11.671  -2.673  37.569  0.00  0.00    -0.000 A 
ATOM     25  C   UNL A   1     -12.032  -2.547  38.907  0.00  0.00    +0.004 A 
ATOM     26  C   UNL A   1     -11.637  -1.481  39.648  0.00  0.00    +0.053 A 
ATOM     27  C   UNL A   1     -10.852  -0.521  39.057  0.00  0.00    +0.002 A 
BRANCH  26  28
ATOM     28  C   UNL A   1     -12.050  -1.350  41.051  0.00  0.00    +0.249 C 
ATOM     29  N   UNL A   1     -11.293  -1.794  41.948  0.00  0.00    -0.276 N 
ATOM     30  C   UNL A   1     -10.573  -2.748  41.888  0.00  0.00    +0.094 C 
ATOM     31  C   UNL A   1      -9.694  -3.131  43.054  0.00  0.00    +0.022 C 
ATOM     32  C   UNL A   1     -11.132  -1.053  43.195  0.00  0.00    +0.094 C 
ATOM     33  C   UNL A   1     -10.376  -1.341  44.321  0.00  0.00    +0.022 C 
ATOM     34  C   UNL A   1      -9.594  -2.471  44.155  0.00  0.00    +0.004 C 
ATOM     35  O   UNL A   1     -13.115  -0.729  41.236  0.00  0.00    -0.270 OA
ENDBRANCH  26  28
ENDBRANCH  21  22
ENDBRANCH   3  21
TORSDOF 8
ENDMDL
ENDMDL
