REMARK  Name = No_3464-gen_results/8p0m/2024-11-26-14-13-15/
REMARK  8 active torsions:
REMARK  status: ('A' for Active; 'I' for Inactive)
REMARK    1  A    between atoms: C_3  and  C_4
REMARK    2  A    between atoms: C_6  and  C_13
REMARK    3  A    between atoms: N_15  and  C_16
REMARK    4  A    between atoms: N_15  and  C_17
REMARK    5  A    between atoms: C_16  and  C_32
REMARK    6  A    between atoms: C_17  and  C_18
REMARK    7  A    between atoms: C_22  and  C_24
REMARK    8  A    between atoms: C_33  and  C_34
REMARK                            x       y       z     vdW  Elec       q    Type
REMARK                         _______ _______ _______ _____ _____    ______ ____
ROOT
ATOM      1  C   UNL A   1     -29.062  -2.722  30.296  0.00  0.00    +0.249 C 
ATOM      2  O   UNL A   1     -28.973  -3.925  30.305  0.00  0.00    -0.270 OA
ATOM      3  N   UNL A   1     -29.971  -2.103  31.072  0.00  0.00    -0.268 N 
ENDROOT
BRANCH   1   7
ATOM      4  C   UNL A   1     -28.016  -0.814  28.878  0.00  0.00    +0.004 A 
ATOM      5  C   UNL A   1     -27.064  -0.119  28.608  0.00  0.00    +0.000 A 
ATOM      6  C   UNL A   1     -25.792  -0.430  29.076  0.00  0.00    +0.000 A 
ATOM      7  C   UNL A   1     -27.882  -1.899  29.863  0.00  0.00    +0.054 A 
ATOM      8  C   UNL A   1     -26.671  -2.327  30.321  0.00  0.00    +0.004 A 
ATOM      9  C   UNL A   1     -25.543  -1.585  29.932  0.00  0.00    +0.000 A 
BRANCH   6  10
ATOM     10  C   UNL A   1     -24.546   0.349  28.823  0.00  0.00    +0.000 A 
ATOM     11  C   UNL A   1     -23.241   0.022  29.332  0.00  0.00    +0.000 A 
ATOM     12  C   UNL A   1     -22.188   0.822  28.993  0.00  0.00    +0.000 A 
ATOM     13  C   UNL A   1     -22.162   1.777  28.024  0.00  0.00    +0.000 A 
ATOM     14  C   UNL A   1     -24.548   1.398  27.831  0.00  0.00    +0.000 A 
ATOM     15  C   UNL A   1     -23.387   2.076  27.471  0.00  0.00    +0.000 A 
ENDBRANCH   6  10
ENDBRANCH   1   7
BRANCH   3  16
ATOM     16  C   UNL A   1     -31.105  -2.889  31.620  0.00  0.00    +0.120 C 
BRANCH  16  17
ATOM     17  C   UNL A   1     -32.111  -3.187  30.794  0.00  0.00    -0.005 C 
ATOM     18  C   UNL A   1     -32.842  -3.975  30.918  0.00  0.00    -0.003 C 
BRANCH  18  19
ATOM     19  C   UNL A   1     -32.927  -4.674  32.182  0.00  0.00    -0.000 C 
ATOM     20  C   UNL A   1     -31.922  -4.464  33.083  0.00  0.00    -0.000 C 
ENDBRANCH  18  19
ENDBRANCH  16  17
ENDBRANCH   3  16
BRANCH   3  21
ATOM     21  C   UNL A   1     -30.038  -0.683  31.293  0.00  0.00    +0.121 C 
BRANCH  21  22
ATOM     22  C   UNL A   1     -30.732   0.011  30.528  0.00  0.00    -0.002 A 
ATOM     23  C   UNL A   1     -31.560   0.741  30.926  0.00  0.00    -0.003 A 
ATOM     24  C   UNL A   1     -32.496   1.485  30.050  0.00  0.00    -0.000 A 
ATOM     25  C   UNL A   1     -32.276   1.361  28.681  0.00  0.00    +0.004 A 
ATOM     26  C   UNL A   1     -31.317   0.535  28.192  0.00  0.00    +0.053 A 
ATOM     27  C   UNL A   1     -30.545  -0.177  29.078  0.00  0.00    +0.002 A 
BRANCH  26  28
ATOM     28  C   UNL A   1     -31.116   0.396  26.744  0.00  0.00    +0.249 C 
ATOM     29  N   UNL A   1     -30.123   0.951  26.215  0.00  0.00    -0.276 N 
ATOM     30  C   UNL A   1     -29.607   1.982  26.537  0.00  0.00    +0.094 C 
ATOM     31  C   UNL A   1     -28.389   2.498  25.812  0.00  0.00    +0.022 C 
ATOM     32  C   UNL A   1     -29.390   0.270  25.153  0.00  0.00    +0.094 C 
ATOM     33  C   UNL A   1     -28.288   0.677  24.417  0.00  0.00    +0.022 C 
ATOM     34  C   UNL A   1     -27.779   1.886  24.857  0.00  0.00    +0.004 C 
ATOM     35  O   UNL A   1     -31.936  -0.342  26.163  0.00  0.00    -0.270 OA
ENDBRANCH  26  28
ENDBRANCH  21  22
ENDBRANCH   3  21
TORSDOF 8
