MODEL 3465
MODEL 1
REMARK VINA RESULT:    -4.776      0.000      0.000
REMARK INTER + INTRA:          -5.085
REMARK INTER:                  -5.055
REMARK INTRA:                  -0.030
REMARK UNBOUND:                -0.030
REMARK  Name = No_3465-gen_results/8p0m/2024-11-26-14-13-15/
REMARK  1 active torsions:
REMARK  status: ('A' for Active; 'I' for Inactive)
REMARK    1  A    between atoms: C_2  and  O_8
REMARK                            x       y       z     vdW  Elec       q    Type
REMARK                         _______ _______ _______ _____ _____    ______ ____
ROOT
ATOM      1  C   UNL A   1     -25.086  -2.623  29.557  0.00  0.00    +0.044 A 
ATOM      2  C   UNL A   1     -24.242  -3.085  29.126  0.00  0.00    +0.139 A 
ATOM      3  C   UNL A   1     -26.205  -3.434  29.846  0.00  0.00    +0.038 A 
ATOM      4  C   UNL A   1     -26.219  -4.787  29.569  0.00  0.00    +0.007 A 
ATOM      5  C   UNL A   1     -23.998  -4.489  28.739  0.00  0.00    +0.037 A 
ATOM      6  C   UNL A   1     -25.047  -5.300  28.998  0.00  0.00    +0.004 A 
ATOM      7 BR   UNL A   1     -27.770  -2.740  30.665  0.00  0.00    -0.049 Br
ENDROOT
BRANCH   2   8
ATOM      8  O   UNL A   1     -23.040  -2.299  28.869  0.00  0.00    -0.471 OA
ATOM      9  C   UNL A   1     -22.997  -0.967  28.879  0.00  0.00    +0.253 C 
ENDBRANCH   2   8
TORSDOF 1
ENDMDL
ENDMDL
