REMARK  Name = No_3465-gen_results/8p0m/2024-11-26-14-13-15/
REMARK  1 active torsions:
REMARK  status: ('A' for Active; 'I' for Inactive)
REMARK    1  A    between atoms: C_2  and  O_8
REMARK                            x       y       z     vdW  Elec       q    Type
REMARK                         _______ _______ _______ _____ _____    ______ ____
ROOT
ATOM      1  C   UNL A   1     -28.016  -0.814  28.878  0.00  0.00    +0.044 A 
ATOM      2  C   UNL A   1     -28.469  -0.785  29.829  0.00  0.00    +0.139 A 
ATOM      3  C   UNL A   1     -27.136   0.236  28.535  0.00  0.00    +0.038 A 
ATOM      4  C   UNL A   1     -26.875   1.282  29.398  0.00  0.00    +0.007 A 
ATOM      5  C   UNL A   1     -28.361   0.199  30.924  0.00  0.00    +0.037 A 
ATOM      6  C   UNL A   1     -27.528   1.223  30.636  0.00  0.00    +0.004 A 
ATOM      7 BR   UNL A   1     -26.218   0.282  26.875  0.00  0.00    -0.049 Br
ENDROOT
BRANCH   2   8
ATOM      8  O   UNL A   1     -29.335  -1.881  30.251  0.00  0.00    -0.471 OA
ATOM      9  C   UNL A   1     -29.656  -2.140  31.519  0.00  0.00    +0.253 C 
ENDBRANCH   2   8
TORSDOF 1
