MODEL 3466
MODEL 1
REMARK VINA RESULT:    -5.332      0.000      0.000
REMARK INTER + INTRA:          -6.340
REMARK INTER:                  -5.956
REMARK INTRA:                  -0.384
REMARK UNBOUND:                -0.384
REMARK  Name = No_3466-gen_results/8p0m/2024-11-26-14-13-15/
REMARK  2 active torsions:
REMARK  status: ('A' for Active; 'I' for Inactive)
REMARK    1  A    between atoms: C_2  and  C_7
REMARK    2  A    between atoms: C_7  and  C_8
REMARK                            x       y       z     vdW  Elec       q    Type
REMARK                         _______ _______ _______ _____ _____    ______ ____
ROOT
ATOM      1  C   UNL A   1     -25.802  -2.906  29.581  0.00  0.00    -0.004 A 
ATOM      2  C   UNL A   1     -24.756  -2.692  29.013  0.00  0.00    -0.018 A 
ATOM      3  C   UNL A   1     -23.934  -3.666  28.545  0.00  0.00    -0.004 A 
ATOM      4  C   UNL A   1     -24.316  -5.009  28.730  0.00  0.00    -0.000 A 
ATOM      5  C   UNL A   1     -26.301  -4.251  29.719  0.00  0.00    -0.000 A 
ATOM      6  C   UNL A   1     -25.499  -5.267  29.292  0.00  0.00    -0.000 A 
ENDROOT
BRANCH   2   7
ATOM      7  C   UNL A   1     -24.244  -1.287  28.747  0.00  0.00    +0.052 C 
BRANCH   7   8
ATOM      8  C   UNL A   1     -22.826  -1.059  28.946  0.00  0.00    -0.026 C 
ATOM      9  C   UNL A   1     -22.457  -0.491  30.171  0.00  0.00    -0.030 C 
ATOM     10  C   UNL A   1     -23.022  -0.462  31.225  0.00  0.00    +0.030 C 
ENDBRANCH   7   8
ENDBRANCH   2   7
TORSDOF 2
ENDMDL
ENDMDL
