MODEL 3467
MODEL 1
REMARK VINA RESULT:    -5.390      0.000      0.000
REMARK INTER + INTRA:          -6.276
REMARK INTER:                  -6.021
REMARK INTRA:                  -0.256
REMARK UNBOUND:                -0.256
REMARK  Name = No_3467-gen_results/8p0m/2024-11-26-14-13-15/
REMARK  2 active torsions:
REMARK  status: ('A' for Active; 'I' for Inactive)
REMARK    1  A    between atoms: C_3  and  C_4
REMARK    2  A    between atoms: C_4  and  C_8
REMARK                            x       y       z     vdW  Elec       q    Type
REMARK                         _______ _______ _______ _____ _____    ______ ____
ROOT
ATOM      1  C   UNL A   1     -24.979  -5.071  29.205  0.00  0.00    -0.000 A 
ATOM      2  C   UNL A   1     -24.149  -4.236  28.930  0.00  0.00    -0.004 A 
ATOM      3  C   UNL A   1     -24.360  -2.891  29.217  0.00  0.00    -0.018 A 
ATOM      4  C   UNL A   1     -26.320  -4.660  29.628  0.00  0.00    -0.000 A 
ATOM      5  C   UNL A   1     -26.588  -3.374  30.026  0.00  0.00    -0.000 A 
ATOM      6  C   UNL A   1     -25.591  -2.420  29.811  0.00  0.00    -0.004 A 
ENDROOT
BRANCH   3   7
ATOM      7  C   UNL A   1     -23.389  -1.883  28.982  0.00  0.00    +0.052 C 
BRANCH   7   8
ATOM      8  C   UNL A   1     -23.658  -0.561  28.660  0.00  0.00    -0.026 C 
ATOM      9  C   UNL A   1     -22.634   0.341  28.391  0.00  0.00    -0.030 C 
ATOM     10  C   UNL A   1     -21.252  -0.059  28.695  0.00  0.00    +0.030 C 
ENDBRANCH   7   8
ENDBRANCH   3   7
TORSDOF 2
ENDMDL
ENDMDL
