MODEL 3468
MODEL 1
REMARK VINA RESULT:    -8.209      0.000      0.000
REMARK INTER + INTRA:         -10.941
REMARK INTER:                 -10.129
REMARK INTRA:                  -0.812
REMARK UNBOUND:                -0.812
REMARK  Name = No_3468-gen_results/8p0m/2024-11-26-14-13-15/
REMARK  4 active torsions:
REMARK  status: ('A' for Active; 'I' for Inactive)
REMARK    1  A    between atoms: C_2  and  C_11
REMARK    2  A    between atoms: C_3  and  C_7
REMARK    3  A    between atoms: N_13  and  C_14
REMARK    4  A    between atoms: C_19  and  C_20
REMARK                            x       y       z     vdW  Elec       q    Type
REMARK                         _______ _______ _______ _____ _____    ______ ____
ROOT
ATOM      1  C   UNL A   1     -25.541   0.208  25.389  0.00  0.00    +0.269 C 
ATOM      2  O   UNL A   1     -24.670   0.066  24.608  0.00  0.00    -0.268 OA
ATOM      3  N   UNL A   1     -25.177   0.617  26.625  0.00  0.00    -0.175 NA
ENDROOT
BRANCH   1   5
ATOM      4  C   UNL A   1     -27.661  -0.343  24.522  0.00  0.00    +0.008 A 
ATOM      5  C   UNL A   1     -27.084   0.425  24.956  0.00  0.00    +0.055 A 
ATOM      6  C   UNL A   1     -28.979  -0.031  24.123  0.00  0.00    +0.072 A 
ATOM      7  C   UNL A   1     -29.411   1.035  24.142  0.00  0.00    +0.004 A 
ATOM      8  C   UNL A   1     -27.411   1.842  25.116  0.00  0.00    +0.005 A 
ATOM      9  C   UNL A   1     -28.660   2.140  24.682  0.00  0.00    +0.000 A 
BRANCH   6  10
ATOM     10  C   UNL A   1     -29.832  -1.164  23.487  0.00  0.00    +0.419 C 
ATOM     11  F   UNL A   1     -30.866  -0.781  23.001  0.00  0.00    -0.166 F 
ATOM     12  F   UNL A   1     -30.197  -2.138  24.434  0.00  0.00    -0.166 F 
ATOM     13  F   UNL A   1     -29.065  -1.956  22.613  0.00  0.00    -0.166 F 
ENDBRANCH   6  10
ENDBRANCH   1   5
BRANCH   3  14
ATOM     14  C   UNL A   1     -23.820   0.480  27.071  0.00  0.00    +0.074 A 
ATOM     15  C   UNL A   1     -22.920   1.499  26.728  0.00  0.00    +0.017 A 
ATOM     16  C   UNL A   1     -22.019   1.847  27.399  0.00  0.00    +0.001 A 
ATOM     17  C   UNL A   1     -21.533   0.983  28.567  0.00  0.00    +0.000 A 
ATOM     18  C   UNL A   1     -22.391  -0.070  28.929  0.00  0.00    +0.001 A 
ATOM     19  C   UNL A   1     -23.649  -0.285  28.245  0.00  0.00    +0.015 A 
BRANCH  19  20
ATOM     20  C   UNL A   1     -24.552  -1.304  28.680  0.00  0.00    +0.002 A 
ATOM     21  C   UNL A   1     -24.340  -2.579  28.576  0.00  0.00    +0.011 A 
ATOM     22  C   UNL A   1     -25.240  -3.529  29.102  0.00  0.00    +0.058 A 
ATOM     23  C   UNL A   1     -26.389  -3.136  29.741  0.00  0.00    +0.011 A 
ATOM     24  C   UNL A   1     -26.670  -1.755  29.863  0.00  0.00    +0.001 A 
ATOM     25  C   UNL A   1     -25.753  -0.843  29.375  0.00  0.00    +0.000 A 
ATOM     26 CL   UNL A   1     -24.972  -5.242  28.982  0.00  0.00    -0.082 Cl
ENDBRANCH  19  20
ENDBRANCH   3  14
TORSDOF 4
ENDMDL
ENDMDL
