REMARK  Name = No_3468-gen_results/8p0m/2024-11-26-14-13-15/
REMARK  4 active torsions:
REMARK  status: ('A' for Active; 'I' for Inactive)
REMARK    1  A    between atoms: C_2  and  C_11
REMARK    2  A    between atoms: C_3  and  C_7
REMARK    3  A    between atoms: N_13  and  C_14
REMARK    4  A    between atoms: C_19  and  C_20
REMARK                            x       y       z     vdW  Elec       q    Type
REMARK                         _______ _______ _______ _____ _____    ______ ____
ROOT
ATOM      1  C   UNL A   1     -29.440  -1.964  30.361  0.00  0.00    +0.269 C 
ATOM      2  O   UNL A   1     -29.125  -3.100  30.365  0.00  0.00    -0.268 OA
ATOM      3  N   UNL A   1     -30.442  -1.617  31.199  0.00  0.00    -0.175 NA
ENDROOT
BRANCH   1   5
ATOM      4  C   UNL A   1     -28.016  -0.814  28.878  0.00  0.00    +0.008 A 
ATOM      5  C   UNL A   1     -28.469  -0.785  29.829  0.00  0.00    +0.055 A 
ATOM      6  C   UNL A   1     -27.136   0.236  28.535  0.00  0.00    +0.072 A 
ATOM      7  C   UNL A   1     -26.805   1.051  29.276  0.00  0.00    +0.004 A 
ATOM      8  C   UNL A   1     -28.237   0.150  30.930  0.00  0.00    +0.005 A 
ATOM      9  C   UNL A   1     -27.352   1.124  30.607  0.00  0.00    +0.000 A 
BRANCH   6  10
ATOM     10  C   UNL A   1     -26.471   0.196  27.131  0.00  0.00    +0.419 C 
ATOM     11  F   UNL A   1     -25.541  -0.566  27.055  0.00  0.00    -0.166 F 
ATOM     12  F   UNL A   1     -25.963   1.452  26.757  0.00  0.00    -0.166 F 
ATOM     13  F   UNL A   1     -27.427   0.012  26.115  0.00  0.00    -0.166 F 
ENDBRANCH   6  10
ENDBRANCH   1   5
BRANCH   3  14
ATOM     14  C   UNL A   1     -31.329  -2.611  31.731  0.00  0.00    +0.074 A 
ATOM     15  C   UNL A   1     -32.265  -3.179  30.854  0.00  0.00    +0.017 A 
ATOM     16  C   UNL A   1     -32.645  -4.290  30.913  0.00  0.00    +0.001 A 
ATOM     17  C   UNL A   1     -32.412  -5.132  32.171  0.00  0.00    +0.000 A 
ATOM     18  C   UNL A   1     -31.502  -4.588  33.094  0.00  0.00    +0.001 A 
ATOM     19  C   UNL A   1     -30.829  -3.332  32.837  0.00  0.00    +0.015 A 
BRANCH  19  20
ATOM     20  C   UNL A   1     -29.841  -2.834  33.741  0.00  0.00    +0.002 A 
ATOM     21  C   UNL A   1     -29.116  -1.777  33.543  0.00  0.00    +0.011 A 
ATOM     22  C   UNL A   1     -28.217  -1.296  34.517  0.00  0.00    +0.058 A 
ATOM     23  C   UNL A   1     -28.067  -1.941  35.719  0.00  0.00    +0.011 A 
ATOM     24  C   UNL A   1     -28.825  -3.108  35.973  0.00  0.00    +0.001 A 
ATOM     25  C   UNL A   1     -29.728  -3.536  35.019  0.00  0.00    +0.000 A 
ATOM     26 CL   UNL A   1     -27.243   0.122  34.276  0.00  0.00    -0.082 Cl
ENDBRANCH  19  20
ENDBRANCH   3  14
TORSDOF 4
