MODEL 3469
MODEL 1
REMARK VINA RESULT:    -6.877      0.000      0.000
REMARK INTER + INTRA:          -8.684
REMARK INTER:                  -8.083
REMARK INTRA:                  -0.601
REMARK UNBOUND:                -0.601
REMARK  Name = No_3469-gen_results/8p0m/2024-11-26-14-13-15/
REMARK  3 active torsions:
REMARK  status: ('A' for Active; 'I' for Inactive)
REMARK    1  A    between atoms: C_2  and  C_17
REMARK    2  A    between atoms: C_3  and  C_7
REMARK    3  A    between atoms: C_8  and  C_13
REMARK                            x       y       z     vdW  Elec       q    Type
REMARK                         _______ _______ _______ _____ _____    ______ ____
ROOT
ATOM      1  C   UNL A   1     -23.142   1.062  27.649  0.00  0.00    +0.018 A 
ATOM      2  C   UNL A   1     -23.465   0.052  28.231  0.00  0.00    +0.081 A 
ATOM      3  C   UNL A   1     -24.503  -0.780  27.813  0.00  0.00    +0.007 A 
ATOM      4  C   UNL A   1     -25.287  -0.403  26.653  0.00  0.00    +0.001 A 
ATOM      5  C   UNL A   1     -24.892   0.778  26.025  0.00  0.00    +0.011 A 
ATOM      6  C   UNL A   1     -23.903   1.512  26.496  0.00  0.00    +0.058 A 
ATOM      7 CL   UNL A   1     -23.476   2.959  25.680  0.00  0.00    -0.082 Cl
ENDROOT
BRANCH   3   8
ATOM      8  C   UNL A   1     -24.953  -2.040  28.472  0.00  0.00    +0.007 A 
ATOM      9  C   UNL A   1     -25.999  -2.069  29.333  0.00  0.00    +0.080 A 
ATOM     10  C   UNL A   1     -26.372  -3.258  29.968  0.00  0.00    +0.007 A 
ATOM     11  C   UNL A   1     -25.690  -4.491  29.706  0.00  0.00    +0.000 A 
ATOM     12  C   UNL A   1     -24.312  -3.291  28.311  0.00  0.00    +0.000 A 
ATOM     13  C   UNL A   1     -24.666  -4.442  28.910  0.00  0.00    +0.000 A 
BRANCH   9  14
ATOM     14  C   UNL A   1     -26.840  -0.845  29.579  0.00  0.00    +0.388 C 
ATOM     15  O   UNL A   1     -27.832  -0.775  29.010  0.00  0.00    -0.241 OA
ATOM     16  O   UNL A   1     -26.390   0.042  30.464  0.00  0.00    -0.241 OA
ENDBRANCH   9  14
ENDBRANCH   3   8
BRANCH   2  17
ATOM     17  C   UNL A   1     -22.679  -0.429  29.453  0.00  0.00    +0.388 C 
ATOM     18  O   UNL A   1     -23.027  -0.230  30.577  0.00  0.00    -0.241 OA
ATOM     19  O   UNL A   1     -21.548  -1.139  29.226  0.00  0.00    -0.241 OA
ENDBRANCH   2  17
TORSDOF 3
ENDMDL
ENDMDL
