REMARK  Name = No_3469-gen_results/8p0m/2024-11-26-14-13-15/
REMARK  3 active torsions:
REMARK  status: ('A' for Active; 'I' for Inactive)
REMARK    1  A    between atoms: C_2  and  C_17
REMARK    2  A    between atoms: C_3  and  C_7
REMARK    3  A    between atoms: C_8  and  C_13
REMARK                            x       y       z     vdW  Elec       q    Type
REMARK                         _______ _______ _______ _____ _____    ______ ____
ROOT
ATOM      1  C   UNL A   1     -28.016  -0.814  28.878  0.00  0.00    +0.018 A 
ATOM      2  C   UNL A   1     -27.064  -0.119  28.608  0.00  0.00    +0.081 A 
ATOM      3  C   UNL A   1     -25.765  -0.390  29.036  0.00  0.00    +0.007 A 
ATOM      4  C   UNL A   1     -25.530  -1.530  29.901  0.00  0.00    +0.001 A 
ATOM      5  C   UNL A   1     -26.658  -2.292  30.203  0.00  0.00    +0.011 A 
ATOM      6  C   UNL A   1     -27.855  -1.956  29.763  0.00  0.00    +0.058 A 
ATOM      7 CL   UNL A   1     -29.203  -2.932  30.181  0.00  0.00    -0.082 Cl
ENDROOT
BRANCH   3   8
ATOM      8  C   UNL A   1     -24.544   0.413  28.738  0.00  0.00    +0.007 A 
ATOM      9  C   UNL A   1     -24.095   1.379  29.575  0.00  0.00    +0.080 A 
ATOM     10  C   UNL A   1     -22.971   2.145  29.249  0.00  0.00    +0.007 A 
ATOM     11  C   UNL A   1     -22.234   1.913  28.042  0.00  0.00    +0.000 A 
ATOM     12  C   UNL A   1     -23.783   0.287  27.552  0.00  0.00    +0.000 A 
ATOM     13  C   UNL A   1     -22.697   1.012  27.231  0.00  0.00    +0.000 A 
BRANCH   9  14
ATOM     14  C   UNL A   1     -24.743   1.613  30.914  0.00  0.00    +0.388 C 
ATOM     15  O   UNL A   1     -25.865   1.848  30.911  0.00  0.00    -0.241 OA
ATOM     16  O   UNL A   1     -23.979   1.492  31.997  0.00  0.00    -0.241 OA
ENDBRANCH   9  14
ENDBRANCH   3   8
BRANCH   2  17
ATOM     17  C   UNL A   1     -27.220   1.092  27.685  0.00  0.00    +0.388 C 
ATOM     18  O   UNL A   1     -27.462   1.001  26.520  0.00  0.00    -0.241 OA
ATOM     19  O   UNL A   1     -27.101   2.320  28.243  0.00  0.00    -0.241 OA
ENDBRANCH   2  17
TORSDOF 3
