MODEL 346
MODEL 1
REMARK VINA RESULT:    -4.186      0.000      0.000
REMARK INTER + INTRA:          -4.186
REMARK INTER:                  -4.186
REMARK INTRA:                   0.000
REMARK UNBOUND:                 0.000
REMARK  Name = No_346-gen_results/8p0m/2024-11-26-14-13-15/
REMARK  0 active torsions:
REMARK  status: ('A' for Active; 'I' for Inactive)
REMARK                            x       y       z     vdW  Elec       q    Type
REMARK                         _______ _______ _______ _____ _____    ______ ____
ROOT
ATOM      1  C   UNL A   1     -24.952  -5.278  28.946  0.00  0.00    +0.000 A 
ATOM      2  C   UNL A   1     -24.217  -4.558  28.717  0.00  0.00    +0.000 A 
ATOM      3  C   UNL A   1     -26.101  -4.732  29.668  0.00  0.00    +0.000 A 
ATOM      4  C   UNL A   1     -26.198  -3.400  29.986  0.00  0.00    +0.000 A 
ATOM      5  C   UNL A   1     -24.055  -3.118  28.919  0.00  0.00    +0.000 A 
ATOM      6  C   UNL A   1     -25.163  -2.580  29.616  0.00  0.00    +0.000 A 
ENDROOT
TORSDOF 0
ENDMDL
ENDMDL
