REMARK  Name = No_347-gen_results/8p0m/2024-11-26-14-13-15/
REMARK  2 active torsions:
REMARK  status: ('A' for Active; 'I' for Inactive)
REMARK    1  A    between atoms: C_5  and  C_16
REMARK    2  A    between atoms: N_17  and  C_19
REMARK                            x       y       z     vdW  Elec       q    Type
REMARK                         _______ _______ _______ _____ _____    ______ ____
ROOT
ATOM      1  C   UNL A   1     -28.016  -0.814  28.878  0.00  0.00    +0.003 A 
ATOM      2  C   UNL A   1     -27.064  -0.119  28.608  0.00  0.00    +0.036 A 
ATOM      3  C   UNL A   1     -26.972   0.714  27.506  0.00  0.00    -0.011 A 
ATOM      4  C   UNL A   1     -28.105   0.774  26.642  0.00  0.00    +0.001 A 
ATOM      5  C   UNL A   1     -29.204   0.118  27.048  0.00  0.00    +0.055 A 
ATOM      6  C   UNL A   1     -29.213  -0.609  28.128  0.00  0.00    +0.005 A 
ATOM      7  C   UNL A   1     -25.711   1.452  27.138  0.00  0.00    +0.073 C 
ATOM      8  C   UNL A   1     -24.605   0.925  27.690  0.00  0.00    +0.023 A 
ATOM      9  C   UNL A   1     -24.623   0.060  28.823  0.00  0.00    +0.038 A 
ATOM     10  C   UNL A   1     -25.727  -0.473  29.241  0.00  0.00    +0.195 C 
ATOM     11  C   UNL A   1     -23.273   1.679  27.428  0.00  0.00    +0.142 A 
ATOM     12  C   UNL A   1     -22.436   2.037  28.328  0.00  0.00    +0.037 A 
ATOM     13  C   UNL A   1     -22.309   0.964  29.372  0.00  0.00    +0.003 A 
ATOM     14  C   UNL A   1     -23.418   0.048  29.723  0.00  0.00    +0.003 A 
ATOM     15  O   UNL A   1     -25.723  -1.405  30.127  0.00  0.00    -0.287 OA
ATOM     16  C   UNL A   1     -25.789   2.358  26.026  0.00  0.00    +0.023 C 
ATOM     17  O   UNL A   1     -23.152   2.424  26.279  0.00  0.00    -0.451 OA
ATOM     18  C   UNL A   1     -24.403   2.801  25.633  0.00  0.00    +0.176 C 
ENDROOT
BRANCH   5  19
ATOM     19  C   UNL A   1     -30.440   0.305  26.237  0.00  0.00    +0.269 C 
ATOM     20  N   UNL A   1     -31.526   0.111  26.624  0.00  0.00    -0.175 NA
ATOM     21  O   UNL A   1     -30.253   0.399  24.936  0.00  0.00    -0.268 OA
BRANCH  20  22
ATOM     22  C   UNL A   1     -32.565   0.105  26.239  0.00  0.00    +0.074 A 
ATOM     23  C   UNL A   1     -33.748  -0.147  26.826  0.00  0.00    +0.017 A 
ATOM     24  C   UNL A   1     -34.940  -0.168  26.349  0.00  0.00    +0.001 A 
ATOM     25  C   UNL A   1     -35.093   0.048  24.915  0.00  0.00    +0.000 A 
ATOM     26  C   UNL A   1     -33.941   0.262  24.154  0.00  0.00    +0.001 A 
ATOM     27  C   UNL A   1     -32.748   0.301  24.735  0.00  0.00    +0.017 A 
ENDBRANCH  20  22
ENDBRANCH   5  19
TORSDOF 2
