MODEL 3470
MODEL 1
REMARK VINA RESULT:    -4.290      0.000      0.000
REMARK INTER + INTRA:          -4.290
REMARK INTER:                  -4.290
REMARK INTRA:                   0.000
REMARK UNBOUND:                 0.000
REMARK  Name = No_3470-gen_results/8p0m/2024-11-26-14-13-15/
REMARK  0 active torsions:
REMARK  status: ('A' for Active; 'I' for Inactive)
REMARK                            x       y       z     vdW  Elec       q    Type
REMARK                         _______ _______ _______ _____ _____    ______ ____
ROOT
ATOM      1  C   UNL A   1     -25.062  -5.345  29.080  0.00  0.00    +0.000 A 
ATOM      2  C   UNL A   1     -26.010  -4.777  29.572  0.00  0.00    +0.000 A 
ATOM      3  C   UNL A   1     -26.038  -3.420  29.830  0.00  0.00    +0.000 A 
ATOM      4  C   UNL A   1     -24.903  -2.647  29.458  0.00  0.00    +0.000 A 
ATOM      5  C   UNL A   1     -23.944  -3.296  28.759  0.00  0.00    +0.000 A 
ATOM      6  C   UNL A   1     -24.019  -4.592  28.522  0.00  0.00    +0.000 A 
ENDROOT
TORSDOF 0
ENDMDL
ENDMDL
