REMARK  Name = No_3471-gen_results/8p0m/2024-11-26-14-13-15/
REMARK  4 active torsions:
REMARK  status: ('A' for Active; 'I' for Inactive)
REMARK    1  A    between atoms: C_3  and  O_9
REMARK    2  A    between atoms: O_9  and  C_10
REMARK    3  A    between atoms: C_14  and  C_17
REMARK    4  A    between atoms: C_18  and  C_19
REMARK                            x       y       z     vdW  Elec       q    Type
REMARK                         _______ _______ _______ _____ _____    ______ ____
ROOT
ATOM      1  C   UNL A   1     -25.474   0.481  27.165  0.00  0.00    +0.145 A 
ATOM      2  C   UNL A   1     -24.267   0.996  27.348  0.00  0.00    +0.041 A 
ATOM      3  C   UNL A   1     -23.968   2.044  27.200  0.00  0.00    +0.045 A 
ATOM      4  C   UNL A   1     -24.671   2.928  26.227  0.00  0.00    +0.196 A 
ATOM      5  C   UNL A   1     -26.402   1.059  26.357  0.00  0.00    +0.038 A 
ATOM      6  C   UNL A   1     -26.003   2.364  25.894  0.00  0.00    +0.045 A 
ATOM      7  O   UNL A   1     -24.284   4.120  25.862  0.00  0.00    -0.287 OA
ENDROOT
BRANCH   5   8
ATOM      8  C   UNL A   1     -27.580   0.533  25.874  0.00  0.00    +0.003 C 
ATOM      9  C   UNL A   1     -28.119   1.100  24.652  0.00  0.00    +0.000 C 
BRANCH   9  10
ATOM     10  C   UNL A   1     -29.403   1.538  24.673  0.00  0.00    +0.000 A 
ATOM     11  C   UNL A   1     -30.170   1.598  25.703  0.00  0.00    +0.000 A 
ATOM     12  C   UNL A   1     -31.436   2.063  25.648  0.00  0.00    +0.000 A 
ATOM     13  C   UNL A   1     -31.933   2.453  24.388  0.00  0.00    +0.000 A 
ATOM     14  C   UNL A   1     -31.190   2.422  23.240  0.00  0.00    +0.000 A 
ATOM     15  C   UNL A   1     -29.897   1.976  23.381  0.00  0.00    +0.000 A 
ENDBRANCH   9  10
ENDBRANCH   5   8
BRANCH   1  16
ATOM     16  O   UNL A   1     -25.739  -0.749  27.744  0.00  0.00    -0.453 OA
BRANCH  16  19
ATOM     17  C   UNL A   1     -28.016  -0.814  28.878  0.00  0.00    +0.049 A 
ATOM     18  C   UNL A   1     -28.469  -0.785  29.829  0.00  0.00    +0.061 A 
ATOM     19  C   UNL A   1     -26.504  -0.778  28.877  0.00  0.00    +0.152 A 
ATOM     20  C   UNL A   1     -25.810  -0.853  30.103  0.00  0.00    +0.069 A 
ATOM     21  C   UNL A   1     -27.991  -0.892  31.226  0.00  0.00    +0.012 A 
ATOM     22  C   UNL A   1     -26.604  -0.868  31.265  0.00  0.00    +0.011 A 
ATOM     23 BR   UNL A   1     -23.986  -0.798  30.172  0.00  0.00    -0.046 Br
ATOM     24 CL   UNL A   1     -30.329  -0.840  29.832  0.00  0.00    -0.082 Cl
ENDBRANCH  16  19
ENDBRANCH   1  16
TORSDOF 4
