REMARK  Name = No_3472-gen_results/8p0m/2024-11-26-14-13-15/
REMARK  5 active torsions:
REMARK  status: ('A' for Active; 'I' for Inactive)
REMARK    1  A    between atoms: C_15  and  C_16
REMARK    2  A    between atoms: N_18  and  C_19
REMARK    3  A    between atoms: C_19  and  C_27
REMARK    4  A    between atoms: C_28  and  C_29
REMARK    5  A    between atoms: C_30  and  C_31
REMARK                            x       y       z     vdW  Elec       q    Type
REMARK                         _______ _______ _______ _____ _____    ______ ____
ROOT
ATOM      1  C   UNL A   1     -28.016  -0.814  28.878  0.00  0.00    +0.065 C 
ATOM      2  C   UNL A   1     -28.469  -0.785  29.829  0.00  0.00    +0.080 C 
ATOM      3  C   UNL A   1     -26.504  -0.778  28.877  0.00  0.00    +0.016 C 
ATOM      4  C   UNL A   1     -25.831  -1.681  29.685  0.00  0.00    +0.009 C 
ATOM      5  C   UNL A   1     -28.149  -1.885  30.903  0.00  0.00    +0.152 C 
ATOM      6  C   UNL A   1     -26.646  -1.956  31.033  0.00  0.00    +0.065 C 
ATOM      7  O   UNL A   1     -28.842  -2.620  31.588  0.00  0.00    -0.296 OA
ATOM      8  C   UNL A   1     -25.685  -0.332  27.718  0.00  0.00    +0.003 C 
ATOM      9  C   UNL A   1     -26.067   0.432  26.766  0.00  0.00    +0.015 C 
ATOM     10  C   UNL A   1     -27.398   0.865  26.668  0.00  0.00    +0.058 C 
ATOM     11  C   UNL A   1     -27.825   1.384  25.920  0.00  0.00    +0.017 C 
ATOM     12  C   UNL A   1     -29.273   1.727  25.809  0.00  0.00    +0.012 C 
ATOM     13  N   UNL A   1     -28.240   0.511  27.952  0.00  0.00    -0.274 NA
ATOM     14  C   UNL A   1     -29.460   1.009  27.991  0.00  0.00    +0.081 C 
ATOM     15  C   UNL A   1     -30.042   1.584  26.864  0.00  0.00    +0.094 C 
ATOM     16  C   UNL A   1     -25.132   0.672  25.761  0.00  0.00    +0.006 C 
ATOM     17  C   UNL A   1     -23.958   1.401  26.129  0.00  0.00    +0.022 C 
ATOM     18  C   UNL A   1     -23.431   1.435  27.411  0.00  0.00    -0.044 C 
ATOM     19  C   UNL A   1     -23.064   2.547  27.985  0.00  0.00    -0.009 C 
ATOM     20  C   UNL A   1     -23.086   0.142  27.994  0.00  0.00    +0.022 C 
ATOM     21  C   UNL A   1     -24.035  -0.733  28.546  0.00  0.00    +0.004 C 
ATOM     22  C   UNL A   1     -24.438  -1.560  29.672  0.00  0.00    +0.001 C 
ENDROOT
BRANCH  15  23
ATOM     23  C   UNL A   1     -31.396   2.060  26.911  0.00  0.00    +0.243 C 
ATOM     24  O   UNL A   1     -32.073   2.256  26.026  0.00  0.00    -0.273 OA
ATOM     25  N   UNL A   1     -32.109   1.811  28.153  0.00  0.00    -0.201 NA
BRANCH  25  26
ATOM     26  C   UNL A   1     -33.478   2.147  28.313  0.00  0.00    +0.141 C 
BRANCH  26  27
ATOM     27  C   UNL A   1     -34.049   1.442  29.237  0.00  0.00    -0.003 C 
ATOM     28  C   UNL A   1     -33.364   0.662  29.973  0.00  0.00    -0.003 C 
BRANCH  28  29
ATOM     29  C   UNL A   1     -33.987  -0.165  31.054  0.00  0.00    -0.000 C 
ATOM     30  C   UNL A   1     -33.133  -0.912  31.919  0.00  0.00    -0.000 C 
BRANCH  30  31
ATOM     31  C   UNL A   1     -31.746  -0.941  31.671  0.00  0.00    -0.000 C 
ATOM     32  C   UNL A   1     -31.218  -0.141  30.721  0.00  0.00    -0.000 C 
ENDBRANCH  30  31
ENDBRANCH  28  29
ENDBRANCH  26  27
ENDBRANCH  25  26
ENDBRANCH  15  23
TORSDOF 5
