MODEL 3472
MODEL 1
REMARK VINA RESULT:    -8.100      0.000      0.000
REMARK INTER + INTRA:         -11.195
REMARK INTER:                 -10.468
REMARK INTRA:                  -0.727
REMARK UNBOUND:                -0.727
REMARK  Name = No_3472-gen_results/8p0m/2024-11-26-14-13-15/
REMARK  5 active torsions:
REMARK  status: ('A' for Active; 'I' for Inactive)
REMARK    1  A    between atoms: C_15  and  C_16
REMARK    2  A    between atoms: N_18  and  C_19
REMARK    3  A    between atoms: C_19  and  C_27
REMARK    4  A    between atoms: C_28  and  C_29
REMARK    5  A    between atoms: C_30  and  C_31
REMARK                            x       y       z     vdW  Elec       q    Type
REMARK                         _______ _______ _______ _____ _____    ______ ____
ROOT
ATOM      1  C   UNL A   1     -27.973   3.076  24.963  0.00  0.00    +0.065 C 
ATOM      2  C   UNL A   1     -28.111   3.796  25.721  0.00  0.00    +0.080 C 
ATOM      3  C   UNL A   1     -29.228   2.371  24.500  0.00  0.00    +0.016 C 
ATOM      4  C   UNL A   1     -30.316   3.151  24.139  0.00  0.00    +0.009 C 
ATOM      5  C   UNL A   1     -29.069   5.020  25.498  0.00  0.00    +0.152 C 
ATOM      6  C   UNL A   1     -30.398   4.467  25.042  0.00  0.00    +0.065 C 
ATOM      7  O   UNL A   1     -28.936   6.227  25.622  0.00  0.00    -0.296 OA
ATOM      8  C   UNL A   1     -29.236   1.041  23.834  0.00  0.00    +0.003 C 
ATOM      9  C   UNL A   1     -28.325   0.146  23.913  0.00  0.00    +0.015 C 
ATOM     10  C   UNL A   1     -27.121   0.389  24.591  0.00  0.00    +0.058 C 
ATOM     11  C   UNL A   1     -26.308  -0.201  24.636  0.00  0.00    +0.017 C 
ATOM     12  C   UNL A   1     -25.008   0.149  25.280  0.00  0.00    +0.012 C 
ATOM     13  N   UNL A   1     -27.154   1.736  25.408  0.00  0.00    -0.274 NA
ATOM     14  C   UNL A   1     -26.111   1.961  26.182  0.00  0.00    +0.081 C 
ATOM     15  C   UNL A   1     -24.956   1.188  26.081  0.00  0.00    +0.094 C 
ATOM     16  C   UNL A   1     -28.533  -1.007  23.158  0.00  0.00    +0.006 C 
ATOM     17  C   UNL A   1     -29.641  -1.832  23.528  0.00  0.00    +0.022 C 
ATOM     18  C   UNL A   1     -30.776  -1.369  24.177  0.00  0.00    -0.044 C 
ATOM     19  C   UNL A   1     -31.287  -1.981  25.209  0.00  0.00    -0.009 C 
ATOM     20  C   UNL A   1     -31.505  -0.299  23.504  0.00  0.00    +0.022 C 
ATOM     21  C   UNL A   1     -31.100   1.045  23.529  0.00  0.00    +0.004 C 
ATOM     22  C   UNL A   1     -31.458   2.434  23.767  0.00  0.00    +0.001 C 
ENDROOT
BRANCH  15  23
ATOM     23  C   UNL A   1     -23.808   1.493  26.888  0.00  0.00    +0.243 C 
ATOM     24  O   UNL A   1     -23.529   2.505  27.309  0.00  0.00    -0.273 OA
ATOM     25  N   UNL A   1     -23.237   0.374  27.620  0.00  0.00    -0.201 NA
BRANCH  25  26
ATOM     26  C   UNL A   1     -22.156   0.542  28.523  0.00  0.00    +0.141 C 
BRANCH  26  27
ATOM     27  C   UNL A   1     -22.349  -0.088  29.638  0.00  0.00    -0.003 C 
ATOM     28  C   UNL A   1     -23.256   0.290  30.446  0.00  0.00    -0.003 C 
BRANCH  28  29
ATOM     29  C   UNL A   1     -23.513  -0.414  31.742  0.00  0.00    -0.000 C 
ATOM     30  C   UNL A   1     -24.603  -1.332  31.815  0.00  0.00    -0.000 C 
BRANCH  30  31
ATOM     31  C   UNL A   1     -25.470  -1.470  30.713  0.00  0.00    -0.000 C 
ATOM     32  C   UNL A   1     -25.450  -2.606  29.983  0.00  0.00    -0.000 C 
ENDBRANCH  30  31
ENDBRANCH  28  29
ENDBRANCH  26  27
ENDBRANCH  25  26
ENDBRANCH  15  23
TORSDOF 5
ENDMDL
ENDMDL
