MODEL 3473
MODEL 1
REMARK VINA RESULT:    -6.442      0.000      0.000
REMARK INTER + INTRA:          -7.607
REMARK INTER:                  -7.195
REMARK INTRA:                  -0.413
REMARK UNBOUND:                -0.413
REMARK  Name = No_3473-gen_results/8p0m/2024-11-26-14-13-15/
REMARK  2 active torsions:
REMARK  status: ('A' for Active; 'I' for Inactive)
REMARK    1  A    between atoms: C_2  and  C_7
REMARK    2  A    between atoms: C_7  and  C_8
REMARK                            x       y       z     vdW  Elec       q    Type
REMARK                         _______ _______ _______ _____ _____    ______ ____
ROOT
ATOM      1  C   UNL A   1     -24.637  -1.137  29.767  0.00  0.00    +0.053 C 
ENDROOT
BRANCH   1   3
ATOM      2  C   UNL A   1     -23.888  -3.200  28.805  0.00  0.00    -0.004 A 
ATOM      3  C   UNL A   1     -24.748  -2.612  29.417  0.00  0.00    -0.018 A 
ATOM      4  C   UNL A   1     -25.892  -3.190  29.865  0.00  0.00    -0.004 A 
ATOM      5  C   UNL A   1     -26.095  -4.559  29.603  0.00  0.00    -0.000 A 
ATOM      6  C   UNL A   1     -23.985  -4.621  28.585  0.00  0.00    -0.000 A 
ATOM      7  C   UNL A   1     -25.128  -5.244  28.989  0.00  0.00    -0.000 A 
ENDBRANCH   1   3
BRANCH   1   8
ATOM      8  C   UNL A   1     -24.079  -0.295  28.659  0.00  0.00    -0.018 A 
ATOM      9  C   UNL A   1     -24.751  -0.068  27.592  0.00  0.00    -0.004 A 
ATOM     10  C   UNL A   1     -22.808   0.324  28.868  0.00  0.00    -0.004 A 
ATOM     11  C   UNL A   1     -22.348   1.219  27.821  0.00  0.00    -0.000 A 
ATOM     12  C   UNL A   1     -24.320   0.886  26.601  0.00  0.00    -0.000 A 
ATOM     13  C   UNL A   1     -23.081   1.450  26.739  0.00  0.00    -0.000 A 
ENDBRANCH   1   8
TORSDOF 2
ENDMDL
ENDMDL
