MODEL 3474
MODEL 1
REMARK VINA RESULT:    -7.073      0.000      0.000
REMARK INTER + INTRA:          -8.190
REMARK INTER:                  -8.314
REMARK INTRA:                   0.124
REMARK UNBOUND:                 0.124
REMARK  Name = No_3474-gen_results/8p0m/2024-11-26-14-13-15/
REMARK  3 active torsions:
REMARK  status: ('A' for Active; 'I' for Inactive)
REMARK    1  A    between atoms: C_1  and  C_2
REMARK    2  A    between atoms: N_8  and  C_10
REMARK    3  A    between atoms: C_19  and  C_20
REMARK                            x       y       z     vdW  Elec       q    Type
REMARK                         _______ _______ _______ _____ _____    ______ ____
ROOT
ATOM      1  C   UNL A   1      -7.354   0.366  10.278  0.00  0.00    +0.052 A 
ATOM      2  C   UNL A   1      -7.789   1.532   9.658  0.00  0.00    +0.000 A 
ATOM      3  C   UNL A   1      -8.855   2.449  10.155  0.00  0.00    +0.006 A 
ATOM      4  C   UNL A   1      -9.590   1.993  11.289  0.00  0.00    +0.057 A 
ATOM      5  C   UNL A   1      -9.171   0.778  11.868  0.00  0.00    +0.011 A 
ATOM      6  C   UNL A   1      -8.166   0.021  11.403  0.00  0.00    +0.005 A 
ATOM      7 CL   UNL A   1     -10.813   2.998  11.860  0.00  0.00    -0.082 Cl
ATOM      8  C   UNL A   1      -9.204   3.652   9.413  0.00  0.00    +0.000 C 
ATOM      9  C   UNL A   1      -9.602   4.620   9.728  0.00  0.00    +0.058 C 
ATOM     10  C   UNL A   1      -9.000   3.487   7.945  0.00  0.00    +0.116 C 
ATOM     11  N   UNL A   1      -8.280   2.423   7.482  0.00  0.00    -0.208 NA
ATOM     12  C   UNL A   1      -7.729   1.487   8.261  0.00  0.00    +0.116 C 
ENDROOT
BRANCH   1  13
ATOM     13  C   UNL A   1      -6.473  -0.307   9.796  0.00  0.00    +0.265 C 
ATOM     14  N   UNL A   1      -5.123   0.121   9.829  0.00  0.00    -0.202 NA
ATOM     15  O   UNL A   1      -6.594  -1.546   9.587  0.00  0.00    -0.268 OA
BRANCH  14  16
ATOM     16  C   UNL A   1      -3.955  -0.630   9.377  0.00  0.00    +0.118 C 
ATOM     17  C   UNL A   1      -3.914  -0.843   7.980  0.00  0.00    +0.137 C 
ATOM     18  N   UNL A   1      -3.493  -2.061   7.580  0.00  0.00    -0.204 NA
ATOM     19  C   UNL A   1      -2.392  -2.552   8.110  0.00  0.00    +0.241 C 
ATOM     20  C   UNL A   1      -2.308  -2.406   9.550  0.00  0.00    +0.089 C 
ATOM     21  C   UNL A   1      -3.157  -1.353  10.207  0.00  0.00    +0.033 C 
ATOM     22  O   UNL A   1      -1.758  -3.528   7.553  0.00  0.00    -0.273 OA
ENDBRANCH  14  16
ENDBRANCH   1  13
BRANCH   9  23
ATOM     23  C   UNL A   1     -10.795   5.029   8.818  0.00  0.00    +0.284 C 
ATOM     24  N   UNL A   1     -10.855   6.217   8.313  0.00  0.00    -0.084 NA
ATOM     25  O   UNL A   1     -11.681   4.269   8.590  0.00  0.00    -0.267 OA
ENDBRANCH   9  23
TORSDOF 3
ENDMDL
ENDMDL
