REMARK  Name = No_3475-gen_results/8p0m/2024-11-26-14-13-15/
REMARK  2 active torsions:
REMARK  status: ('A' for Active; 'I' for Inactive)
REMARK    1  A    between atoms: C_2  and  C_3
REMARK    2  A    between atoms: N_4  and  C_10
REMARK                            x       y       z     vdW  Elec       q    Type
REMARK                         _______ _______ _______ _____ _____    ______ ____
ROOT
ATOM      1  O   UNL A   1     -28.123  -1.335  28.487  0.00  0.00    -0.268 OA
ATOM      2  C   UNL A   1     -27.481  -0.404  28.709  0.00  0.00    +0.269 C 
ATOM      3  N   UNL A   1     -27.423   0.175  30.055  0.00  0.00    -0.175 NA
ENDROOT
BRANCH   2   4
ATOM      4  C   UNL A   1     -26.380  -0.087  27.939  0.00  0.00    +0.056 A 
ATOM      5  C   UNL A   1     -26.156   0.116  26.968  0.00  0.00    +0.005 A 
ATOM      6  C   UNL A   1     -25.803   0.918  26.114  0.00  0.00    +0.001 A 
ATOM      7  C   UNL A   1     -24.736   1.908  26.554  0.00  0.00    +0.011 A 
ATOM      8  C   UNL A   1     -24.411   1.707  27.923  0.00  0.00    +0.058 A 
ATOM      9  C   UNL A   1     -25.199   0.824  28.665  0.00  0.00    +0.016 A 
ATOM     10 CL   UNL A   1     -23.257   2.671  28.666  0.00  0.00    -0.082 Cl
ENDBRANCH   2   4
BRANCH   3  11
ATOM     11  C   UNL A   1     -28.506  -0.292  30.981  0.00  0.00    +0.074 A 
ATOM     12  C   UNL A   1     -28.105  -0.415  32.150  0.00  0.00    +0.017 A 
ATOM     13  C   UNL A   1     -28.948  -0.863  33.192  0.00  0.00    +0.001 A 
ATOM     14  C   UNL A   1     -30.291  -1.156  32.858  0.00  0.00    +0.000 A 
ATOM     15  C   UNL A   1     -30.667  -1.034  31.520  0.00  0.00    +0.001 A 
ATOM     16  C   UNL A   1     -29.779  -0.577  30.593  0.00  0.00    +0.017 A 
ENDBRANCH   3  11
TORSDOF 2
