MODEL 3475
MODEL 1
REMARK VINA RESULT:    -6.274      0.000      0.000
REMARK INTER + INTRA:          -7.136
REMARK INTER:                  -7.007
REMARK INTRA:                  -0.129
REMARK UNBOUND:                -0.129
REMARK  Name = No_3475-gen_results/8p0m/2024-11-26-14-13-15/
REMARK  2 active torsions:
REMARK  status: ('A' for Active; 'I' for Inactive)
REMARK    1  A    between atoms: C_2  and  C_3
REMARK    2  A    between atoms: N_4  and  C_10
REMARK                            x       y       z     vdW  Elec       q    Type
REMARK                         _______ _______ _______ _____ _____    ______ ____
ROOT
ATOM      1  O   UNL A   1     -25.744  -0.700  27.539  0.00  0.00    -0.268 OA
ATOM      2  C   UNL A   1     -24.822  -0.329  28.122  0.00  0.00    +0.269 C 
ATOM      3  N   UNL A   1     -23.954  -1.265  28.843  0.00  0.00    -0.175 NA
ENDROOT
BRANCH   2   4
ATOM      4  C   UNL A   1     -24.185   0.850  27.791  0.00  0.00    +0.056 A 
ATOM      5  C   UNL A   1     -23.407   1.166  27.218  0.00  0.00    +0.005 A 
ATOM      6  C   UNL A   1     -23.000   1.774  26.237  0.00  0.00    +0.001 A 
ATOM      7  C   UNL A   1     -23.744   3.061  25.915  0.00  0.00    +0.011 A 
ATOM      8  C   UNL A   1     -24.816   3.252  26.828  0.00  0.00    +0.058 A 
ATOM      9  C   UNL A   1     -25.131   2.210  27.704  0.00  0.00    +0.016 A 
ATOM     10 CL   UNL A   1     -25.805   4.601  26.697  0.00  0.00    -0.082 Cl
ENDBRANCH   2   4
BRANCH   3  11
ATOM     11  C   UNL A   1     -24.548  -2.624  29.061  0.00  0.00    +0.074 A 
ATOM     12  C   UNL A   1     -23.861  -3.525  28.553  0.00  0.00    +0.017 A 
ATOM     13  C   UNL A   1     -24.238  -4.886  28.615  0.00  0.00    +0.001 A 
ATOM     14  C   UNL A   1     -25.435  -5.196  29.302  0.00  0.00    +0.000 A 
ATOM     15  C   UNL A   1     -26.180  -4.134  29.817  0.00  0.00    +0.001 A 
ATOM     16  C   UNL A   1     -25.718  -2.856  29.717  0.00  0.00    +0.017 A 
ENDBRANCH   3  11
TORSDOF 2
ENDMDL
ENDMDL
