REMARK  Name = No_3476-gen_results/8p0m/2024-11-26-14-13-15/
REMARK  6 active torsions:
REMARK  status: ('A' for Active; 'I' for Inactive)
REMARK    1  A    between atoms: C_3  and  C_8
REMARK    2  A    between atoms: C_6  and  O_7
REMARK    3  A    between atoms: O_7  and  C_15
REMARK    4  A    between atoms: C_15  and  C_16
REMARK    5  A    between atoms: C_16  and  C_17
REMARK    6  A    between atoms: C_16  and  N_20
REMARK                            x       y       z     vdW  Elec       q    Type
REMARK                         _______ _______ _______ _____ _____    ______ ____
ROOT
ATOM      1  C   UNL A   1     -28.016  -0.814  28.878  0.00  0.00    +0.037 A 
ATOM      2  C   UNL A   1     -27.064  -0.119  28.608  0.00  0.00    +0.003 A 
ATOM      3  C   UNL A   1     -25.765  -0.390  29.036  0.00  0.00    +0.000 A 
ATOM      4  C   UNL A   1     -25.530  -1.530  29.901  0.00  0.00    +0.003 A 
ATOM      5  C   UNL A   1     -26.689  -2.289  30.181  0.00  0.00    +0.037 A 
ATOM      6  C   UNL A   1     -27.873  -1.951  29.737  0.00  0.00    +0.139 A 
ENDROOT
BRANCH   3   7
ATOM      7  C   UNL A   1     -24.539   0.421  28.742  0.00  0.00    -0.000 A 
ATOM      8  C   UNL A   1     -23.346   0.114  29.169  0.00  0.00    -0.000 A 
ATOM      9  C   UNL A   1     -22.194   0.874  28.755  0.00  0.00    -0.000 A 
ATOM     10  C   UNL A   1     -22.361   1.834  27.695  0.00  0.00    -0.004 A 
ATOM     11  C   UNL A   1     -24.395   1.236  27.517  0.00  0.00    -0.004 A 
ATOM     12  C   UNL A   1     -23.459   2.002  27.163  0.00  0.00    -0.022 A 
ATOM     13  C   UNL A   1     -23.634   2.961  26.038  0.00  0.00    +0.031 C 
ENDBRANCH   3   7
BRANCH   6  14
ATOM     14  O   UNL A   1     -28.930  -2.730  30.115  0.00  0.00    -0.473 OA
BRANCH  14  15
ATOM     15  C   UNL A   1     -29.315  -2.744  31.446  0.00  0.00    +0.233 C 
BRANCH  15  16
ATOM     16  C   UNL A   1     -30.689  -2.610  31.622  0.00  0.00    +0.206 C 
BRANCH  16  17
ATOM     17  N   UNL A   1     -31.250  -3.849  32.323  0.00  0.00    -0.262 NA
ATOM     18  C   UNL A   1     -30.437  -4.601  33.002  0.00  0.00    +0.073 C 
ATOM     19  C   UNL A   1     -32.562  -4.191  32.347  0.00  0.00    +0.073 C 
ATOM     20  C   UNL A   1     -33.126  -4.532  33.131  0.00  0.00    +0.017 C 
ATOM     21  C   UNL A   1     -30.988  -5.541  33.989  0.00  0.00    +0.017 C 
ATOM     22  C   UNL A   1     -32.406  -5.537  34.048  0.00  0.00    +0.003 C 
ENDBRANCH  16  17
BRANCH  16  23
ATOM     23  C   UNL A   1     -31.438  -2.256  30.624  0.00  0.00    +0.383 C 
ATOM     24  O   UNL A   1     -32.594  -2.418  30.628  0.00  0.00    -0.244 OA
ATOM     25  O   UNL A   1     -30.970  -1.667  29.589  0.00  0.00    -0.244 OA
ENDBRANCH  16  23
ENDBRANCH  15  16
ENDBRANCH  14  15
ENDBRANCH   6  14
TORSDOF 6
