MODEL 3476
MODEL 1
REMARK VINA RESULT:    -7.211      0.000      0.000
REMARK INTER + INTRA:         -10.729
REMARK INTER:                  -9.740
REMARK INTRA:                  -0.989
REMARK UNBOUND:                -0.989
REMARK  Name = No_3476-gen_results/8p0m/2024-11-26-14-13-15/
REMARK  6 active torsions:
REMARK  status: ('A' for Active; 'I' for Inactive)
REMARK    1  A    between atoms: C_3  and  C_8
REMARK    2  A    between atoms: C_6  and  O_7
REMARK    3  A    between atoms: O_7  and  C_15
REMARK    4  A    between atoms: C_15  and  C_16
REMARK    5  A    between atoms: C_16  and  C_17
REMARK    6  A    between atoms: C_16  and  N_20
REMARK                            x       y       z     vdW  Elec       q    Type
REMARK                         _______ _______ _______ _____ _____    ______ ____
ROOT
ATOM      1  C   UNL A   1     -26.175   1.557  26.856  0.00  0.00    +0.037 A 
ATOM      2  C   UNL A   1     -27.232   1.739  26.298  0.00  0.00    +0.003 A 
ATOM      3  C   UNL A   1     -27.612   1.078  25.130  0.00  0.00    +0.000 A 
ATOM      4  C   UNL A   1     -26.680   0.161  24.503  0.00  0.00    +0.003 A 
ATOM      5  C   UNL A   1     -25.463   0.007  25.205  0.00  0.00    +0.037 A 
ATOM      6  C   UNL A   1     -25.193   0.678  26.295  0.00  0.00    +0.139 A 
ENDROOT
BRANCH   3   7
ATOM      7  C   UNL A   1     -28.901   1.249  24.384  0.00  0.00    -0.000 A 
ATOM      8  C   UNL A   1     -29.168   2.271  23.621  0.00  0.00    -0.000 A 
ATOM      9  C   UNL A   1     -30.380   2.318  22.843  0.00  0.00    -0.000 A 
ATOM     10  C   UNL A   1     -31.177   1.122  22.760  0.00  0.00    -0.004 A 
ATOM     11  C   UNL A   1     -29.716   0.104  23.924  0.00  0.00    -0.004 A 
ATOM     12  C   UNL A   1     -30.833   0.092  23.341  0.00  0.00    -0.022 A 
ATOM     13  C   UNL A   1     -31.627  -1.162  23.227  0.00  0.00    +0.031 C 
ENDBRANCH   3   7
BRANCH   6  14
ATOM     14  O   UNL A   1     -23.963   0.487  26.860  0.00  0.00    -0.473 OA
BRANCH  14  15
ATOM     15  C   UNL A   1     -23.875   0.277  28.227  0.00  0.00    +0.233 C 
BRANCH  15  16
ATOM     16  C   UNL A   1     -23.131  -0.850  28.562  0.00  0.00    +0.206 C 
BRANCH  16  17
ATOM     17  N   UNL A   1     -24.048  -1.932  29.136  0.00  0.00    -0.262 NA
ATOM     18  C   UNL A   1     -25.177  -1.571  29.668  0.00  0.00    +0.073 C 
ATOM     19  C   UNL A   1     -23.802  -3.264  29.071  0.00  0.00    +0.073 C 
ATOM     20  C   UNL A   1     -24.444  -4.029  28.846  0.00  0.00    +0.017 C 
ATOM     21  C   UNL A   1     -26.232  -2.578  29.859  0.00  0.00    +0.017 C 
ATOM     22  C   UNL A   1     -25.850  -3.884  29.457  0.00  0.00    +0.003 C 
ENDBRANCH  16  17
BRANCH  16  23
ATOM     23  C   UNL A   1     -22.051  -0.726  29.271  0.00  0.00    +0.383 C 
ATOM     24  O   UNL A   1     -22.077  -0.375  30.384  0.00  0.00    -0.244 OA
ATOM     25  O   UNL A   1     -20.893  -1.020  28.815  0.00  0.00    -0.244 OA
ENDBRANCH  16  23
ENDBRANCH  15  16
ENDBRANCH  14  15
ENDBRANCH   6  14
TORSDOF 6
ENDMDL
ENDMDL
