MODEL 3477
MODEL 1
REMARK VINA RESULT:    -6.715      0.000      0.000
REMARK INTER + INTRA:          -7.881
REMARK INTER:                  -7.500
REMARK INTRA:                  -0.381
REMARK UNBOUND:                -0.381
REMARK  Name = No_3477-gen_results/8p0m/2024-11-26-14-13-15/
REMARK  2 active torsions:
REMARK  status: ('A' for Active; 'I' for Inactive)
REMARK    1  A    between atoms: C_2  and  O_9
REMARK    2  A    between atoms: O_9  and  C_10
REMARK                            x       y       z     vdW  Elec       q    Type
REMARK                         _______ _______ _______ _____ _____    ______ ____
ROOT
ATOM      1  C   UNL A   1     -24.679  -0.246  27.794  0.00  0.00    +0.051 A 
ATOM      2  C   UNL A   1     -24.037  -0.481  28.791  0.00  0.00    +0.173 A 
ATOM      3  C   UNL A   1     -22.819   0.131  29.087  0.00  0.00    +0.174 A 
ATOM      4  C   UNL A   1     -22.245   1.059  28.133  0.00  0.00    +0.034 A 
ATOM      5  C   UNL A   1     -23.046   1.277  26.988  0.00  0.00    +0.014 A 
ATOM      6  C   UNL A   1     -24.177   0.648  26.794  0.00  0.00    +0.061 A 
ATOM      7  F   UNL A   1     -22.078  -0.116  30.163  0.00  0.00    -0.201 F 
ATOM      8 CL   UNL A   1     -25.045   0.956  25.326  0.00  0.00    -0.082 Cl
ENDROOT
BRANCH   2   9
ATOM      9  O   UNL A   1     -24.459  -1.392  29.774  0.00  0.00    -0.451 OA
BRANCH   9  10
ATOM     10  C   UNL A   1     -24.814  -2.630  29.395  0.00  0.00    +0.145 A 
ATOM     11  C   UNL A   1     -25.943  -3.110  29.832  0.00  0.00    +0.037 A 
ATOM     12  C   UNL A   1     -26.199  -4.474  29.728  0.00  0.00    +0.003 A 
ATOM     13  C   UNL A   1     -25.288  -5.264  28.998  0.00  0.00    +0.000 A 
ATOM     14  C   UNL A   1     -23.867  -3.485  28.821  0.00  0.00    +0.037 A 
ATOM     15  C   UNL A   1     -24.073  -4.745  28.608  0.00  0.00    +0.003 A 
ENDBRANCH   9  10
ENDBRANCH   2   9
TORSDOF 2
ENDMDL
ENDMDL
