REMARK  Name = No_3477-gen_results/8p0m/2024-11-26-14-13-15/
REMARK  2 active torsions:
REMARK  status: ('A' for Active; 'I' for Inactive)
REMARK    1  A    between atoms: C_2  and  O_9
REMARK    2  A    between atoms: O_9  and  C_10
REMARK                            x       y       z     vdW  Elec       q    Type
REMARK                         _______ _______ _______ _____ _____    ______ ____
ROOT
ATOM      1  C   UNL A   1     -28.016  -0.814  28.878  0.00  0.00    +0.051 A 
ATOM      2  C   UNL A   1     -27.064  -0.119  28.608  0.00  0.00    +0.173 A 
ATOM      3  C   UNL A   1     -25.765  -0.390  29.036  0.00  0.00    +0.174 A 
ATOM      4  C   UNL A   1     -25.530  -1.530  29.901  0.00  0.00    +0.034 A 
ATOM      5  C   UNL A   1     -26.689  -2.289  30.181  0.00  0.00    +0.014 A 
ATOM      6  C   UNL A   1     -27.873  -1.951  29.737  0.00  0.00    +0.061 A 
ATOM      7  F   UNL A   1     -24.699   0.360  28.775  0.00  0.00    -0.201 F 
ATOM      8 CL   UNL A   1     -29.230  -2.928  30.192  0.00  0.00    -0.082 Cl
ENDROOT
BRANCH   2   9
ATOM      9  O   UNL A   1     -27.162   1.037  27.816  0.00  0.00    -0.451 OA
BRANCH   9  10
ATOM     10  C   UNL A   1     -27.466   0.902  26.515  0.00  0.00    +0.145 A 
ATOM     11  C   UNL A   1     -28.723   0.886  26.173  0.00  0.00    +0.037 A 
ATOM     12  C   UNL A   1     -29.087   0.440  24.906  0.00  0.00    +0.003 A 
ATOM     13  C   UNL A   1     -28.060   0.177  23.977  0.00  0.00    +0.000 A 
ATOM     14  C   UNL A   1     -26.490   0.475  25.608  0.00  0.00    +0.037 A 
ATOM     15  C   UNL A   1     -26.745   0.135  24.386  0.00  0.00    +0.003 A 
ENDBRANCH   9  10
ENDBRANCH   2   9
TORSDOF 2
