REMARK  Name = No_3478-gen_results/8p0m/2024-11-26-14-13-15/
REMARK  3 active torsions:
REMARK  status: ('A' for Active; 'I' for Inactive)
REMARK    1  A    between atoms: C_1  and  C_2
REMARK    2  A    between atoms: C_5  and  C_10
REMARK    3  A    between atoms: N_8  and  C_9
REMARK                            x       y       z     vdW  Elec       q    Type
REMARK                         _______ _______ _______ _____ _____    ______ ____
ROOT
ATOM      1  C   UNL A   1     -27.064  -0.119  28.608  0.00  0.00    +0.055 A 
ATOM      2  C   UNL A   1     -27.001   0.691  27.491  0.00  0.00    +0.004 A 
ATOM      3  C   UNL A   1     -25.855   1.482  27.083  0.00  0.00    +0.004 A 
ATOM      4  C   UNL A   1     -24.690   1.453  27.881  0.00  0.00    +0.071 A 
ATOM      5  C   UNL A   1     -24.738   0.601  29.042  0.00  0.00    +0.004 A 
ATOM      6  C   UNL A   1     -25.823  -0.169  29.389  0.00  0.00    +0.004 A 
ENDROOT
BRANCH   4   7
ATOM      7  C   UNL A   1     -23.519   2.203  27.555  0.00  0.00    +0.419 C 
ATOM      8  F   UNL A   1     -23.620   2.962  26.662  0.00  0.00    -0.166 F 
ATOM      9  F   UNL A   1     -22.452   1.324  27.189  0.00  0.00    -0.166 F 
ATOM     10  F   UNL A   1     -23.045   2.861  28.643  0.00  0.00    -0.166 F 
ENDBRANCH   4   7
BRANCH   1  11
ATOM     11  C   UNL A   1     -28.016  -0.814  28.878  0.00  0.00    +0.269 C 
ATOM     12  N   UNL A   1     -29.215  -0.173  29.013  0.00  0.00    -0.175 NA
ATOM     13  O   UNL A   1     -27.879  -1.803  29.648  0.00  0.00    -0.268 OA
BRANCH  12  14
ATOM     14  C   UNL A   1     -30.246  -0.774  29.639  0.00  0.00    +0.074 A 
ATOM     15  C   UNL A   1     -31.545  -0.519  29.241  0.00  0.00    +0.017 A 
ATOM     16  C   UNL A   1     -32.557  -0.662  29.779  0.00  0.00    +0.001 A 
ATOM     17  C   UNL A   1     -32.498  -1.402  31.092  0.00  0.00    +0.000 A 
ATOM     18  C   UNL A   1     -31.283  -1.742  31.606  0.00  0.00    +0.001 A 
ATOM     19  C   UNL A   1     -30.089  -1.322  30.938  0.00  0.00    +0.017 A 
ENDBRANCH  12  14
ENDBRANCH   1  11
TORSDOF 3
