MODEL 3478
MODEL 1
REMARK VINA RESULT:    -6.332      0.000      0.000
REMARK INTER + INTRA:          -7.966
REMARK INTER:                  -7.443
REMARK INTRA:                  -0.523
REMARK UNBOUND:                -0.523
REMARK  Name = No_3478-gen_results/8p0m/2024-11-26-14-13-15/
REMARK  3 active torsions:
REMARK  status: ('A' for Active; 'I' for Inactive)
REMARK    1  A    between atoms: C_1  and  C_2
REMARK    2  A    between atoms: C_5  and  C_10
REMARK    3  A    between atoms: N_8  and  C_9
REMARK                            x       y       z     vdW  Elec       q    Type
REMARK                         _______ _______ _______ _____ _____    ______ ____
ROOT
ATOM      1  C   UNL A   1     -27.303   0.565  24.540  0.00  0.00    +0.055 A 
ATOM      2  C   UNL A   1     -27.682   1.880  24.350  0.00  0.00    +0.004 A 
ATOM      3  C   UNL A   1     -28.934   2.324  23.765  0.00  0.00    +0.004 A 
ATOM      4  C   UNL A   1     -29.863   1.353  23.330  0.00  0.00    +0.071 A 
ATOM      5  C   UNL A   1     -29.485  -0.023  23.535  0.00  0.00    +0.004 A 
ATOM      6  C   UNL A   1     -28.309  -0.419  24.126  0.00  0.00    +0.004 A 
ENDROOT
BRANCH   4   7
ATOM      7  C   UNL A   1     -31.116   1.701  22.741  0.00  0.00    +0.419 C 
ATOM      8  F   UNL A   1     -31.702   0.829  22.211  0.00  0.00    -0.166 F 
ATOM      9  F   UNL A   1     -30.931   2.701  21.735  0.00  0.00    -0.166 F 
ATOM     10  F   UNL A   1     -31.932   2.294  23.649  0.00  0.00    -0.166 F 
ENDBRANCH   4   7
BRANCH   1  11
ATOM     11  C   UNL A   1     -26.279   0.237  25.092  0.00  0.00    +0.269 C 
ATOM     12  N   UNL A   1     -25.795   1.100  26.035  0.00  0.00    -0.175 NA
ATOM     13  O   UNL A   1     -25.379  -0.368  24.448  0.00  0.00    -0.268 OA
BRANCH  12  14
ATOM     14  C   UNL A   1     -24.516   1.014  26.450  0.00  0.00    +0.074 A 
ATOM     15  C   UNL A   1     -24.191   0.230  27.541  0.00  0.00    +0.017 A 
ATOM     16  C   UNL A   1     -23.273   0.228  28.241  0.00  0.00    +0.001 A 
ATOM     17  C   UNL A   1     -22.134   1.125  27.824  0.00  0.00    +0.000 A 
ATOM     18  C   UNL A   1     -22.297   1.945  26.749  0.00  0.00    +0.001 A 
ATOM     19  C   UNL A   1     -23.565   2.002  26.088  0.00  0.00    +0.017 A 
ENDBRANCH  12  14
ENDBRANCH   1  11
TORSDOF 3
ENDMDL
ENDMDL
