REMARK  Name = No_3479-gen_results/8p0m/2024-11-26-14-13-15/
REMARK  4 active torsions:
REMARK  status: ('A' for Active; 'I' for Inactive)
REMARK    1  A    between atoms: C_5  and  C_7
REMARK    2  A    between atoms: C_7  and  C_10
REMARK    3  A    between atoms: C_10  and  N_11
REMARK    4  A    between atoms: N_11  and  C_12
REMARK                            x       y       z     vdW  Elec       q    Type
REMARK                         _______ _______ _______ _____ _____    ______ ____
ROOT
ATOM      1  C   UNL A   1     -30.163  -1.117  30.125  0.00  0.00    -0.005 C 
ATOM      2  C   UNL A   1     -29.897  -2.260  30.748  0.00  0.00    -0.028 C 
ATOM      3  C   UNL A   1     -30.916  -3.253  31.064  0.00  0.00    +0.030 C 
ENDROOT
BRANCH   1   8
ATOM      4  C   UNL A   1     -28.016  -0.814  28.878  0.00  0.00    -0.000 A 
ATOM      5  C   UNL A   1     -27.064  -0.119  28.608  0.00  0.00    -0.000 A 
ATOM      6  C   UNL A   1     -26.876   1.133  28.913  0.00  0.00    -0.000 A 
ATOM      7  C   UNL A   1     -27.901   1.807  29.644  0.00  0.00    -0.000 A 
ATOM      8  C   UNL A   1     -29.046  -0.232  29.718  0.00  0.00    -0.003 A 
ATOM      9  C   UNL A   1     -28.940   1.052  30.060  0.00  0.00    -0.000 A 
ENDBRANCH   1   8
BRANCH   1  10
ATOM     10  C   UNL A   1     -31.098  -0.377  31.106  0.00  0.00    +0.140 C 
BRANCH  10  11
ATOM     11  N   UNL A   1     -31.632   0.709  30.636  0.00  0.00    -0.215 NA
BRANCH  11  12
ATOM     12  C   UNL A   1     -31.738   1.715  31.398  0.00  0.00    +0.148 A 
ATOM     13  C   UNL A   1     -32.441   2.189  31.952  0.00  0.00    +0.036 A 
ATOM     14  C   UNL A   1     -32.397   3.431  32.784  0.00  0.00    +0.004 A 
ATOM     15  C   UNL A   1     -31.220   4.136  32.684  0.00  0.00    +0.021 A 
ATOM     16  N   UNL A   1     -30.478   2.619  31.395  0.00  0.00    -0.228 NA
ATOM     17  C   UNL A   1     -30.341   3.714  32.028  0.00  0.00    +0.100 A 
ENDBRANCH  11  12
ENDBRANCH  10  11
ENDBRANCH   1  10
TORSDOF 4
