MODEL 3479
MODEL 1
REMARK VINA RESULT:    -6.273      0.000      0.000
REMARK INTER + INTRA:          -8.328
REMARK INTER:                  -7.740
REMARK INTRA:                  -0.588
REMARK UNBOUND:                -0.588
REMARK  Name = No_3479-gen_results/8p0m/2024-11-26-14-13-15/
REMARK  4 active torsions:
REMARK  status: ('A' for Active; 'I' for Inactive)
REMARK    1  A    between atoms: C_5  and  C_7
REMARK    2  A    between atoms: C_7  and  C_10
REMARK    3  A    between atoms: C_10  and  N_11
REMARK    4  A    between atoms: N_11  and  C_12
REMARK                            x       y       z     vdW  Elec       q    Type
REMARK                         _______ _______ _______ _____ _____    ______ ____
ROOT
ATOM      1  C   UNL A   1     -23.818  -1.296  29.283  0.00  0.00    -0.005 C 
ATOM      2  C   UNL A   1     -22.511  -1.325  29.048  0.00  0.00    -0.028 C 
ATOM      3  C   UNL A   1     -21.665  -0.139  29.093  0.00  0.00    +0.030 C 
ENDROOT
BRANCH   1   8
ATOM      4  C   UNL A   1     -23.904  -3.762  28.871  0.00  0.00    -0.000 A 
ATOM      5  C   UNL A   1     -24.543  -4.788  28.856  0.00  0.00    -0.000 A 
ATOM      6  C   UNL A   1     -25.752  -4.983  29.299  0.00  0.00    -0.000 A 
ATOM      7  C   UNL A   1     -26.435  -3.880  29.894  0.00  0.00    -0.000 A 
ATOM      8  C   UNL A   1     -24.573  -2.569  29.355  0.00  0.00    -0.003 A 
ATOM      9  C   UNL A   1     -25.808  -2.686  29.845  0.00  0.00    -0.000 A 
ENDBRANCH   1   8
BRANCH   1  10
ATOM     10  C   UNL A   1     -24.373  -0.412  28.146  0.00  0.00    +0.140 C 
BRANCH  10  11
ATOM     11  N   UNL A   1     -24.851   0.732  28.529  0.00  0.00    -0.215 NA
BRANCH  11  12
ATOM     12  C   UNL A   1     -24.728   1.732  27.761  0.00  0.00    +0.148 A 
ATOM     13  C   UNL A   1     -25.208   2.597  27.541  0.00  0.00    +0.036 A 
ATOM     14  C   UNL A   1     -24.931   3.675  26.542  0.00  0.00    +0.004 A 
ATOM     15  C   UNL A   1     -23.907   3.387  25.670  0.00  0.00    +0.021 A 
ATOM     16  N   UNL A   1     -23.601   1.559  26.709  0.00  0.00    -0.228 NA
ATOM     17  C   UNL A   1     -23.302   2.386  25.790  0.00  0.00    +0.100 A 
ENDBRANCH  11  12
ENDBRANCH  10  11
ENDBRANCH   1  10
TORSDOF 4
ENDMDL
ENDMDL
