MODEL 347
MODEL 1
REMARK VINA RESULT:    -7.850      0.000      0.000
REMARK INTER + INTRA:          -9.238
REMARK INTER:                  -8.768
REMARK INTRA:                  -0.470
REMARK UNBOUND:                -0.470
REMARK  Name = No_347-gen_results/8p0m/2024-11-26-14-13-15/
REMARK  2 active torsions:
REMARK  status: ('A' for Active; 'I' for Inactive)
REMARK    1  A    between atoms: C_5  and  C_16
REMARK    2  A    between atoms: N_17  and  C_19
REMARK                            x       y       z     vdW  Elec       q    Type
REMARK                         _______ _______ _______ _____ _____    ______ ____
ROOT
ATOM      1  C   UNL A   1      -9.327   1.877  11.778  0.00  0.00    +0.003 A 
ATOM      2  C   UNL A   1      -9.570   2.638  10.870  0.00  0.00    +0.036 A 
ATOM      3  C   UNL A   1      -8.917   2.656   9.649  0.00  0.00    -0.011 A 
ATOM      4  C   UNL A   1      -7.898   1.680   9.444  0.00  0.00    +0.001 A 
ATOM      5  C   UNL A   1      -7.757   0.750  10.402  0.00  0.00    +0.055 A 
ATOM      6  C   UNL A   1      -8.450   0.785  11.504  0.00  0.00    +0.005 A 
ATOM      7  C   UNL A   1      -9.161   3.714   8.604  0.00  0.00    +0.073 C 
ATOM      8  C   UNL A   1      -9.718   4.832   9.098  0.00  0.00    +0.023 A 
ATOM      9  C   UNL A   1     -10.404   4.889  10.346  0.00  0.00    +0.038 A 
ATOM     10  C   UNL A   1     -10.319   3.920  11.201  0.00  0.00    +0.195 C 
ATOM     11  C   UNL A   1     -10.079   5.939   8.069  0.00  0.00    +0.142 A 
ATOM     12  C   UNL A   1     -11.218   6.517   7.974  0.00  0.00    +0.037 A 
ATOM     13  C   UNL A   1     -11.780   6.779   9.343  0.00  0.00    +0.003 A 
ATOM     14  C   UNL A   1     -11.490   5.916  10.511  0.00  0.00    +0.003 A 
ATOM     15  O   UNL A   1     -10.763   4.049  12.401  0.00  0.00    -0.287 OA
ATOM     16  C   UNL A   1      -8.486   3.552   7.346  0.00  0.00    +0.023 C 
ATOM     17  O   UNL A   1      -9.358   6.015   6.902  0.00  0.00    -0.451 OA
ATOM     18  C   UNL A   1      -8.626   4.811   6.529  0.00  0.00    +0.176 C 
ENDROOT
BRANCH   5  19
ATOM     19  C   UNL A   1      -6.810  -0.367  10.125  0.00  0.00    +0.269 C 
ATOM     20  N   UNL A   1      -5.742  -0.236   9.666  0.00  0.00    -0.175 NA
ATOM     21  O   UNL A   1      -7.342  -1.572  10.122  0.00  0.00    -0.268 OA
BRANCH  20  22
ATOM     22  C   UNL A   1      -4.899  -0.861   9.313  0.00  0.00    +0.074 A 
ATOM     23  C   UNL A   1      -3.765  -1.275   9.905  0.00  0.00    +0.017 A 
ATOM     24  C   UNL A   1      -2.791  -1.984   9.463  0.00  0.00    +0.001 A 
ATOM     25  C   UNL A   1      -2.836  -2.387   8.062  0.00  0.00    +0.000 A 
ATOM     26  C   UNL A   1      -3.928  -1.977   7.293  0.00  0.00    +0.001 A 
ATOM     27  C   UNL A   1      -4.910  -1.272   7.841  0.00  0.00    +0.017 A 
ENDBRANCH  20  22
ENDBRANCH   5  19
TORSDOF 2
ENDMDL
ENDMDL
