REMARK  Name = No_348-gen_results/8p0m/2024-11-26-14-13-15/
REMARK  1 active torsions:
REMARK  status: ('A' for Active; 'I' for Inactive)
REMARK    1  A    between atoms: C_3  and  O_9
REMARK                            x       y       z     vdW  Elec       q    Type
REMARK                         _______ _______ _______ _____ _____    ______ ____
ROOT
ATOM      1  C   UNL A   1     -28.016  -0.814  28.878  0.00  0.00    +0.026 A 
ATOM      2  C   UNL A   1     -27.064  -0.119  28.608  0.00  0.00    +0.092 A 
ATOM      3  C   UNL A   1     -25.792  -0.430  29.076  0.00  0.00    +0.149 A 
ATOM      4  C   UNL A   1     -25.576  -1.565  29.936  0.00  0.00    +0.039 A 
ATOM      5  C   UNL A   1     -26.735  -2.300  30.217  0.00  0.00    +0.015 A 
ATOM      6  C   UNL A   1     -27.918  -1.954  29.763  0.00  0.00    +0.059 A 
ATOM      7 CL   UNL A   1     -27.146   1.292  27.641  0.00  0.00    -0.079 Cl
ATOM      8 CL   UNL A   1     -29.267  -2.896  30.216  0.00  0.00    -0.082 Cl
ENDROOT
BRANCH   3   9
ATOM      9  O   UNL A   1     -24.633   0.324  28.781  0.00  0.00    -0.471 OA
ATOM     10  C   UNL A   1     -24.601   1.324  28.029  0.00  0.00    +0.253 C 
ENDBRANCH   3   9
TORSDOF 1
