REMARK  Name = No_3480-gen_results/8p0m/2024-11-26-14-13-15/
REMARK  9 active torsions:
REMARK  status: ('A' for Active; 'I' for Inactive)
REMARK    1  A    between atoms: N_3  and  C_4
REMARK    2  A    between atoms: C_4  and  C_17
REMARK    3  A    between atoms: C_5  and  C_13
REMARK    4  A    between atoms: C_18  and  C_19
REMARK    5  A    between atoms: C_18  and  C_20
REMARK    6  A    between atoms: C_20  and  O_22
REMARK    7  A    between atoms: O_22  and  C_23
REMARK    8  A    between atoms: C_25  and  N_26
REMARK    9  A    between atoms: C_32  and  C_34
REMARK                            x       y       z     vdW  Elec       q    Type
REMARK                         _______ _______ _______ _____ _____    ______ ____
ROOT
ATOM      1  C   UNL A   1     -25.265  -3.315  29.548  0.00  0.00    -0.008 C 
ATOM      2  C   UNL A   1     -25.057  -4.667  29.099  0.00  0.00    +0.015 C 
ENDROOT
BRANCH   2   3
ATOM      3  C   UNL A   1     -24.315  -4.905  28.086  0.00  0.00    +0.206 C 
ATOM      4  O   UNL A   1     -23.876  -6.195  27.902  0.00  0.00    -0.215 OA
ENDBRANCH   2   3
BRANCH   1   5
ATOM      5  C   UNL A   1     -25.537  -2.364  28.423  0.00  0.00    +0.124 C 
BRANCH   5   8
ATOM      6  O   UNL A   1     -28.123  -1.335  28.487  0.00  0.00    -0.274 OA
ATOM      7  C   UNL A   1     -27.064  -0.824  28.869  0.00  0.00    +0.238 C 
ATOM      8  N   UNL A   1     -25.977  -1.138  28.814  0.00  0.00    -0.254 N 
ATOM      9  C   UNL A   1     -27.163   0.782  29.083  0.00  0.00    +0.176 C 
ATOM     10  C   UNL A   1     -26.285   1.322  29.540  0.00  0.00    +0.045 C 
ATOM     11  C   UNL A   1     -24.881   0.844  29.604  0.00  0.00    -0.008 A 
ATOM     12  C   UNL A   1     -24.684  -0.474  29.290  0.00  0.00    +0.050 A 
ATOM     13  C   UNL A   1     -23.442  -1.059  29.337  0.00  0.00    +0.015 A 
ATOM     14  C   UNL A   1     -22.288  -0.226  29.583  0.00  0.00    +0.001 A 
ATOM     15  C   UNL A   1     -22.470   1.090  29.870  0.00  0.00    -0.000 A 
ATOM     16  C   UNL A   1     -23.725   1.610  29.979  0.00  0.00    -0.003 A 
BRANCH   9  17
ATOM     17  C   UNL A   1     -28.565   1.304  29.023  0.00  0.00    +0.406 C 
ATOM     18  F   UNL A   1     -28.593   2.308  28.850  0.00  0.00    -0.170 F 
ATOM     19  F   UNL A   1     -29.194   0.663  27.935  0.00  0.00    -0.170 F 
ATOM     20  F   UNL A   1     -29.361   0.959  30.072  0.00  0.00    -0.170 F 
ENDBRANCH   9  17
ENDBRANCH   5   8
ENDBRANCH   1   5
BRANCH   2  21
ATOM     21  C   UNL A   1     -25.874  -5.724  29.640  0.00  0.00    +0.167 C 
BRANCH  21  22
ATOM     22  O   UNL A   1     -26.735  -5.252  30.567  0.00  0.00    -0.347 OA
BRANCH  22  23
ATOM     23  C   UNL A   1     -28.131  -5.291  30.292  0.00  0.00    +0.139 C 
ATOM     24  C   UNL A   1     -28.641  -3.969  29.732  0.00  0.00    +0.013 C 
ATOM     25  C   UNL A   1     -30.122  -3.853  29.974  0.00  0.00    +0.027 C 
ATOM     26  C   UNL A   1     -30.472  -5.077  30.829  0.00  0.00    +0.060 C 
ATOM     27  C   UNL A   1     -29.188  -5.785  31.070  0.00  0.00    +0.044 C 
BRANCH  25  28
ATOM     28  N   UNL A   1     -30.554  -2.697  30.361  0.00  0.00    -0.311 N 
ATOM     29  C   UNL A   1     -30.160  -2.085  31.435  0.00  0.00    +0.090 C 
ATOM     30  C   UNL A   1     -31.891  -2.312  29.961  0.00  0.00    +0.090 C 
ATOM     31  C   UNL A   1     -32.343  -0.997  30.285  0.00  0.00    +0.021 C 
ATOM     32  C   UNL A   1     -30.645  -0.840  31.988  0.00  0.00    +0.021 C 
ATOM     33  C   UNL A   1     -31.830  -0.392  31.464  0.00  0.00    +0.004 C 
ENDBRANCH  25  28
BRANCH  26  34
ATOM     34  C   UNL A   1     -31.680  -5.417  31.263  0.00  0.00    -0.021 C 
ATOM     35  C   UNL A   1     -31.818  -6.537  31.750  0.00  0.00    -0.004 C 
ENDBRANCH  26  34
ENDBRANCH  22  23
ENDBRANCH  21  22
ENDBRANCH   2  21
TORSDOF 9
