MODEL 3480
MODEL 1
REMARK VINA RESULT:    -7.182      0.000      0.000
REMARK INTER + INTRA:         -13.326
REMARK INTER:                 -10.960
REMARK INTRA:                  -2.366
REMARK UNBOUND:                -2.366
REMARK  Name = No_3480-gen_results/8p0m/2024-11-26-14-13-15/
REMARK  9 active torsions:
REMARK  status: ('A' for Active; 'I' for Inactive)
REMARK    1  A    between atoms: N_3  and  C_4
REMARK    2  A    between atoms: C_4  and  C_17
REMARK    3  A    between atoms: C_5  and  C_13
REMARK    4  A    between atoms: C_18  and  C_19
REMARK    5  A    between atoms: C_18  and  C_20
REMARK    6  A    between atoms: C_20  and  O_22
REMARK    7  A    between atoms: O_22  and  C_23
REMARK    8  A    between atoms: C_25  and  N_26
REMARK    9  A    between atoms: C_32  and  C_34
REMARK                            x       y       z     vdW  Elec       q    Type
REMARK                         _______ _______ _______ _____ _____    ______ ____
ROOT
ATOM      1  C   UNL A   1     -28.303   3.678  27.706  0.00  0.00    -0.008 C 
ATOM      2  C   UNL A   1     -27.273   4.024  28.651  0.00  0.00    +0.015 C 
ENDROOT
BRANCH   2   3
ATOM      3  C   UNL A   1     -26.522   5.038  28.447  0.00  0.00    +0.206 C 
ATOM      4  O   UNL A   1     -25.337   5.108  29.142  0.00  0.00    -0.215 OA
ENDBRANCH   2   3
BRANCH   1   5
ATOM      5  C   UNL A   1     -27.835   3.747  26.285  0.00  0.00    +0.124 C 
BRANCH   5   8
ATOM      6  O   UNL A   1     -25.642   2.049  26.532  0.00  0.00    -0.274 OA
ATOM      7  C   UNL A   1     -26.702   1.881  25.918  0.00  0.00    +0.238 C 
ATOM      8  N   UNL A   1     -27.600   2.538  25.708  0.00  0.00    -0.254 N 
ATOM      9  C   UNL A   1     -26.631   0.681  24.826  0.00  0.00    +0.176 C 
ATOM     10  C   UNL A   1     -27.578   0.374  24.298  0.00  0.00    +0.045 C 
ATOM     11  C   UNL A   1     -28.817   1.179  24.151  0.00  0.00    -0.008 A 
ATOM     12  C   UNL A   1     -28.896   2.300  24.932  0.00  0.00    +0.050 A 
ATOM     13  C   UNL A   1     -29.998   3.121  24.922  0.00  0.00    +0.015 A 
ATOM     14  C   UNL A   1     -31.041   2.876  23.954  0.00  0.00    +0.001 A 
ATOM     15  C   UNL A   1     -30.960   1.780  23.155  0.00  0.00    -0.000 A 
ATOM     16  C   UNL A   1     -29.937   0.891  23.299  0.00  0.00    -0.003 A 
BRANCH   9  17
ATOM     17  C   UNL A   1     -25.393  -0.153  24.940  0.00  0.00    +0.406 C 
ATOM     18  F   UNL A   1     -25.109  -0.287  25.910  0.00  0.00    -0.170 F 
ATOM     19  F   UNL A   1     -25.703  -1.421  24.404  0.00  0.00    -0.170 F 
ATOM     20  F   UNL A   1     -24.346   0.248  24.168  0.00  0.00    -0.170 F 
ENDBRANCH   9  17
ENDBRANCH   5   8
ENDBRANCH   1   5
BRANCH   2  21
ATOM     21  C   UNL A   1     -26.933   3.092  29.697  0.00  0.00    +0.167 C 
BRANCH  21  22
ATOM     22  O   UNL A   1     -27.462   1.873  29.458  0.00  0.00    -0.347 OA
BRANCH  22  23
ATOM     23  C   UNL A   1     -26.651   0.720  29.656  0.00  0.00    +0.139 C 
ATOM     24  C   UNL A   1     -25.189   1.082  29.882  0.00  0.00    +0.013 C 
ATOM     25  C   UNL A   1     -24.316  -0.095  29.538  0.00  0.00    +0.027 C 
ATOM     26  C   UNL A   1     -25.281  -1.135  28.954  0.00  0.00    +0.060 C 
ATOM     27  C   UNL A   1     -26.619  -0.489  28.947  0.00  0.00    +0.044 C 
BRANCH  25  28
ATOM     28  N   UNL A   1     -23.232   0.163  28.882  0.00  0.00    -0.311 N 
ATOM     29  C   UNL A   1     -22.069  -0.345  29.152  0.00  0.00    +0.090 C 
ATOM     30  C   UNL A   1     -23.136   1.449  28.223  0.00  0.00    +0.090 C 
ATOM     31  C   UNL A   1     -21.995   1.708  27.406  0.00  0.00    +0.021 C 
ATOM     32  C   UNL A   1     -20.795  -0.052  28.533  0.00  0.00    +0.021 C 
ATOM     33  C   UNL A   1     -20.771   1.079  27.758  0.00  0.00    +0.004 C 
ENDBRANCH  25  28
BRANCH  26  34
ATOM     34  C   UNL A   1     -24.967  -2.357  28.538  0.00  0.00    -0.021 C 
ATOM     35  C   UNL A   1     -24.436  -3.116  29.345  0.00  0.00    -0.004 C 
ENDBRANCH  26  34
ENDBRANCH  22  23
ENDBRANCH  21  22
ENDBRANCH   2  21
TORSDOF 9
ENDMDL
ENDMDL
