MODEL 3481
MODEL 1
REMARK VINA RESULT:    -6.447      0.000      0.000
REMARK INTER + INTRA:          -7.234
REMARK INTER:                  -6.824
REMARK INTRA:                  -0.409
REMARK UNBOUND:                -0.409
REMARK  Name = No_3481-gen_results/8p0m/2024-11-26-14-13-15/
REMARK  1 active torsions:
REMARK  status: ('A' for Active; 'I' for Inactive)
REMARK    1  A    between atoms: C_5  and  C_8
REMARK                            x       y       z     vdW  Elec       q    Type
REMARK                         _______ _______ _______ _____ _____    ______ ____
ROOT
ATOM      1  C   UNL A   1     -23.088   1.234  27.422  0.00  0.00    +0.030 A 
ATOM      2  C   UNL A   1     -23.689   0.444  27.773  0.00  0.00    +0.002 A 
ATOM      3  C   UNL A   1     -21.692   1.143  27.848  0.00  0.00    +0.140 A 
ATOM      4  C   UNL A   1     -21.230   0.103  28.617  0.00  0.00    +0.030 A 
ATOM      5  C   UNL A   1     -23.480  -0.761  28.577  0.00  0.00    +0.000 A 
ATOM      6  C   UNL A   1     -22.131  -0.859  28.994  0.00  0.00    +0.002 A 
ATOM      7  F   UNL A   1     -20.806   2.062  27.441  0.00  0.00    -0.204 F 
ENDROOT
BRANCH   5   8
ATOM      8  C   UNL A   1     -24.459  -1.773  28.960  0.00  0.00    +0.000 A 
ATOM      9  C   UNL A   1     -25.501  -1.600  29.273  0.00  0.00    +0.001 A 
ATOM     10  C   UNL A   1     -26.341  -2.107  29.600  0.00  0.00    +0.011 A 
ATOM     11  C   UNL A   1     -26.152  -3.643  29.648  0.00  0.00    +0.058 A 
ATOM     12  C   UNL A   1     -24.955  -4.058  29.268  0.00  0.00    +0.011 A 
ATOM     13  C   UNL A   1     -24.034  -3.159  28.877  0.00  0.00    +0.001 A 
ATOM     14 CL   UNL A   1     -27.418  -4.717  30.171  0.00  0.00    -0.082 Cl
ENDBRANCH   5   8
TORSDOF 1
ENDMDL
ENDMDL
