REMARK  Name = No_3481-gen_results/8p0m/2024-11-26-14-13-15/
REMARK  1 active torsions:
REMARK  status: ('A' for Active; 'I' for Inactive)
REMARK    1  A    between atoms: C_5  and  C_8
REMARK                            x       y       z     vdW  Elec       q    Type
REMARK                         _______ _______ _______ _____ _____    ______ ____
ROOT
ATOM      1  C   UNL A   1     -28.016  -0.814  28.878  0.00  0.00    +0.030 A 
ATOM      2  C   UNL A   1     -28.469  -0.785  29.829  0.00  0.00    +0.002 A 
ATOM      3  C   UNL A   1     -27.087   0.290  28.638  0.00  0.00    +0.140 A 
ATOM      4  C   UNL A   1     -26.832   1.249  29.587  0.00  0.00    +0.030 A 
ATOM      5  C   UNL A   1     -28.391   0.080  31.006  0.00  0.00    +0.000 A 
ATOM      6  C   UNL A   1     -27.494   1.152  30.784  0.00  0.00    +0.002 A 
ATOM      7  F   UNL A   1     -26.411   0.357  27.484  0.00  0.00    -0.204 F 
ENDROOT
BRANCH   5   8
ATOM      8  C   UNL A   1     -29.105  -0.051  32.272  0.00  0.00    +0.000 A 
ATOM      9  C   UNL A   1     -29.763  -0.879  32.578  0.00  0.00    +0.001 A 
ATOM     10  C   UNL A   1     -30.371  -1.183  33.358  0.00  0.00    +0.011 A 
ATOM     11  C   UNL A   1     -30.366  -0.205  34.558  0.00  0.00    +0.058 A 
ATOM     12  C   UNL A   1     -29.593   0.856  34.394  0.00  0.00    +0.011 A 
ATOM     13  C   UNL A   1     -28.893   0.998  33.254  0.00  0.00    +0.001 A 
ATOM     14 CL   UNL A   1     -31.312  -0.490  35.990  0.00  0.00    -0.082 Cl
ENDBRANCH   5   8
TORSDOF 1
