REMARK  Name = No_3482-gen_results/8p0m/2024-11-26-14-13-15/
REMARK  4 active torsions:
REMARK  status: ('A' for Active; 'I' for Inactive)
REMARK    1  A    between atoms: C_2  and  O_7
REMARK    2  A    between atoms: C_4  and  C_13
REMARK    3  A    between atoms: O_7  and  C_8
REMARK    4  A    between atoms: C_8  and  C_9
REMARK                            x       y       z     vdW  Elec       q    Type
REMARK                         _______ _______ _______ _____ _____    ______ ____
ROOT
ATOM      1  C   UNL A   1     -28.016  -0.814  28.878  0.00  0.00    +0.037 A 
ATOM      2  C   UNL A   1     -28.469  -0.785  29.829  0.00  0.00    +0.139 A 
ATOM      3  C   UNL A   1     -27.087   0.290  28.638  0.00  0.00    +0.011 A 
ATOM      4  C   UNL A   1     -26.024   0.364  29.253  0.00  0.00    +0.043 A 
ATOM      5  C   UNL A   1     -27.537  -0.619  31.088  0.00  0.00    +0.037 A 
ATOM      6  C   UNL A   1     -26.384   0.183  30.801  0.00  0.00    +0.011 A 
ENDROOT
BRANCH   4   7
ATOM      7  C   UNL A   1     -24.731   0.150  29.127  0.00  0.00    -0.051 C 
ATOM      8  C   UNL A   1     -23.733   0.532  29.224  0.00  0.00    -0.009 C 
ENDBRANCH   4   7
BRANCH   2   9
ATOM      9  O   UNL A   1     -29.510  -1.619  30.265  0.00  0.00    -0.466 OA
BRANCH   9  10
ATOM     10  C   UNL A   1     -30.724  -1.238  29.851  0.00  0.00    +0.291 C 
BRANCH  10  11
ATOM     11  C   UNL A   1     -31.569  -2.337  29.664  0.00  0.00    +0.286 C 
ATOM     12  O   UNL A   1     -32.156  -2.419  28.562  0.00  0.00    -0.269 OA
ATOM     13  N   UNL A   1     -31.735  -3.373  30.534  0.00  0.00    -0.200 NA
ATOM     14  C   UNL A   1     -32.523  -4.527  30.303  0.00  0.00    +0.139 C 
ENDBRANCH  10  11
ENDBRANCH   9  10
ENDBRANCH   2   9
TORSDOF 4
