MODEL 3482
MODEL 1
REMARK VINA RESULT:    -5.284      0.000      0.000
REMARK INTER + INTRA:          -6.842
REMARK INTER:                  -6.520
REMARK INTRA:                  -0.322
REMARK UNBOUND:                -0.322
REMARK  Name = No_3482-gen_results/8p0m/2024-11-26-14-13-15/
REMARK  4 active torsions:
REMARK  status: ('A' for Active; 'I' for Inactive)
REMARK    1  A    between atoms: C_2  and  O_7
REMARK    2  A    between atoms: C_4  and  C_13
REMARK    3  A    between atoms: O_7  and  C_8
REMARK    4  A    between atoms: C_8  and  C_9
REMARK                            x       y       z     vdW  Elec       q    Type
REMARK                         _______ _______ _______ _____ _____    ______ ____
ROOT
ATOM      1  C   UNL A   1     -23.207   0.840  28.228  0.00  0.00    +0.037 A 
ATOM      2  C   UNL A   1     -23.730  -0.033  27.953  0.00  0.00    +0.139 A 
ATOM      3  C   UNL A   1     -22.605   1.544  27.097  0.00  0.00    +0.011 A 
ATOM      4  C   UNL A   1     -23.307   2.108  26.259  0.00  0.00    +0.043 A 
ATOM      5  C   UNL A   1     -24.792   0.075  26.794  0.00  0.00    +0.037 A 
ATOM      6  C   UNL A   1     -24.415   1.046  25.809  0.00  0.00    +0.011 A 
ENDROOT
BRANCH   4   7
ATOM      7  C   UNL A   1     -23.736   3.297  25.890  0.00  0.00    -0.051 C 
ATOM      8  C   UNL A   1     -24.567   3.964  25.763  0.00  0.00    -0.009 C 
ENDBRANCH   4   7
BRANCH   2   9
ATOM      9  O   UNL A   1     -24.266  -0.979  28.839  0.00  0.00    -0.466 OA
BRANCH   9  10
ATOM     10  C   UNL A   1     -23.455  -2.014  29.088  0.00  0.00    +0.291 C 
BRANCH  10  11
ATOM     11  C   UNL A   1     -24.177  -3.200  29.257  0.00  0.00    +0.286 C 
ATOM     12  O   UNL A   1     -25.274  -3.116  29.853  0.00  0.00    -0.269 OA
ATOM     13  N   UNL A   1     -23.839  -4.419  28.749  0.00  0.00    -0.200 NA
ATOM     14  C   UNL A   1     -24.617  -5.599  28.847  0.00  0.00    +0.139 C 
ENDBRANCH  10  11
ENDBRANCH   9  10
ENDBRANCH   2   9
TORSDOF 4
ENDMDL
ENDMDL
