REMARK  Name = No_3483-gen_results/8p0m/2024-11-26-14-13-15/
REMARK  2 active torsions:
REMARK  status: ('A' for Active; 'I' for Inactive)
REMARK    1  A    between atoms: C_4  and  C_10
REMARK    2  A    between atoms: C_12  and  C_17
REMARK                            x       y       z     vdW  Elec       q    Type
REMARK                         _______ _______ _______ _____ _____    ______ ____
ROOT
ATOM      1  C   UNL A   1     -27.769   1.458  25.731  0.00  0.00    +0.008 C 
ATOM      2  C   UNL A   1     -27.445   2.729  26.009  0.00  0.00    +0.000 C 
ATOM      3  C   UNL A   1     -29.244   1.446  25.415  0.00  0.00    +0.095 C 
ATOM      4  C   UNL A   1     -27.091   0.952  24.423  0.00  0.00    +0.000 C 
ATOM      5  C   UNL A   1     -29.904   2.485  25.396  0.00  0.00    +0.009 C 
ATOM      6  C   UNL A   1     -28.082   3.972  25.866  0.00  0.00    +0.000 C 
ATOM      7  C   UNL A   1     -29.411   3.842  25.551  0.00  0.00    +0.000 C 
ENDROOT
BRANCH   1  11
ATOM      8  C   UNL A   1     -28.016  -0.814  28.878  0.00  0.00    +0.012 C 
ATOM      9  C   UNL A   1     -28.469  -0.785  29.829  0.00  0.00    +0.271 C 
ATOM     10  C   UNL A   1     -28.196   0.348  28.055  0.00  0.00    +0.027 C 
ATOM     11  C   UNL A   1     -27.442   0.510  26.795  0.00  0.00    +0.004 C 
ATOM     12  C   UNL A   1     -26.169  -0.079  26.679  0.00  0.00    +0.001 C 
ATOM     13  C   UNL A   1     -25.731  -0.961  27.688  0.00  0.00    +0.004 C 
ATOM     14  C   UNL A   1     -26.504  -1.222  28.758  0.00  0.00    +0.027 C 
ATOM     15  F   UNL A   1     -29.634  -0.459  29.946  0.00  0.00    -0.173 F 
ATOM     16  F   UNL A   1     -28.186  -1.735  30.826  0.00  0.00    -0.173 F 
ENDBRANCH   1  11
BRANCH   3  17
ATOM     17  C   UNL A   1     -29.911   0.152  25.276  0.00  0.00    +0.398 C 
ATOM     18  F   UNL A   1     -30.638  -0.135  26.238  0.00  0.00    -0.170 F 
ATOM     19  F   UNL A   1     -28.958  -0.852  25.240  0.00  0.00    -0.170 F 
ATOM     20  F   UNL A   1     -30.633   0.209  24.150  0.00  0.00    -0.170 F 
ENDBRANCH   3  17
TORSDOF 2
