REMARK  Name = No_3484-gen_results/8p0m/2024-11-26-14-13-15/
REMARK  10 active torsions:
REMARK  status: ('A' for Active; 'I' for Inactive)
REMARK    1  A    between atoms: C_1  and  C_2
REMARK    2  A    between atoms: C_1  and  C_8
REMARK    3  A    between atoms: C_3  and  C_19
REMARK    4  A    between atoms: C_5  and  C_11
REMARK    5  A    between atoms: N_21  and  C_23
REMARK    6  A    between atoms: C_23  and  C_24
REMARK    7  A    between atoms: C_24  and  C_25
REMARK    8  A    between atoms: N_29  and  C_31
REMARK    9  A    between atoms: C_31  and  C_32
REMARK   10  A    between atoms: C_33  and  C_34
REMARK                            x       y       z     vdW  Elec       q    Type
REMARK                         _______ _______ _______ _____ _____    ______ ____
ROOT
ATOM      1  C   UNL A   1     -27.064  -0.119  28.608  0.00  0.00    -0.009 A 
ATOM      2  C   UNL A   1     -27.001   0.691  27.491  0.00  0.00    +0.050 A 
ATOM      3  C   UNL A   1     -25.855   1.482  27.083  0.00  0.00    +0.009 A 
ATOM      4  C   UNL A   1     -24.901   1.389  27.592  0.00  0.00    +0.059 A 
ATOM      5  C   UNL A   1     -24.678   0.576  28.830  0.00  0.00    +0.004 A 
ATOM      6  C   UNL A   1     -25.770  -0.205  29.280  0.00  0.00    -0.004 A 
ENDROOT
BRANCH   2   7
ATOM      7  C   UNL A   1     -28.245   0.777  26.644  0.00  0.00    +0.249 C 
ATOM      8  O   UNL A   1     -29.244   1.194  27.014  0.00  0.00    -0.270 OA
ATOM      9  N   UNL A   1     -28.061   0.667  25.316  0.00  0.00    -0.274 N 
ATOM     10  C   UNL A   1     -26.941   0.313  24.645  0.00  0.00    +0.115 C 
BRANCH   9  11
ATOM     11  C   UNL A   1     -29.232   0.653  24.452  0.00  0.00    +0.094 C 
BRANCH  11  12
ATOM     12  C   UNL A   1     -29.907  -0.482  24.223  0.00  0.00    +0.024 C 
BRANCH  12  13
ATOM     13  C   UNL A   1     -30.861  -0.833  25.085  0.00  0.00    +0.035 C 
ATOM     14  C   UNL A   1     -31.558  -2.131  24.913  0.00  0.00    +0.092 C 
ATOM     15  N   UNL A   1     -32.440  -2.461  25.835  0.00  0.00    -0.201 NA
ATOM     16  C   UNL A   1     -32.603  -1.722  26.921  0.00  0.00    +0.164 C 
ATOM     17  N   UNL A   1     -32.017  -0.598  27.138  0.00  0.00    -0.254 NA
ATOM     18  C   UNL A   1     -31.171  -0.173  26.277  0.00  0.00    +0.075 C 
BRANCH  17  19
ATOM     19  C   UNL A   1     -32.311   0.146  28.416  0.00  0.00    +0.100 C 
BRANCH  19  20
ATOM     20  C   UNL A   1     -32.572   1.480  28.376  0.00  0.00    -0.009 C 
ATOM     21  C   UNL A   1     -33.483   1.988  27.673  0.00  0.00    -0.003 C 
BRANCH  21  22
ATOM     22  C   UNL A   1     -33.660   3.097  27.524  0.00  0.00    -0.000 C 
ATOM     23  C   UNL A   1     -32.868   4.149  28.198  0.00  0.00    -0.000 C 
ENDBRANCH  21  22
ENDBRANCH  19  20
ENDBRANCH  17  19
ENDBRANCH  12  13
ENDBRANCH  11  12
ENDBRANCH   9  11
ENDBRANCH   2   7
BRANCH   4  24
ATOM     24  C   UNL A   1     -23.577   2.192  27.291  0.00  0.00    +0.297 C 
ATOM     25  N   UNL A   1     -23.493   2.646  26.029  0.00  0.00    -0.102 NA
ATOM     26  O   UNL A   1     -22.525   2.218  27.974  0.00  0.00    -0.264 OA
ENDBRANCH   4  24
BRANCH   1  27
ATOM     27  C   UNL A   1     -28.016  -0.814  28.878  0.00  0.00    +0.112 C 
BRANCH  27  28
ATOM     28  C   UNL A   1     -28.643  -0.446  30.238  0.00  0.00    +0.230 C 
ATOM     29  O   UNL A   1     -28.588   0.398  30.816  0.00  0.00    -0.275 OA
ATOM     30  N   UNL A   1     -29.074  -1.706  30.882  0.00  0.00    -0.279 N 
ATOM     31  C   UNL A   1     -29.705  -1.627  32.245  0.00  0.00    +0.093 C 
ATOM     32  C   UNL A   1     -29.005  -3.006  30.382  0.00  0.00    +0.093 C 
ATOM     33  C   UNL A   1     -29.697  -3.919  30.768  0.00  0.00    +0.022 C 
ATOM     34  C   UNL A   1     -30.015  -4.112  32.095  0.00  0.00    +0.004 C 
ATOM     35  C   UNL A   1     -30.427  -2.787  32.734  0.00  0.00    +0.022 C 
ENDBRANCH  27  28
ENDBRANCH   1  27
TORSDOF 10
