MODEL 3484
MODEL 1
REMARK VINA RESULT:    -6.568      0.000      0.000
REMARK INTER + INTRA:         -12.284
REMARK INTER:                 -10.408
REMARK INTRA:                  -1.876
REMARK UNBOUND:                -1.876
REMARK  Name = No_3484-gen_results/8p0m/2024-11-26-14-13-15/
REMARK  10 active torsions:
REMARK  status: ('A' for Active; 'I' for Inactive)
REMARK    1  A    between atoms: C_1  and  C_2
REMARK    2  A    between atoms: C_1  and  C_8
REMARK    3  A    between atoms: C_3  and  C_19
REMARK    4  A    between atoms: C_5  and  C_11
REMARK    5  A    between atoms: N_21  and  C_23
REMARK    6  A    between atoms: C_23  and  C_24
REMARK    7  A    between atoms: C_24  and  C_25
REMARK    8  A    between atoms: N_29  and  C_31
REMARK    9  A    between atoms: C_31  and  C_32
REMARK   10  A    between atoms: C_33  and  C_34
REMARK                            x       y       z     vdW  Elec       q    Type
REMARK                         _______ _______ _______ _____ _____    ______ ____
ROOT
ATOM      1  C   UNL A   1     -19.601 -20.427   6.010  0.00  0.00    -0.009 A 
ATOM      2  C   UNL A   1     -19.926 -21.337   6.997  0.00  0.00    +0.050 A 
ATOM      3  C   UNL A   1     -18.988 -21.975   7.901  0.00  0.00    +0.009 A 
ATOM      4  C   UNL A   1     -17.945 -21.674   7.930  0.00  0.00    +0.059 A 
ATOM      5  C   UNL A   1     -17.318 -20.702   6.978  0.00  0.00    +0.004 A 
ATOM      6  C   UNL A   1     -18.188 -20.060   6.064  0.00  0.00    -0.004 A 
ENDROOT
BRANCH   2   7
ATOM      7  C   UNL A   1     -21.380 -21.715   7.119  0.00  0.00    +0.249 C 
ATOM      8  O   UNL A   1     -21.854 -22.614   6.594  0.00  0.00    -0.270 OA
ATOM      9  N   UNL A   1     -22.046 -21.163   8.149  0.00  0.00    -0.274 N 
ATOM     10  C   UNL A   1     -21.644 -20.179   8.986  0.00  0.00    +0.115 C 
BRANCH   9  11
ATOM     11  C   UNL A   1     -23.474 -21.419   8.269  0.00  0.00    +0.094 C 
BRANCH  11  12
ATOM     12  C   UNL A   1     -24.328 -20.434   8.579  0.00  0.00    +0.024 C 
BRANCH  12  13
ATOM     13  C   UNL A   1     -25.254 -20.097   7.682  0.00  0.00    +0.035 C 
ATOM     14  C   UNL A   1     -25.595 -21.046   6.594  0.00  0.00    +0.092 C 
ATOM     15  N   UNL A   1     -26.569 -20.693   5.778  0.00  0.00    -0.201 NA
ATOM     16  C   UNL A   1     -27.283 -19.601   5.998  0.00  0.00    +0.164 C 
ATOM     17  N   UNL A   1     -27.050 -18.748   6.932  0.00  0.00    -0.254 NA
ATOM     18  C   UNL A   1     -26.096 -18.984   7.752  0.00  0.00    +0.075 C 
BRANCH  17  19
ATOM     19  C   UNL A   1     -27.938 -17.536   7.055  0.00  0.00    +0.100 C 
BRANCH  19  20
ATOM     20  C   UNL A   1     -28.033 -16.886   8.246  0.00  0.00    -0.009 C 
ATOM     21  C   UNL A   1     -29.121 -16.482   8.731  0.00  0.00    -0.003 C 
BRANCH  21  22
ATOM     22  C   UNL A   1     -29.231 -15.841   9.659  0.00  0.00    -0.000 C 
ATOM     23  C   UNL A   1     -30.502 -15.688  10.401  0.00  0.00    -0.000 C 
ENDBRANCH  21  22
ENDBRANCH  19  20
ENDBRANCH  17  19
ENDBRANCH  12  13
ENDBRANCH  11  12
ENDBRANCH   9  11
ENDBRANCH   2   7
BRANCH   4  24
ATOM     24  C   UNL A   1     -16.801 -22.284   8.828  0.00  0.00    +0.297 C 
ATOM     25  N   UNL A   1     -15.602 -22.328   8.223  0.00  0.00    -0.102 NA
ATOM     26  O   UNL A   1     -16.929 -22.952   9.883  0.00  0.00    -0.264 OA
ENDBRANCH   4  24
BRANCH   1  27
ATOM     27  C   UNL A   1     -20.421 -19.867   5.320  0.00  0.00    +0.112 C 
BRANCH  27  28
ATOM     28  C   UNL A   1     -20.600 -18.385   5.708  0.00  0.00    +0.230 C 
ATOM     29  O   UNL A   1     -20.043 -17.754   6.292  0.00  0.00    -0.275 OA
ATOM     30  N   UNL A   1     -22.008 -18.023   5.434  0.00  0.00    -0.279 N 
ATOM     31  C   UNL A   1     -22.455 -16.622   5.750  0.00  0.00    +0.093 C 
ATOM     32  C   UNL A   1     -23.016 -18.810   4.879  0.00  0.00    +0.093 C 
ATOM     33  C   UNL A   1     -24.003 -18.367   4.339  0.00  0.00    +0.022 C 
ATOM     34  C   UNL A   1     -24.689 -17.269   4.811  0.00  0.00    +0.004 C 
ATOM     35  C   UNL A   1     -23.709 -16.159   5.185  0.00  0.00    +0.022 C 
ENDBRANCH  27  28
ENDBRANCH   1  27
TORSDOF 10
ENDMDL
ENDMDL
