REMARK  Name = No_3485-gen_results/8p0m/2024-11-26-14-13-15/
REMARK  8 active torsions:
REMARK  status: ('A' for Active; 'I' for Inactive)
REMARK    1  A    between atoms: C_4  and  C_11
REMARK    2  A    between atoms: C_7  and  C_26
REMARK    3  A    between atoms: C_12  and  O_17
REMARK    4  A    between atoms: O_17  and  C_18
REMARK    5  A    between atoms: C_18  and  C_19
REMARK    6  A    between atoms: N_21  and  C_22
REMARK    7  A    between atoms: C_22  and  C_23
REMARK    8  A    between atoms: C_23  and  C_34
REMARK                            x       y       z     vdW  Elec       q    Type
REMARK                         _______ _______ _______ _____ _____    ______ ____
ROOT
ATOM      1  C   UNL A   1     -28.016  -0.814  28.878  0.00  0.00    +0.004 A 
ATOM      2  C   UNL A   1     -27.064  -0.119  28.608  0.00  0.00    +0.000 A 
ATOM      3  C   UNL A   1     -25.765  -0.390  29.036  0.00  0.00    +0.000 A 
ATOM      4  C   UNL A   1     -24.552   0.406  28.765  0.00  0.00    +0.003 A 
ATOM      5  C   UNL A   1     -23.230   0.118  29.258  0.00  0.00    +0.000 A 
ATOM      6  C   UNL A   1     -23.094  -1.131  29.873  0.00  0.00    +0.000 A 
ATOM      7  C   UNL A   1     -27.798  -1.934  29.856  0.00  0.00    +0.054 A 
ATOM      8  C   UNL A   1     -26.542  -2.327  30.258  0.00  0.00    +0.004 A 
ATOM      9  C   UNL A   1     -25.451  -1.552  29.908  0.00  0.00    +0.000 A 
ATOM     10  C   UNL A   1     -24.156  -1.910  30.281  0.00  0.00    +0.000 A 
ENDROOT
BRANCH   7  11
ATOM     11  C   UNL A   1     -29.024  -2.724  30.272  0.00  0.00    +0.249 C 
ATOM     12  N   UNL A   1     -30.150  -2.125  30.520  0.00  0.00    -0.276 N 
ATOM     13  C   UNL A   1     -30.236  -1.004  30.914  0.00  0.00    +0.094 C 
ATOM     14  C   UNL A   1     -31.608  -0.287  30.848  0.00  0.00    +0.022 C 
ATOM     15  O   UNL A   1     -28.822  -3.953  30.452  0.00  0.00    -0.270 OA
ATOM     16  C   UNL A   1     -31.324  -2.912  30.296  0.00  0.00    +0.094 C 
ATOM     17  C   UNL A   1     -32.525  -2.229  29.998  0.00  0.00    +0.022 C 
ATOM     18  C   UNL A   1     -32.684  -0.965  30.538  0.00  0.00    +0.004 C 
ENDBRANCH   7  11
BRANCH   4  19
ATOM     19  C   UNL A   1     -24.645   1.658  27.946  0.00  0.00    +0.034 A 
ATOM     20  C   UNL A   1     -24.896   2.756  28.561  0.00  0.00    +0.139 A 
ATOM     21  C   UNL A   1     -25.173   3.934  27.844  0.00  0.00    +0.037 A 
ATOM     22  C   UNL A   1     -24.484   1.557  26.589  0.00  0.00    +0.003 A 
ATOM     23  C   UNL A   1     -24.632   2.694  25.785  0.00  0.00    +0.000 A 
ATOM     24  C   UNL A   1     -24.890   3.923  26.432  0.00  0.00    +0.003 A 
BRANCH  20  25
ATOM     25  O   UNL A   1     -25.076   2.911  29.907  0.00  0.00    -0.466 OA
BRANCH  25  26
ATOM     26  C   UNL A   1     -25.914   3.756  30.533  0.00  0.00    +0.291 C 
BRANCH  26  27
ATOM     27  C   UNL A   1     -26.700   3.153  31.535  0.00  0.00    +0.286 C 
ATOM     28  O   UNL A   1     -27.813   3.233  31.490  0.00  0.00    -0.269 OA
ATOM     29  N   UNL A   1     -26.024   2.463  32.539  0.00  0.00    -0.198 NA
BRANCH  29  30
ATOM     30  C   UNL A   1     -26.671   1.658  33.512  0.00  0.00    +0.137 C 
BRANCH  30  31
ATOM     31  C   UNL A   1     -26.259   0.293  33.361  0.00  0.00    -0.027 C 
ATOM     32  C   UNL A   1     -25.121  -0.001  33.197  0.00  0.00    -0.033 C 
ATOM     33  C   UNL A   1     -24.608  -1.360  33.306  0.00  0.00    +0.030 C 
BRANCH  31  34
ATOM     34  C   UNL A   1     -27.329  -0.680  33.475  0.00  0.00    +0.023 C 
ATOM     35  C   UNL A   1     -28.419  -0.530  34.326  0.00  0.00    +0.005 C 
ENDBRANCH  31  34
ENDBRANCH  30  31
ENDBRANCH  29  30
ENDBRANCH  26  27
ENDBRANCH  25  26
ENDBRANCH  20  25
ENDBRANCH   4  19
TORSDOF 8
