MODEL 3485
MODEL 1
REMARK VINA RESULT:    -6.890      0.000      0.000
REMARK INTER + INTRA:         -13.624
REMARK INTER:                 -10.113
REMARK INTRA:                  -3.511
REMARK UNBOUND:                -3.511
REMARK  Name = No_3485-gen_results/8p0m/2024-11-26-14-13-15/
REMARK  8 active torsions:
REMARK  status: ('A' for Active; 'I' for Inactive)
REMARK    1  A    between atoms: C_4  and  C_11
REMARK    2  A    between atoms: C_7  and  C_26
REMARK    3  A    between atoms: C_12  and  O_17
REMARK    4  A    between atoms: O_17  and  C_18
REMARK    5  A    between atoms: C_18  and  C_19
REMARK    6  A    between atoms: N_21  and  C_22
REMARK    7  A    between atoms: C_22  and  C_23
REMARK    8  A    between atoms: C_23  and  C_34
REMARK                            x       y       z     vdW  Elec       q    Type
REMARK                         _______ _______ _______ _____ _____    ______ ____
ROOT
ATOM      1  C   UNL A   1     -27.048   0.846  26.891  0.00  0.00    +0.004 A 
ATOM      2  C   UNL A   1     -26.106   0.568  27.597  0.00  0.00    +0.000 A 
ATOM      3  C   UNL A   1     -24.799   0.977  27.337  0.00  0.00    +0.000 A 
ATOM      4  C   UNL A   1     -23.594   0.675  28.133  0.00  0.00    +0.003 A 
ATOM      5  C   UNL A   1     -22.250   1.081  27.812  0.00  0.00    +0.000 A 
ATOM      6  C   UNL A   1     -22.152   1.999  26.762  0.00  0.00    +0.000 A 
ATOM      7  C   UNL A   1     -26.754   1.534  25.588  0.00  0.00    +0.054 A 
ATOM      8  C   UNL A   1     -25.513   2.052  25.291  0.00  0.00    +0.004 A 
ATOM      9  C   UNL A   1     -24.449   1.767  26.127  0.00  0.00    +0.000 A 
ATOM     10  C   UNL A   1     -23.174   2.273  25.878  0.00  0.00    +0.000 A 
ENDROOT
BRANCH   7  11
ATOM     11  C   UNL A   1     -27.931   1.774  24.662  0.00  0.00    +0.249 C 
ATOM     12  N   UNL A   1     -28.584   0.777  24.143  0.00  0.00    -0.276 N 
ATOM     13  C   UNL A   1     -28.105  -0.291  23.923  0.00  0.00    +0.094 C 
ATOM     14  C   UNL A   1     -29.042  -1.489  23.630  0.00  0.00    +0.022 C 
ATOM     15  O   UNL A   1     -28.136   2.981  24.373  0.00  0.00    -0.270 OA
ATOM     16  C   UNL A   1     -29.955   1.041  23.830  0.00  0.00    +0.094 C 
ATOM     17  C   UNL A   1     -30.845  -0.056  23.805  0.00  0.00    +0.022 C 
ATOM     18  C   UNL A   1     -30.323  -1.286  23.447  0.00  0.00    +0.004 C 
ENDBRANCH   7  11
BRANCH   4  19
ATOM     19  C   UNL A   1     -23.706  -0.159  29.374  0.00  0.00    +0.034 A 
ATOM     20  C   UNL A   1     -23.646   0.444  30.505  0.00  0.00    +0.139 A 
ATOM     21  C   UNL A   1     -23.565  -0.286  31.705  0.00  0.00    +0.037 A 
ATOM     22  C   UNL A   1     -23.838  -1.515  29.232  0.00  0.00    +0.003 A 
ATOM     23  C   UNL A   1     -23.877  -2.332  30.369  0.00  0.00    +0.000 A 
ATOM     24  C   UNL A   1     -23.832  -1.699  31.631  0.00  0.00    +0.003 A 
BRANCH  20  25
ATOM     25  O   UNL A   1     -23.504   1.789  30.703  0.00  0.00    -0.466 OA
BRANCH  25  26
ATOM     26  C   UNL A   1     -24.277   2.596  31.451  0.00  0.00    +0.291 C 
BRANCH  26  27
ATOM     27  C   UNL A   1     -25.525   2.899  30.872  0.00  0.00    +0.286 C 
ATOM     28  O   UNL A   1     -26.466   2.652  31.421  0.00  0.00    -0.269 OA
ATOM     29  N   UNL A   1     -25.510   3.519  29.624  0.00  0.00    -0.198 NA
BRANCH  29  30
ATOM     30  C   UNL A   1     -26.667   4.045  28.994  0.00  0.00    +0.137 C 
BRANCH  30  31
ATOM     31  C   UNL A   1     -26.287   4.775  27.820  0.00  0.00    -0.027 C 
ATOM     32  C   UNL A   1     -25.164   5.106  27.626  0.00  0.00    -0.033 C 
ATOM     33  C   UNL A   1     -24.671   5.603  26.349  0.00  0.00    +0.030 C 
BRANCH  31  34
ATOM     34  C   UNL A   1     -27.368   5.024  26.884  0.00  0.00    +0.023 C 
ATOM     35  C   UNL A   1     -28.697   5.174  27.265  0.00  0.00    +0.005 C 
ENDBRANCH  31  34
ENDBRANCH  30  31
ENDBRANCH  29  30
ENDBRANCH  26  27
ENDBRANCH  25  26
ENDBRANCH  20  25
ENDBRANCH   4  19
TORSDOF 8
ENDMDL
ENDMDL
