REMARK  Name = No_3486-gen_results/8p0m/2024-11-26-14-13-15/
REMARK  0 active torsions:
REMARK  status: ('A' for Active; 'I' for Inactive)
REMARK                            x       y       z     vdW  Elec       q    Type
REMARK                         _______ _______ _______ _____ _____    ______ ____
ROOT
ATOM      1  C   UNL A   1     -28.016  -0.814  28.878  0.00  0.00    +0.030 C 
ATOM      2  C   UNL A   1     -27.064  -0.119  28.608  0.00  0.00    +0.033 C 
ATOM      3  C   UNL A   1     -27.001   0.691  27.491  0.00  0.00    +0.005 C 
ATOM      4  C   UNL A   1     -28.142   0.828  26.799  0.00  0.00    +0.001 C 
ATOM      5  C   UNL A   1     -27.965  -1.517  30.166  0.00  0.00    +0.125 C 
ATOM      6  C   UNL A   1     -29.272   0.171  27.215  0.00  0.00    +0.005 C 
ATOM      7  C   UNL A   1     -29.203  -0.540  28.281  0.00  0.00    +0.033 C 
ATOM      8  O   UNL A   1     -28.760  -1.962  30.729  0.00  0.00    -0.232 OA
ENDROOT
TORSDOF 0
