MODEL 3487
MODEL 1
REMARK VINA RESULT:    -7.010      0.000      0.000
REMARK INTER + INTRA:          -8.932
REMARK INTER:                  -8.239
REMARK INTRA:                  -0.693
REMARK UNBOUND:                -0.693
REMARK  Name = No_3487-gen_results/8p0m/2024-11-26-14-13-15/
REMARK  3 active torsions:
REMARK  status: ('A' for Active; 'I' for Inactive)
REMARK    1  A    between atoms: C_1  and  C_3
REMARK    2  A    between atoms: C_3  and  C_9
REMARK    3  A    between atoms: C_9  and  C_10
REMARK                            x       y       z     vdW  Elec       q    Type
REMARK                         _______ _______ _______ _____ _____    ______ ____
ROOT
ATOM      1  C   UNL A   1     -23.803  -0.416  29.094  0.00  0.00    +0.106 C 
ATOM      2 CL   UNL A   1     -22.919  -0.302  30.458  0.00  0.00    -0.110 Cl
ENDROOT
BRANCH   1   3
ATOM      3  C   UNL A   1     -23.403   0.336  27.844  0.00  0.00    -0.007 A 
ATOM      4  C   UNL A   1     -24.186   0.544  27.171  0.00  0.00    -0.003 A 
ATOM      5  C   UNL A   1     -24.032   1.600  26.208  0.00  0.00    -0.000 A 
ATOM      6  C   UNL A   1     -22.752   2.201  26.200  0.00  0.00    -0.000 A 
ATOM      7  C   UNL A   1     -21.909   1.942  27.235  0.00  0.00    -0.000 A 
ATOM      8  C   UNL A   1     -22.245   1.041  28.173  0.00  0.00    -0.003 A 
ENDBRANCH   1   3
BRANCH   1   9
ATOM      9  C   UNL A   1     -25.039  -1.156  29.386  0.00  0.00    +0.047 C 
BRANCH   9  10
ATOM     10  C   UNL A   1     -25.130  -2.488  29.276  0.00  0.00    -0.021 A 
ATOM     11  C   UNL A   1     -24.117  -3.227  28.528  0.00  0.00    -0.004 A 
ATOM     12  C   UNL A   1     -24.009  -4.646  28.540  0.00  0.00    -0.000 A 
ATOM     13  C   UNL A   1     -25.087  -5.339  29.038  0.00  0.00    -0.000 A 
ATOM     14  C   UNL A   1     -26.185  -4.660  29.670  0.00  0.00    -0.000 A 
ATOM     15  C   UNL A   1     -26.126  -3.280  29.802  0.00  0.00    -0.004 A 
ENDBRANCH   9  10
ENDBRANCH   1   9
TORSDOF 3
ENDMDL
ENDMDL
