REMARK  Name = No_3487-gen_results/8p0m/2024-11-26-14-13-15/
REMARK  3 active torsions:
REMARK  status: ('A' for Active; 'I' for Inactive)
REMARK    1  A    between atoms: C_1  and  C_3
REMARK    2  A    between atoms: C_3  and  C_9
REMARK    3  A    between atoms: C_9  and  C_10
REMARK                            x       y       z     vdW  Elec       q    Type
REMARK                         _______ _______ _______ _____ _____    ______ ____
ROOT
ATOM      1  C   UNL A   1     -26.504  -0.778  28.877  0.00  0.00    +0.106 C 
ATOM      2 CL   UNL A   1     -25.638  -1.979  29.556  0.00  0.00    -0.110 Cl
ENDROOT
BRANCH   1   3
ATOM      3  C   UNL A   1     -28.016  -0.814  28.878  0.00  0.00    -0.007 A 
ATOM      4  C   UNL A   1     -28.469  -0.785  29.829  0.00  0.00    -0.003 A 
ATOM      5  C   UNL A   1     -29.841  -0.373  29.950  0.00  0.00    -0.000 A 
ATOM      6  C   UNL A   1     -30.491  -0.141  28.716  0.00  0.00    -0.000 A 
ATOM      7  C   UNL A   1     -29.733  -0.054  27.590  0.00  0.00    -0.000 A 
ATOM      8  C   UNL A   1     -28.414  -0.307  27.641  0.00  0.00    -0.003 A 
ENDBRANCH   1   3
BRANCH   1   9
ATOM      9  C   UNL A   1     -25.590   0.127  28.166  0.00  0.00    +0.047 C 
BRANCH   9  10
ATOM     10  C   UNL A   1     -24.277   0.184  28.427  0.00  0.00    -0.021 A 
ATOM     11  C   UNL A   1     -23.465   1.247  27.843  0.00  0.00    -0.004 A 
ATOM     12  C   UNL A   1     -22.123   1.516  28.231  0.00  0.00    -0.000 A 
ATOM     13  C   UNL A   1     -21.490   0.541  28.966  0.00  0.00    -0.000 A 
ATOM     14  C   UNL A   1     -22.204  -0.604  29.461  0.00  0.00    -0.000 A 
ATOM     15  C   UNL A   1     -23.566  -0.697  29.211  0.00  0.00    -0.004 A 
ENDBRANCH   9  10
ENDBRANCH   1   9
TORSDOF 3
