MODEL 3488
MODEL 1
REMARK VINA RESULT:    -3.785      0.000      0.000
REMARK INTER + INTRA:          -4.090
REMARK INTER:                  -4.448
REMARK INTRA:                   0.358
REMARK UNBOUND:                 0.358
REMARK  Name = No_3488-gen_results/8p0m/2024-11-26-14-13-15/
REMARK  3 active torsions:
REMARK  status: ('A' for Active; 'I' for Inactive)
REMARK    1  A    between atoms: C_1  and  C_3
REMARK    2  A    between atoms: C_4  and  C_5
REMARK    3  A    between atoms: C_5  and  C_7
REMARK                            x       y       z     vdW  Elec       q    Type
REMARK                         _______ _______ _______ _____ _____    ______ ____
ROOT
ATOM      1  C   UNL A   1     -11.861  -2.445  37.849  0.00  0.00    +0.046 C 
ATOM      2  C   UNL A   1     -12.301  -2.666  39.195  0.00  0.00    -0.018 C 
ENDROOT
BRANCH   1   3
ATOM      3  C   UNL A   1     -10.838  -1.464  37.842  0.00  0.00    -0.051 C 
ATOM      4  C   UNL A   1     -10.271  -0.827  37.224  0.00  0.00    -0.009 C 
ENDBRANCH   1   3
BRANCH   2   5
ATOM      5  C   UNL A   1     -11.735  -1.819  40.203  0.00  0.00    +0.023 C 
ATOM      6  C   UNL A   1     -10.624  -2.285  41.005  0.00  0.00    +0.005 C 
BRANCH   5   7
ATOM      7  C   UNL A   1     -12.308  -0.557  40.450  0.00  0.00    +0.004 C 
ATOM      8  C   UNL A   1     -13.233  -0.327  41.595  0.00  0.00    +0.000 C 
ENDBRANCH   5   7
ENDBRANCH   2   5
TORSDOF 3
ENDMDL
ENDMDL
