REMARK  Name = No_3488-gen_results/8p0m/2024-11-26-14-13-15/
REMARK  3 active torsions:
REMARK  status: ('A' for Active; 'I' for Inactive)
REMARK    1  A    between atoms: C_1  and  C_3
REMARK    2  A    between atoms: C_4  and  C_5
REMARK    3  A    between atoms: C_5  and  C_7
REMARK                            x       y       z     vdW  Elec       q    Type
REMARK                         _______ _______ _______ _____ _____    ______ ____
ROOT
ATOM      1  C   UNL A   1     -27.217  -0.083  27.964  0.00  0.00    +0.046 C 
ATOM      2  C   UNL A   1     -27.090   1.270  28.418  0.00  0.00    -0.018 C 
ENDROOT
BRANCH   1   3
ATOM      3  C   UNL A   1     -28.016  -0.814  28.878  0.00  0.00    -0.051 C 
ATOM      4  C   UNL A   1     -28.469  -0.785  29.829  0.00  0.00    -0.009 C 
ENDBRANCH   1   3
BRANCH   2   5
ATOM      5  C   UNL A   1     -27.666   1.576  29.694  0.00  0.00    +0.023 C 
ATOM      6  C   UNL A   1     -27.529   2.904  30.254  0.00  0.00    +0.005 C 
BRANCH   5   7
ATOM      7  C   UNL A   1     -28.309   0.561  30.427  0.00  0.00    +0.004 C 
ATOM      8  C   UNL A   1     -28.922   0.824  31.759  0.00  0.00    +0.000 C 
ENDBRANCH   5   7
ENDBRANCH   2   5
TORSDOF 3
