MODEL 3489
MODEL 1
REMARK VINA RESULT:    -7.284      0.000      0.000
REMARK INTER + INTRA:         -11.752
REMARK INTER:                  -9.840
REMARK INTRA:                  -1.912
REMARK UNBOUND:                -1.912
REMARK  Name = No_3489-gen_results/8p0m/2024-11-26-14-13-15/
REMARK  6 active torsions:
REMARK  status: ('A' for Active; 'I' for Inactive)
REMARK    1  A    between atoms: C_3  and  C_8
REMARK    2  A    between atoms: C_5  and  C_6
REMARK    3  A    between atoms: C_8  and  C_9
REMARK    4  A    between atoms: C_8  and  C_18
REMARK    5  A    between atoms: C_12  and  C_13
REMARK    6  A    between atoms: C_24  and  C_26
REMARK                            x       y       z     vdW  Elec       q    Type
REMARK                         _______ _______ _______ _____ _____    ______ ____
ROOT
ATOM      1  C   UNL A   1     -26.411   2.487  25.714  0.00  0.00    -0.004 A 
ATOM      2  C   UNL A   1     -27.284   2.385  25.133  0.00  0.00    -0.000 A 
ATOM      3  C   UNL A   1     -25.504   1.337  25.615  0.00  0.00    -0.019 A 
ATOM      4  C   UNL A   1     -25.847   0.205  24.999  0.00  0.00    -0.004 A 
ATOM      5  C   UNL A   1     -27.869   1.277  24.416  0.00  0.00    -0.000 A 
ATOM      6  C   UNL A   1     -27.017   0.218  24.372  0.00  0.00    -0.000 A 
ENDROOT
BRANCH   5   7
ATOM      7  C   UNL A   1     -29.130   1.273  23.754  0.00  0.00    +0.000 A 
ATOM      8  C   UNL A   1     -29.579   2.200  23.150  0.00  0.00    +0.000 A 
ATOM      9  C   UNL A   1     -30.899   2.198  22.577  0.00  0.00    +0.000 A 
ATOM     10  C   UNL A   1     -31.684   1.066  22.679  0.00  0.00    +0.002 A 
ATOM     11  C   UNL A   1     -31.179   0.007  23.356  0.00  0.00    +0.019 A 
ATOM     12  C   UNL A   1     -29.932   0.044  23.922  0.00  0.00    +0.002 A 
BRANCH  11  13
ATOM     13  C   UNL A   1     -31.990  -1.242  23.511  0.00  0.00    +0.093 C 
ATOM     14  N   UNL A   1     -32.012  -1.901  24.431  0.00  0.00    -0.267 NA
ATOM     15  C   UNL A   1     -32.732  -3.092  24.543  0.00  0.00    +0.152 C 
ENDBRANCH  11  13
ENDBRANCH   5   7
BRANCH   3  16
ATOM     16  C   UNL A   1     -24.142   1.501  26.382  0.00  0.00    +0.038 C 
ATOM     17  C   UNL A   1     -24.187   2.971  26.979  0.00  0.00    +0.009 C 
BRANCH  16  18
ATOM     18  C   UNL A   1     -23.897   0.578  27.480  0.00  0.00    -0.019 A 
ATOM     19  C   UNL A   1     -22.707   0.679  28.150  0.00  0.00    -0.004 A 
ATOM     20  C   UNL A   1     -22.470  -0.009  29.345  0.00  0.00    +0.008 A 
ATOM     21  C   UNL A   1     -23.581  -0.539  30.080  0.00  0.00    +0.098 A 
ATOM     22  C   UNL A   1     -24.896  -0.393  29.499  0.00  0.00    +0.008 A 
ATOM     23  C   UNL A   1     -25.030   0.623  28.553  0.00  0.00    -0.004 A 
BRANCH  21  24
ATOM     24  C   UNL A   1     -23.549  -1.002  31.413  0.00  0.00    +0.477 C 
ATOM     25  N   UNL A   1     -22.424  -1.020  32.133  0.00  0.00    +0.205 NA
ATOM     26  N   UNL A   1     -24.697  -1.062  32.104  0.00  0.00    +0.205 NA
ENDBRANCH  21  24
ENDBRANCH  16  18
BRANCH  16  27
ATOM     27  C   UNL A   1     -22.931   1.469  25.471  0.00  0.00    +0.008 C 
ATOM     28  C   UNL A   1     -22.586   2.642  25.028  0.00  0.00    +0.001 C 
ENDBRANCH  16  27
ENDBRANCH   3  16
TORSDOF 6
ENDMDL
ENDMDL
