REMARK  Name = No_3489-gen_results/8p0m/2024-11-26-14-13-15/
REMARK  6 active torsions:
REMARK  status: ('A' for Active; 'I' for Inactive)
REMARK    1  A    between atoms: C_3  and  C_8
REMARK    2  A    between atoms: C_5  and  C_6
REMARK    3  A    between atoms: C_8  and  C_9
REMARK    4  A    between atoms: C_8  and  C_18
REMARK    5  A    between atoms: C_12  and  C_13
REMARK    6  A    between atoms: C_24  and  C_26
REMARK                            x       y       z     vdW  Elec       q    Type
REMARK                         _______ _______ _______ _____ _____    ______ ____
ROOT
ATOM      1  C   UNL A   1     -28.016  -0.814  28.878  0.00  0.00    -0.004 A 
ATOM      2  C   UNL A   1     -28.469  -0.785  29.829  0.00  0.00    -0.000 A 
ATOM      3  C   UNL A   1     -28.182   0.428  28.113  0.00  0.00    -0.019 A 
ATOM      4  C   UNL A   1     -28.984   1.415  28.515  0.00  0.00    -0.004 A 
ATOM      5  C   UNL A   1     -29.380   0.138  30.461  0.00  0.00    -0.000 A 
ATOM      6  C   UNL A   1     -29.537   1.262  29.712  0.00  0.00    -0.000 A 
ENDROOT
BRANCH   5   7
ATOM      7  C   UNL A   1     -29.993  -0.023  31.737  0.00  0.00    +0.000 A 
ATOM      8  C   UNL A   1     -30.131  -1.071  32.293  0.00  0.00    +0.000 A 
ATOM      9  C   UNL A   1     -30.843  -1.212  33.535  0.00  0.00    +0.000 A 
ATOM     10  C   UNL A   1     -31.360  -0.091  34.155  0.00  0.00    +0.002 A 
ATOM     11  C   UNL A   1     -31.200   1.103  33.535  0.00  0.00    +0.019 A 
ATOM     12  C   UNL A   1     -30.547   1.208  32.336  0.00  0.00    +0.002 A 
BRANCH  11  13
ATOM     13  C   UNL A   1     -31.751   2.350  34.153  0.00  0.00    +0.093 C 
ATOM     14  N   UNL A   1     -32.005   3.303  33.597  0.00  0.00    -0.267 NA
ATOM     15  C   UNL A   1     -32.468   4.477  34.193  0.00  0.00    +0.152 C 
ENDBRANCH  11  13
ENDBRANCH   5   7
BRANCH   3  16
ATOM     16  C   UNL A   1     -27.427   0.462  26.735  0.00  0.00    +0.038 C 
ATOM     17  C   UNL A   1     -27.728   1.903  26.143  0.00  0.00    +0.009 C 
BRANCH  16  18
ATOM     18  C   UNL A   1     -25.983   0.287  26.779  0.00  0.00    -0.019 A 
ATOM     19  C   UNL A   1     -25.219   1.037  25.925  0.00  0.00    -0.004 A 
ATOM     20  C   UNL A   1     -23.826   1.101  26.040  0.00  0.00    +0.008 A 
ATOM     21  C   UNL A   1     -23.205   0.684  27.263  0.00  0.00    +0.098 A 
ATOM     22  C   UNL A   1     -24.060   0.146  28.296  0.00  0.00    +0.008 A 
ATOM     23  C   UNL A   1     -25.406   0.502  28.214  0.00  0.00    -0.004 A 
BRANCH  21  24
ATOM     24  C   UNL A   1     -21.871   0.941  27.646  0.00  0.00    +0.477 C 
ATOM     25  N   UNL A   1     -21.262   2.098  27.370  0.00  0.00    +0.205 NA
ATOM     26  N   UNL A   1     -21.324   0.200  28.620  0.00  0.00    +0.205 NA
ENDBRANCH  21  24
ENDBRANCH  16  18
BRANCH  16  27
ATOM     27  C   UNL A   1     -27.981  -0.518  25.720  0.00  0.00    +0.008 C 
ATOM     28  C   UNL A   1     -27.711  -0.196  24.489  0.00  0.00    +0.001 C 
ENDBRANCH  16  27
ENDBRANCH   3  16
TORSDOF 6
