MODEL 348
MODEL 1
REMARK VINA RESULT:    -4.207      0.000      0.000
REMARK INTER + INTRA:          -4.512
REMARK INTER:                  -4.453
REMARK INTRA:                  -0.060
REMARK UNBOUND:                -0.060
REMARK  Name = No_348-gen_results/8p0m/2024-11-26-14-13-15/
REMARK  1 active torsions:
REMARK  status: ('A' for Active; 'I' for Inactive)
REMARK    1  A    between atoms: C_3  and  O_9
REMARK                            x       y       z     vdW  Elec       q    Type
REMARK                         _______ _______ _______ _____ _____    ______ ____
ROOT
ATOM      1  C   UNL A   1     -23.813  -3.140  29.037  0.00  0.00    +0.026 A 
ATOM      2  C   UNL A   1     -23.849  -1.952  29.259  0.00  0.00    +0.092 A 
ATOM      3  C   UNL A   1     -24.990  -1.354  29.783  0.00  0.00    +0.149 A 
ATOM      4  C   UNL A   1     -26.181  -2.123  30.035  0.00  0.00    +0.039 A 
ATOM      5  C   UNL A   1     -26.059  -3.485  29.727  0.00  0.00    +0.015 A 
ATOM      6  C   UNL A   1     -24.963  -3.998  29.218  0.00  0.00    +0.059 A 
ATOM      7 CL   UNL A   1     -22.544  -0.879  28.975  0.00  0.00    -0.079 Cl
ATOM      8 CL   UNL A   1     -24.950  -5.661  28.833  0.00  0.00    -0.082 Cl
ENDROOT
BRANCH   3   9
ATOM      9  O   UNL A   1     -25.094   0.023  30.088  0.00  0.00    -0.471 OA
ATOM     10  C   UNL A   1     -25.050   0.507  31.242  0.00  0.00    +0.253 C 
ENDBRANCH   3   9
TORSDOF 1
ENDMDL
ENDMDL
