REMARK  Name = No_349-gen_results/8p0m/2024-11-26-14-13-15/
REMARK  0 active torsions:
REMARK  status: ('A' for Active; 'I' for Inactive)
REMARK                            x       y       z     vdW  Elec       q    Type
REMARK                         _______ _______ _______ _____ _____    ______ ____
ROOT
ATOM      1  C   UNL A   1     -28.016  -0.814  28.878  0.00  0.00    +0.018 A 
ATOM      2  C   UNL A   1     -28.469  -0.785  29.829  0.00  0.00    +0.085 A 
ATOM      3  C   UNL A   1     -26.504  -0.778  28.877  0.00  0.00    +0.002 A 
ATOM      4  C   UNL A   1     -25.810  -0.853  30.103  0.00  0.00    +0.000 A 
ATOM      5  C   UNL A   1     -27.991  -0.892  31.226  0.00  0.00    +0.019 A 
ATOM      6  C   UNL A   1     -26.604  -0.868  31.265  0.00  0.00    +0.002 A 
ATOM      7  N   UNL A   1     -29.977  -0.829  29.850  0.00  0.00    -0.208 NA
ATOM      8  C   UNL A   1     -30.579  -0.123  28.982  0.00  0.00    +0.279 A 
ATOM      9  C   UNL A   1     -30.014   0.759  28.291  0.00  0.00    +0.058 A 
ATOM     10  C   UNL A   1     -30.374   1.543  27.762  0.00  0.00    +0.005 A 
ATOM     11  C   UNL A   1     -29.636   2.579  26.968  0.00  0.00    +0.000 A 
ATOM     12  C   UNL A   1     -28.253   2.355  26.793  0.00  0.00    +0.000 A 
ATOM     13  C   UNL A   1     -27.752   1.245  27.346  0.00  0.00    +0.000 A 
ATOM     14  C   UNL A   1     -28.538   0.446  28.085  0.00  0.00    +0.006 A 
ATOM     15  O   UNL A   1     -31.791  -0.529  28.869  0.00  0.00    -0.265 OA
ENDROOT
TORSDOF 0
