REMARK  Name = No_3490-gen_results/8p0m/2024-11-26-14-13-15/
REMARK  3 active torsions:
REMARK  status: ('A' for Active; 'I' for Inactive)
REMARK    1  A    between atoms: C_2  and  C_3
REMARK    2  A    between atoms: N_4  and  C_11
REMARK    3  A    between atoms: C_16  and  C_18
REMARK                            x       y       z     vdW  Elec       q    Type
REMARK                         _______ _______ _______ _____ _____    ______ ____
ROOT
ATOM      1  O   UNL A   1     -28.123  -1.335  28.487  0.00  0.00    -0.270 OA
ATOM      2  C   UNL A   1     -27.481  -0.404  28.709  0.00  0.00    +0.253 C 
ATOM      3  N   UNL A   1     -27.666   0.447  29.899  0.00  0.00    -0.253 N 
ATOM      4  C   UNL A   1     -28.772   0.099  30.793  0.00  0.00    +0.120 C 
ENDROOT
BRANCH   3   5
ATOM      5  C   UNL A   1     -26.847   1.520  30.221  0.00  0.00    +0.057 A 
ATOM      6  C   UNL A   1     -26.138   1.475  31.077  0.00  0.00    +0.015 A 
ATOM      7  C   UNL A   1     -25.001   1.796  31.345  0.00  0.00    +0.005 A 
ATOM      8  C   UNL A   1     -24.113   2.337  30.269  0.00  0.00    +0.042 A 
ATOM      9  C   UNL A   1     -24.870   2.737  29.129  0.00  0.00    +0.197 A 
ATOM     10  C   UNL A   1     -26.209   2.356  29.040  0.00  0.00    +0.052 A 
ATOM     11  O   UNL A   1     -24.224   3.410  28.205  0.00  0.00    -0.286 OA
BRANCH  10  12
ATOM     12  C   UNL A   1     -27.053   3.797  29.264  0.00  0.00    -0.000 C 
ATOM     13  C   UNL A   1     -26.894   4.518  30.116  0.00  0.00    -0.026 C 
ATOM     14  C   UNL A   1     -27.615   5.761  30.229  0.00  0.00    +0.031 C 
ENDBRANCH  10  12
ENDBRANCH   3   5
BRANCH   2  15
ATOM     15  C   UNL A   1     -26.380  -0.087  27.939  0.00  0.00    +0.054 A 
ATOM     16  C   UNL A   1     -26.409   0.857  26.880  0.00  0.00    +0.004 A 
ATOM     17  C   UNL A   1     -25.082  -0.697  28.170  0.00  0.00    +0.004 A 
ATOM     18  C   UNL A   1     -25.284   1.049  26.047  0.00  0.00    +0.000 A 
ATOM     19  C   UNL A   1     -23.916  -0.344  27.444  0.00  0.00    +0.000 A 
ATOM     20  C   UNL A   1     -24.062   0.529  26.371  0.00  0.00    +0.000 A 
ENDBRANCH   2  15
TORSDOF 3
