REMARK  Name = No_3491-gen_results/8p0m/2024-11-26-14-13-15/
REMARK  0 active torsions:
REMARK  status: ('A' for Active; 'I' for Inactive)
REMARK                            x       y       z     vdW  Elec       q    Type
REMARK                         _______ _______ _______ _____ _____    ______ ____
ROOT
ATOM      1  O   UNL A   1     -28.123  -1.335  28.487  0.00  0.00    -0.287 OA
ATOM      2  C   UNL A   1     -27.064  -0.824  28.869  0.00  0.00    +0.196 A 
ATOM      3  C   UNL A   1     -26.050  -0.936  28.758  0.00  0.00    +0.042 A 
ATOM      4  C   UNL A   1     -24.863  -0.167  29.126  0.00  0.00    +0.003 A 
ATOM      5  C   UNL A   1     -25.192   0.981  29.874  0.00  0.00    +0.000 A 
ATOM      6  C   UNL A   1     -26.506   1.213  30.113  0.00  0.00    +0.003 A 
ATOM      7  C   UNL A   1     -27.486   0.455  29.730  0.00  0.00    +0.042 A 
ATOM      8  C   UNL A   1     -23.460  -0.395  28.915  0.00  0.00    +0.000 A 
ATOM      9  C   UNL A   1     -22.547   0.646  28.723  0.00  0.00    +0.000 A 
ATOM     10  C   UNL A   1     -23.039   1.908  29.273  0.00  0.00    +0.000 A 
ATOM     11  C   UNL A   1     -24.190   2.042  29.953  0.00  0.00    +0.000 A 
ENDROOT
TORSDOF 0
