MODEL 3491
MODEL 1
REMARK VINA RESULT:    -5.613      0.000      0.000
REMARK INTER + INTRA:          -5.613
REMARK INTER:                  -5.613
REMARK INTRA:                   0.000
REMARK UNBOUND:                 0.000
REMARK  Name = No_3491-gen_results/8p0m/2024-11-26-14-13-15/
REMARK  0 active torsions:
REMARK  status: ('A' for Active; 'I' for Inactive)
REMARK                            x       y       z     vdW  Elec       q    Type
REMARK                         _______ _______ _______ _____ _____    ______ ____
ROOT
ATOM      1  O   UNL A   1     -26.887 -10.750  34.832  0.00  0.00    -0.287 OA
ATOM      2  C   UNL A   1     -27.601 -10.952  33.843  0.00  0.00    +0.196 A 
ATOM      3  C   UNL A   1     -28.423 -10.558  33.371  0.00  0.00    +0.042 A 
ATOM      4  C   UNL A   1     -29.104 -10.773  32.096  0.00  0.00    +0.003 A 
ATOM      5  C   UNL A   1     -28.523 -11.825  31.361  0.00  0.00    +0.000 A 
ATOM      6  C   UNL A   1     -27.446 -12.445  31.905  0.00  0.00    +0.003 A 
ATOM      7  C   UNL A   1     -26.919 -12.165  33.056  0.00  0.00    +0.042 A 
ATOM      8  C   UNL A   1     -30.258 -10.158  31.501  0.00  0.00    +0.000 A 
ATOM      9  C   UNL A   1     -30.392  -9.982  30.121  0.00  0.00    +0.000 A 
ATOM     10  C   UNL A   1     -29.556 -10.917  29.371  0.00  0.00    +0.000 A 
ATOM     11  C   UNL A   1     -28.810 -11.885  29.930  0.00  0.00    +0.000 A 
ENDROOT
TORSDOF 0
ENDMDL
ENDMDL
