MODEL 3492
MODEL 1
REMARK VINA RESULT:    -4.761      0.000      0.000
REMARK INTER + INTRA:          -4.942
REMARK INTER:                  -5.039
REMARK INTRA:                   0.098
REMARK UNBOUND:                 0.098
REMARK  Name = No_3492-gen_results/8p0m/2024-11-26-14-13-15/
REMARK  1 active torsions:
REMARK  status: ('A' for Active; 'I' for Inactive)
REMARK    1  A    between atoms: C_2  and  C_7
REMARK                            x       y       z     vdW  Elec       q    Type
REMARK                         _______ _______ _______ _____ _____    ______ ____
ROOT
ATOM      1  C   UNL A   1     -25.607  -2.508  29.711  0.00  0.00    +0.002 A 
ATOM      2  C   UNL A   1     -24.481  -2.586  29.278  0.00  0.00    +0.019 A 
ATOM      3  C   UNL A   1     -23.946  -3.807  28.884  0.00  0.00    +0.002 A 
ATOM      4  C   UNL A   1     -24.700  -5.026  29.024  0.00  0.00    +0.000 A 
ATOM      5  C   UNL A   1     -25.984  -4.848  29.556  0.00  0.00    +0.000 A 
ATOM      6  C   UNL A   1     -26.437  -3.673  29.928  0.00  0.00    +0.000 A 
ENDROOT
BRANCH   2   7
ATOM      7  C   UNL A   1     -23.426  -1.533  28.943  0.00  0.00    +0.093 C 
ATOM      8  N   UNL A   1     -22.696  -0.971  29.634  0.00  0.00    -0.267 NA
ATOM      9  C   UNL A   1     -23.042  -0.828  31.062  0.00  0.00    +0.152 C 
ENDBRANCH   2   7
TORSDOF 1
ENDMDL
ENDMDL
