MODEL 3493
MODEL 1
REMARK VINA RESULT:    -5.254      0.000      0.000
REMARK INTER + INTRA:          -5.604
REMARK INTER:                  -5.561
REMARK INTRA:                  -0.043
REMARK UNBOUND:                -0.043
REMARK  Name = No_3493-gen_results/8p0m/2024-11-26-14-13-15/
REMARK  1 active torsions:
REMARK  status: ('A' for Active; 'I' for Inactive)
REMARK    1  A    between atoms: C_2  and  P_7
REMARK                            x       y       z     vdW  Elec       q    Type
REMARK                         _______ _______ _______ _____ _____    ______ ____
ROOT
ATOM      1  C   UNL A   1     -29.220 -10.529  32.546  0.00  0.00    +0.003 A 
ATOM      2  C   UNL A   1     -28.470 -11.260  32.427  0.00  0.00    +0.029 A 
ATOM      3  C   UNL A   1     -29.912 -10.094  31.274  0.00  0.00    +0.000 A 
ATOM      4  C   UNL A   1     -29.629 -10.769  30.067  0.00  0.00    +0.000 A 
ATOM      5  C   UNL A   1     -28.014 -12.128  31.318  0.00  0.00    +0.003 A 
ATOM      6  C   UNL A   1     -28.633 -11.762  30.131  0.00  0.00    +0.000 A 
ENDROOT
BRANCH   2   7
ATOM      7  P   UNL A   1     -27.582 -11.831  34.006  0.00  0.00    +0.140 P 
ATOM      8  O   UNL A   1     -28.496 -12.595  34.804  0.00  0.00    -0.354 OA
ATOM      9  O   UNL A   1     -26.617 -12.861  33.388  0.00  0.00    -0.456 OA
ATOM     10  O   UNL A   1     -26.929 -10.718  34.670  0.00  0.00    -0.354 OA
ENDBRANCH   2   7
TORSDOF 1
ENDMDL
ENDMDL
