REMARK  Name = No_3494-gen_results/8p0m/2024-11-26-14-13-15/
REMARK  2 active torsions:
REMARK  status: ('A' for Active; 'I' for Inactive)
REMARK    1  A    between atoms: C_2  and  C_4
REMARK    2  A    between atoms: C_4  and  C_6
REMARK                            x       y       z     vdW  Elec       q    Type
REMARK                         _______ _______ _______ _____ _____    ______ ____
ROOT
ATOM      1  F   UNL A   1     -28.073  -1.254  28.532  0.00  0.00    -0.167 F 
ATOM      2  C   UNL A   1     -27.359  -0.379  28.722  0.00  0.00    +0.429 C 
ATOM      3  F   UNL A   1     -26.318  -0.661  29.116  0.00  0.00    -0.167 F 
ATOM      4  F   UNL A   1     -28.081   0.578  29.479  0.00  0.00    -0.167 F 
ENDROOT
BRANCH   2   5
ATOM      5  C   UNL A   1     -27.255   0.479  27.490  0.00  0.00    +0.268 C 
ATOM      6  O   UNL A   1     -26.615  -0.187  26.414  0.00  0.00    -0.209 OA
BRANCH   5   7
ATOM      7  C   UNL A   1     -27.409   1.760  27.488  0.00  0.00    +0.015 C 
ATOM      8  C   UNL A   1     -28.263   2.418  28.216  0.00  0.00    -0.002 C 
ENDBRANCH   5   7
ENDBRANCH   2   5
TORSDOF 2
