MODEL 3495
MODEL 1
REMARK VINA RESULT:    -6.797      0.000      0.000
REMARK INTER + INTRA:          -8.017
REMARK INTER:                  -7.591
REMARK INTRA:                  -0.425
REMARK UNBOUND:                -0.425
REMARK  Name = No_3495-gen_results/8p0m/2024-11-26-14-13-15/
REMARK  2 active torsions:
REMARK  status: ('A' for Active; 'I' for Inactive)
REMARK    1  A    between atoms: C_3  and  C_4
REMARK    2  A    between atoms: C_4  and  C_8
REMARK                            x       y       z     vdW  Elec       q    Type
REMARK                         _______ _______ _______ _____ _____    ______ ____
ROOT
ATOM      1  C   UNL A   1     -24.381  -1.470  29.106  0.00  0.00    +0.053 C 
ENDROOT
BRANCH   1   4
ATOM      2  C   UNL A   1     -22.053  -0.396  29.005  0.00  0.00    -0.004 A 
ATOM      3  C   UNL A   1     -21.446   0.337  28.551  0.00  0.00    -0.000 A 
ATOM      4  C   UNL A   1     -23.418  -0.436  28.645  0.00  0.00    -0.018 A 
ATOM      5  C   UNL A   1     -21.764   1.393  27.574  0.00  0.00    -0.000 A 
ATOM      6  C   UNL A   1     -23.100   1.416  27.174  0.00  0.00    -0.000 A 
ATOM      7  C   UNL A   1     -23.953   0.477  27.659  0.00  0.00    -0.004 A 
ENDBRANCH   1   4
BRANCH   1   8
ATOM      8  C   UNL A   1     -24.436  -2.601  29.063  0.00  0.00    -0.018 A 
ATOM      9  C   UNL A   1     -23.871  -3.419  28.603  0.00  0.00    -0.004 A 
ATOM     10  C   UNL A   1     -24.074  -4.889  28.601  0.00  0.00    -0.000 A 
ATOM     11  C   UNL A   1     -25.308  -5.254  29.045  0.00  0.00    -0.000 A 
ATOM     12  C   UNL A   1     -26.114  -4.405  29.692  0.00  0.00    -0.000 A 
ATOM     13  C   UNL A   1     -25.795  -3.094  29.705  0.00  0.00    -0.004 A 
ENDBRANCH   1   8
TORSDOF 2
ENDMDL
ENDMDL
