MODEL 3496
MODEL 1
REMARK VINA RESULT:    -5.938      0.000      0.000
REMARK INTER + INTRA:          -6.353
REMARK INTER:                  -6.285
REMARK INTRA:                  -0.068
REMARK UNBOUND:                -0.068
REMARK  Name = No_3496-gen_results/8p0m/2024-11-26-14-13-15/
REMARK  1 active torsions:
REMARK  status: ('A' for Active; 'I' for Inactive)
REMARK    1  A    between atoms: C_5  and  C_11
REMARK                            x       y       z     vdW  Elec       q    Type
REMARK                         _______ _______ _______ _____ _____    ______ ____
ROOT
ATOM      1  C   UNL A   1     -30.779  -9.837  29.614  0.00  0.00    +0.099 A 
ATOM      2  C   UNL A   1     -30.087 -10.229  30.524  0.00  0.00    +0.019 A 
ATOM      3  C   UNL A   1     -29.092 -11.178  30.313  0.00  0.00    +0.003 A 
ATOM      4  C   UNL A   1     -28.184 -11.746  31.350  0.00  0.00    +0.008 A 
ATOM      5  C   UNL A   1     -28.250 -11.138  32.639  0.00  0.00    +0.098 A 
ATOM      6  C   UNL A   1     -29.225 -10.136  32.815  0.00  0.00    +0.008 A 
ATOM      7  C   UNL A   1     -30.053  -9.703  31.853  0.00  0.00    +0.002 A 
ATOM      8  N   UNL A   1     -30.850 -10.556  28.395  0.00  0.00    -0.242 NA
ATOM      9  C   UNL A   1     -29.827 -11.429  28.065  0.00  0.00    +0.099 A 
ATOM     10  C   UNL A   1     -28.946 -11.863  29.039  0.00  0.00    +0.021 A 
ENDROOT
BRANCH   5  11
ATOM     11  C   UNL A   1     -27.346 -11.615  33.688  0.00  0.00    +0.477 C 
ATOM     12  N   UNL A   1     -26.823 -12.800  33.574  0.00  0.00    +0.205 NA
ATOM     13  N   UNL A   1     -27.087 -10.784  34.718  0.00  0.00    +0.205 NA
ENDBRANCH   5  11
TORSDOF 1
ENDMDL
ENDMDL
