MODEL 3497
MODEL 1
REMARK VINA RESULT:    -4.938      0.000      0.000
REMARK INTER + INTRA:          -5.651
REMARK INTER:                  -5.515
REMARK INTRA:                  -0.136
REMARK UNBOUND:                -0.136
REMARK  Name = No_3497-gen_results/8p0m/2024-11-26-14-13-15/
REMARK  2 active torsions:
REMARK  status: ('A' for Active; 'I' for Inactive)
REMARK    1  A    between atoms: C_2  and  C_8
REMARK    2  A    between atoms: N_9  and  C_11
REMARK                            x       y       z     vdW  Elec       q    Type
REMARK                         _______ _______ _______ _____ _____    ______ ____
ROOT
ATOM      1  C   UNL A   1     -25.192  -0.422  26.728  0.00  0.00    +0.005 A 
ATOM      2  C   UNL A   1     -24.654  -0.663  27.783  0.00  0.00    +0.055 A 
ATOM      3  C   UNL A   1     -23.544  -0.003  28.281  0.00  0.00    +0.005 A 
ATOM      4  C   UNL A   1     -23.017   1.064  27.495  0.00  0.00    +0.011 A 
ATOM      5  C   UNL A   1     -23.728   1.402  26.400  0.00  0.00    +0.058 A 
ATOM      6  C   UNL A   1     -24.841   0.751  26.056  0.00  0.00    +0.011 A 
ATOM      7 CL   UNL A   1     -23.134   2.724  25.509  0.00  0.00    -0.082 Cl
ENDROOT
BRANCH   2   8
ATOM      8  C   UNL A   1     -25.065  -1.927  28.649  0.00  0.00    +0.269 C 
ATOM      9  N   UNL A   1     -24.696  -2.931  28.667  0.00  0.00    -0.174 NA
ATOM     10  O   UNL A   1     -26.274  -1.820  29.257  0.00  0.00    -0.268 OA
BRANCH   9  11
ATOM     11  C   UNL A   1     -25.076  -4.125  29.404  0.00  0.00    +0.089 C 
ATOM     12  C   UNL A   1     -25.060  -5.208  29.043  0.00  0.00    +0.019 C 
ENDBRANCH   9  11
ENDBRANCH   2   8
TORSDOF 2
ENDMDL
ENDMDL
