REMARK  Name = No_3497-gen_results/8p0m/2024-11-26-14-13-15/
REMARK  2 active torsions:
REMARK  status: ('A' for Active; 'I' for Inactive)
REMARK    1  A    between atoms: C_2  and  C_8
REMARK    2  A    between atoms: N_9  and  C_11
REMARK                            x       y       z     vdW  Elec       q    Type
REMARK                         _______ _______ _______ _____ _____    ______ ____
ROOT
ATOM      1  C   UNL A   1     -28.016  -0.814  28.878  0.00  0.00    +0.005 A 
ATOM      2  C   UNL A   1     -27.064  -0.119  28.608  0.00  0.00    +0.055 A 
ATOM      3  C   UNL A   1     -26.972   0.714  27.506  0.00  0.00    +0.005 A 
ATOM      4  C   UNL A   1     -28.105   0.774  26.642  0.00  0.00    +0.011 A 
ATOM      5  C   UNL A   1     -29.201   0.104  27.053  0.00  0.00    +0.058 A 
ATOM      6  C   UNL A   1     -29.210  -0.603  28.185  0.00  0.00    +0.011 A 
ATOM      7 CL   UNL A   1     -30.572   0.242  26.055  0.00  0.00    -0.082 Cl
ENDROOT
BRANCH   2   8
ATOM      8  C   UNL A   1     -25.703  -0.236  29.414  0.00  0.00    +0.269 C 
ATOM      9  N   UNL A   1     -25.486  -0.581  30.404  0.00  0.00    -0.174 NA
ATOM     10  O   UNL A   1     -24.680   0.489  28.894  0.00  0.00    -0.268 OA
BRANCH   9  11
ATOM     11  C   UNL A   1     -24.268  -0.657  31.193  0.00  0.00    +0.089 C 
ATOM     12  C   UNL A   1     -23.279  -0.114  31.012  0.00  0.00    +0.019 C 
ENDBRANCH   9  11
ENDBRANCH   2   8
TORSDOF 2
