REMARK  Name = No_3498-gen_results/8p0m/2024-11-26-14-13-15/
REMARK  1 active torsions:
REMARK  status: ('A' for Active; 'I' for Inactive)
REMARK    1  A    between atoms: C_3  and  C_7
REMARK                            x       y       z     vdW  Elec       q    Type
REMARK                         _______ _______ _______ _____ _____    ______ ____
ROOT
ATOM      1  C   UNL A   1     -28.016  -0.814  28.878  0.00  0.00    +0.004 A 
ATOM      2  C   UNL A   1     -28.469  -0.785  29.829  0.00  0.00    -0.000 A 
ATOM      3  C   UNL A   1     -28.196   0.348  28.055  0.00  0.00    +0.071 A 
ATOM      4  C   UNL A   1     -29.019   1.350  28.378  0.00  0.00    +0.004 A 
ATOM      5  C   UNL A   1     -29.625   1.268  29.601  0.00  0.00    -0.000 A 
ATOM      6  C   UNL A   1     -29.379   0.147  30.392  0.00  0.00    -0.000 A 
ENDROOT
BRANCH   3   7
ATOM      7  C   UNL A   1     -27.455   0.382  26.710  0.00  0.00    +0.419 C 
ATOM      8  F   UNL A   1     -28.076   0.057  25.666  0.00  0.00    -0.166 F 
ATOM      9  F   UNL A   1     -26.892   1.670  26.476  0.00  0.00    -0.166 F 
ATOM     10  F   UNL A   1     -26.263  -0.326  26.713  0.00  0.00    -0.166 F 
ENDBRANCH   3   7
TORSDOF 1
