MODEL 3498
MODEL 1
REMARK VINA RESULT:    -5.319      0.000      0.000
REMARK INTER + INTRA:          -5.804
REMARK INTER:                  -5.630
REMARK INTRA:                  -0.174
REMARK UNBOUND:                -0.174
REMARK  Name = No_3498-gen_results/8p0m/2024-11-26-14-13-15/
REMARK  1 active torsions:
REMARK  status: ('A' for Active; 'I' for Inactive)
REMARK    1  A    between atoms: C_3  and  C_7
REMARK                            x       y       z     vdW  Elec       q    Type
REMARK                         _______ _______ _______ _____ _____    ______ ____
ROOT
ATOM      1  C   UNL A   1      -8.554  -9.536  19.629  0.00  0.00    +0.004 A 
ATOM      2  C   UNL A   1      -7.838  -8.898  20.065  0.00  0.00    -0.000 A 
ATOM      3  C   UNL A   1      -8.598  -9.553  18.195  0.00  0.00    +0.071 A 
ATOM      4  C   UNL A   1      -7.903  -8.701  17.434  0.00  0.00    +0.004 A 
ATOM      5  C   UNL A   1      -7.052  -7.856  18.090  0.00  0.00    -0.000 A 
ATOM      6  C   UNL A   1      -7.001  -7.911  19.482  0.00  0.00    -0.000 A 
ENDROOT
BRANCH   3   7
ATOM      7  C   UNL A   1      -9.553 -10.554  17.529  0.00  0.00    +0.419 C 
ATOM      8  F   UNL A   1      -9.668 -10.544  16.277  0.00  0.00    -0.166 F 
ATOM      9  F   UNL A   1      -9.228 -11.890  17.906  0.00  0.00    -0.166 F 
ATOM     10  F   UNL A   1     -10.835 -10.537  18.057  0.00  0.00    -0.166 F 
ENDBRANCH   3   7
TORSDOF 1
ENDMDL
ENDMDL
