MODEL 3499
MODEL 1
REMARK VINA RESULT:    -5.129      0.000      0.000
REMARK INTER + INTRA:          -6.213
REMARK INTER:                  -6.028
REMARK INTRA:                  -0.185
REMARK UNBOUND:                -0.185
REMARK  Name = No_3499-gen_results/8p0m/2024-11-26-14-13-15/
REMARK  3 active torsions:
REMARK  status: ('A' for Active; 'I' for Inactive)
REMARK    1  A    between atoms: C_6  and  O_7
REMARK    2  A    between atoms: O_7  and  C_9
REMARK    3  A    between atoms: C_9  and  C_10
REMARK                            x       y       z     vdW  Elec       q    Type
REMARK                         _______ _______ _______ _____ _____    ______ ____
ROOT
ATOM      1  C   UNL A   1     -30.271 -10.039  30.510  0.00  0.00    +0.038 A 
ATOM      2  C   UNL A   1     -30.660  -9.958  29.368  0.00  0.00    +0.015 A 
ATOM      3  C   UNL A   1     -30.138 -10.777  28.372  0.00  0.00    +0.058 A 
ATOM      4  C   UNL A   1     -29.084 -11.716  28.662  0.00  0.00    +0.015 A 
ATOM      5  C   UNL A   1     -28.679 -11.727  30.002  0.00  0.00    +0.038 A 
ATOM      6  C   UNL A   1     -29.193 -10.920  30.902  0.00  0.00    +0.139 A 
ATOM      7 CL   UNL A   1     -30.620 -10.755  26.700  0.00  0.00    -0.082 Cl
ENDROOT
BRANCH   6   8
ATOM      8  O   UNL A   1     -28.715 -10.968  32.176  0.00  0.00    -0.464 OA
BRANCH   8   9
ATOM      9  C   UNL A   1     -28.518 -12.186  32.810  0.00  0.00    +0.319 C 
BRANCH   9  10
ATOM     10  C   UNL A   1     -27.249 -12.295  33.347  0.00  0.00    +0.408 C 
ATOM     11  O   UNL A   1     -27.167 -12.323  34.493  0.00  0.00    -0.241 OA
ATOM     12  O   UNL A   1     -26.408 -12.789  32.585  0.00  0.00    -0.241 OA
ENDBRANCH   9  10
ENDBRANCH   8   9
ENDBRANCH   6   8
TORSDOF 3
ENDMDL
ENDMDL
