REMARK  Name = No_3499-gen_results/8p0m/2024-11-26-14-13-15/
REMARK  3 active torsions:
REMARK  status: ('A' for Active; 'I' for Inactive)
REMARK    1  A    between atoms: C_6  and  O_7
REMARK    2  A    between atoms: O_7  and  C_9
REMARK    3  A    between atoms: C_9  and  C_10
REMARK                            x       y       z     vdW  Elec       q    Type
REMARK                         _______ _______ _______ _____ _____    ______ ____
ROOT
ATOM      1  C   UNL A   1     -28.016  -0.814  28.878  0.00  0.00    +0.038 A 
ATOM      2  C   UNL A   1     -27.064  -0.119  28.608  0.00  0.00    +0.015 A 
ATOM      3  C   UNL A   1     -25.792  -0.430  29.076  0.00  0.00    +0.058 A 
ATOM      4  C   UNL A   1     -25.576  -1.565  29.936  0.00  0.00    +0.015 A 
ATOM      5  C   UNL A   1     -26.735  -2.300  30.217  0.00  0.00    +0.038 A 
ATOM      6  C   UNL A   1     -27.918  -1.954  29.763  0.00  0.00    +0.139 A 
ATOM      7 CL   UNL A   1     -24.350   0.489  28.750  0.00  0.00    -0.082 Cl
ENDROOT
BRANCH   6   8
ATOM      8  O   UNL A   1     -29.000  -2.701  30.115  0.00  0.00    -0.464 OA
BRANCH   8   9
ATOM      9  C   UNL A   1     -29.370  -2.823  31.447  0.00  0.00    +0.319 C 
BRANCH   9  10
ATOM     10  C   UNL A   1     -30.736  -2.700  31.621  0.00  0.00    +0.408 C 
ATOM     11  O   UNL A   1     -31.141  -2.838  32.688  0.00  0.00    -0.241 OA
ATOM     12  O   UNL A   1     -31.309  -2.035  30.749  0.00  0.00    -0.241 OA
ENDBRANCH   9  10
ENDBRANCH   8   9
ENDBRANCH   6   8
TORSDOF 3
