MODEL 349
MODEL 1
REMARK VINA RESULT:    -6.726      0.000      0.000
REMARK INTER + INTRA:          -6.726
REMARK INTER:                  -6.726
REMARK INTRA:                   0.000
REMARK UNBOUND:                 0.000
REMARK  Name = No_349-gen_results/8p0m/2024-11-26-14-13-15/
REMARK  0 active torsions:
REMARK  status: ('A' for Active; 'I' for Inactive)
REMARK                            x       y       z     vdW  Elec       q    Type
REMARK                         _______ _______ _______ _____ _____    ______ ____
ROOT
ATOM      1  C   UNL A   1     -25.219  -2.711  29.197  0.00  0.00    +0.018 A 
ATOM      2  C   UNL A   1     -25.950  -3.367  29.580  0.00  0.00    +0.085 A 
ATOM      3  C   UNL A   1     -23.985  -3.374  28.627  0.00  0.00    +0.002 A 
ATOM      4  C   UNL A   1     -23.947  -4.779  28.511  0.00  0.00    +0.000 A 
ATOM      5  C   UNL A   1     -26.167  -4.831  29.553  0.00  0.00    +0.019 A 
ATOM      6  C   UNL A   1     -25.055  -5.475  29.029  0.00  0.00    +0.002 A 
ATOM      7  N   UNL A   1     -27.192  -2.724  30.145  0.00  0.00    -0.208 NA
ATOM      8  C   UNL A   1     -27.022  -1.686  30.858  0.00  0.00    +0.279 A 
ATOM      9  C   UNL A   1     -25.904  -1.321  31.297  0.00  0.00    +0.058 A 
ATOM     10  C   UNL A   1     -25.640  -0.695  32.046  0.00  0.00    +0.005 A 
ATOM     11  C   UNL A   1     -24.274  -0.314  32.536  0.00  0.00    +0.000 A 
ATOM     12  C   UNL A   1     -23.189  -0.762  31.752  0.00  0.00    +0.000 A 
ATOM     13  C   UNL A   1     -23.493  -1.469  30.657  0.00  0.00    +0.000 A 
ATOM     14  C   UNL A   1     -24.771  -1.781  30.390  0.00  0.00    +0.006 A 
ATOM     15  O   UNL A   1     -28.131  -1.049  30.955  0.00  0.00    -0.265 OA
ENDROOT
TORSDOF 0
ENDMDL
ENDMDL
