REMARK  Name = No_35-gen_results/8p0m/2024-11-26-14-13-15/
REMARK  5 active torsions:
REMARK  status: ('A' for Active; 'I' for Inactive)
REMARK    1  A    between atoms: C_1  and  C_2
REMARK    2  A    between atoms: C_1  and  N_8
REMARK    3  A    between atoms: C_5  and  C_12
REMARK    4  A    between atoms: C_10  and  C_19
REMARK    5  A    between atoms: C_20  and  C_21
REMARK                            x       y       z     vdW  Elec       q    Type
REMARK                         _______ _______ _______ _____ _____    ______ ____
ROOT
ATOM      1  C   UNL A   1     -28.016  -0.814  28.878  0.00  0.00    +0.120 C 
ENDROOT
BRANCH   1   2
ATOM      2  N   UNL A   1     -28.700  -0.644  30.077  0.00  0.00    -0.275 N 
ATOM      3  C   UNL A   1     -29.803  -1.365  30.506  0.00  0.00    +0.230 C 
ATOM      4  C   UNL A   1     -30.377  -1.047  31.741  0.00  0.00    +0.098 C 
ATOM      5  O   UNL A   1     -30.584  -1.934  29.738  0.00  0.00    -0.275 OA
ATOM      6  C   UNL A   1     -30.003  -0.154  32.581  0.00  0.00    +0.015 C 
ATOM      7  C   UNL A   1     -28.647   0.370  32.291  0.00  0.00    +0.022 C 
ATOM      8  C   UNL A   1     -28.016   0.163  31.053  0.00  0.00    +0.094 C 
BRANCH   4   9
ATOM      9  C   UNL A   1     -31.674  -1.759  32.050  0.00  0.00    -0.022 C 
ATOM     10  C   UNL A   1     -31.853  -2.788  31.896  0.00  0.00    -0.030 C 
BRANCH  10  11
ATOM     11  C   UNL A   1     -30.789  -3.697  31.588  0.00  0.00    +0.026 C 
ATOM     12  C   UNL A   1     -30.627  -4.008  30.181  0.00  0.00    +0.005 C 
ENDBRANCH  10  11
ENDBRANCH   4   9
ENDBRANCH   1   2
BRANCH   1  13
ATOM     13  C   UNL A   1     -27.064  -0.119  28.608  0.00  0.00    -0.002 A 
ATOM     14  C   UNL A   1     -26.929   1.171  29.008  0.00  0.00    -0.003 A 
ATOM     15  C   UNL A   1     -25.770   2.034  28.688  0.00  0.00    +0.004 A 
ATOM     16  C   UNL A   1     -24.714   1.443  27.919  0.00  0.00    +0.071 A 
ATOM     17  C   UNL A   1     -24.859   0.078  27.584  0.00  0.00    +0.004 A 
ATOM     18  C   UNL A   1     -25.965  -0.661  27.916  0.00  0.00    -0.003 A 
BRANCH  16  19
ATOM     19  C   UNL A   1     -23.539   2.178  27.563  0.00  0.00    +0.419 C 
ATOM     20  F   UNL A   1     -22.676   1.660  27.169  0.00  0.00    -0.166 F 
ATOM     21  F   UNL A   1     -24.026   3.139  26.572  0.00  0.00    -0.166 F 
ATOM     22  F   UNL A   1     -23.148   2.989  28.605  0.00  0.00    -0.166 F 
ENDBRANCH  16  19
ENDBRANCH   1  13
TORSDOF 5
