REMARK  Name = No_350-gen_results/8p0m/2024-11-26-14-13-15/
REMARK  3 active torsions:
REMARK  status: ('A' for Active; 'I' for Inactive)
REMARK    1  A    between atoms: C_2  and  C_5
REMARK    2  A    between atoms: C_3  and  C_9
REMARK    3  A    between atoms: C_9  and  C_10
REMARK                            x       y       z     vdW  Elec       q    Type
REMARK                         _______ _______ _______ _____ _____    ______ ____
ROOT
ATOM      1  C   UNL A   1     -28.016  -0.814  28.878  0.00  0.00    -0.007 A 
ATOM      2  C   UNL A   1     -28.469  -0.785  29.829  0.00  0.00    -0.004 A 
ATOM      3  C   UNL A   1     -27.136   0.236  28.535  0.00  0.00    -0.018 A 
ATOM      4  C   UNL A   1     -26.875   1.282  29.398  0.00  0.00    -0.004 A 
ATOM      5  C   UNL A   1     -27.524   1.209  30.638  0.00  0.00    -0.001 A 
ATOM      6  C   UNL A   1     -28.322   0.127  30.959  0.00  0.00    -0.003 A 
ENDROOT
BRANCH   2   7
ATOM      7  C   UNL A   1     -29.395  -1.924  30.286  0.00  0.00    +0.136 C 
ATOM      8  N   UNL A   1     -29.822  -1.964  31.531  0.00  0.00    -0.126 NA
ENDBRANCH   2   7
BRANCH   3   9
ATOM      9  C   UNL A   1     -26.403   0.323  27.207  0.00  0.00    +0.053 C 
BRANCH   9  10
ATOM     10  C   UNL A   1     -25.176   0.617  27.093  0.00  0.00    -0.018 A 
ATOM     11  C   UNL A   1     -24.320   0.717  28.231  0.00  0.00    -0.004 A 
ATOM     12  C   UNL A   1     -23.029   1.303  27.876  0.00  0.00    -0.000 A 
ATOM     13  C   UNL A   1     -22.750   1.948  26.716  0.00  0.00    -0.000 A 
ATOM     14  C   UNL A   1     -23.690   1.939  25.712  0.00  0.00    -0.000 A 
ATOM     15  C   UNL A   1     -24.881   1.310  25.895  0.00  0.00    -0.004 A 
ENDBRANCH   9  10
ENDBRANCH   3   9
TORSDOF 3
