MODEL 3500
MODEL 1
REMARK VINA RESULT:    -4.909      0.000      0.000
REMARK INTER + INTRA:          -5.601
REMARK INTER:                  -5.483
REMARK INTRA:                  -0.118
REMARK UNBOUND:                -0.118
REMARK  Name = No_3500-gen_results/8p0m/2024-11-26-14-13-15/
REMARK  2 active torsions:
REMARK  status: ('A' for Active; 'I' for Inactive)
REMARK    1  A    between atoms: C_2  and  N_3
REMARK    2  A    between atoms: N_3  and  C_8
REMARK                            x       y       z     vdW  Elec       q    Type
REMARK                         _______ _______ _______ _____ _____    ______ ____
ROOT
ATOM      1  C   UNL A   1     -25.197  -2.475  29.608  0.00  0.00    +0.017 A 
ATOM      2  C   UNL A   1     -24.156  -2.952  29.219  0.00  0.00    +0.070 A 
ATOM      3  C   UNL A   1     -26.275  -3.430  29.953  0.00  0.00    +0.001 A 
ATOM      4  C   UNL A   1     -26.177  -4.764  29.601  0.00  0.00    +0.000 A 
ATOM      5  C   UNL A   1     -25.052  -5.258  28.985  0.00  0.00    +0.001 A 
ATOM      6  C   UNL A   1     -23.979  -4.346  28.774  0.00  0.00    +0.017 A 
ENDROOT
BRANCH   2   7
ATOM      7  N   UNL A   1     -23.114  -2.235  28.903  0.00  0.00    -0.211 NA
BRANCH   7   8
ATOM      8  C   UNL A   1     -22.883  -0.953  29.175  0.00  0.00    +0.086 C 
ATOM      9  C   UNL A   1     -21.572  -0.454  28.983  0.00  0.00    +0.019 C 
ENDBRANCH   7   8
ENDBRANCH   2   7
TORSDOF 2
ENDMDL
ENDMDL
