REMARK  Name = No_3501-gen_results/8p0m/2024-11-26-14-13-15/
REMARK  3 active torsions:
REMARK  status: ('A' for Active; 'I' for Inactive)
REMARK    1  A    between atoms: C_3  and  C_7
REMARK    2  A    between atoms: C_8  and  C_11
REMARK    3  A    between atoms: C_11  and  C_15
REMARK                            x       y       z     vdW  Elec       q    Type
REMARK                         _______ _______ _______ _____ _____    ______ ____
ROOT
ATOM      1  C   UNL A   1     -26.317   0.399  27.365  0.00  0.00    -0.002 A 
ATOM      2  C   UNL A   1     -24.941   0.255  27.503  0.00  0.00    -0.000 A 
ATOM      3  C   UNL A   1     -26.913   0.586  26.140  0.00  0.00    -0.000 A 
ATOM      4  C   UNL A   1     -26.177   0.419  24.994  0.00  0.00    -0.000 A 
ATOM      5  C   UNL A   1     -24.737   0.339  25.098  0.00  0.00    -0.000 A 
ATOM      6  C   UNL A   1     -24.180   0.351  26.296  0.00  0.00    -0.003 A 
ENDROOT
BRANCH   1   9
ATOM      7  C   UNL A   1     -28.016  -0.814  28.878  0.00  0.00    -0.000 A 
ATOM      8  C   UNL A   1     -28.469  -0.785  29.829  0.00  0.00    -0.000 A 
ATOM      9  C   UNL A   1     -27.087   0.290  28.638  0.00  0.00    -0.000 A 
ATOM     10  C   UNL A   1     -26.832   1.249  29.587  0.00  0.00    -0.000 A 
ATOM     11  C   UNL A   1     -28.391   0.080  31.006  0.00  0.00    -0.000 A 
ATOM     12  C   UNL A   1     -27.494   1.152  30.784  0.00  0.00    -0.000 A 
ENDBRANCH   1   9
BRANCH   2  13
ATOM     13  C   UNL A   1     -24.254   0.104  28.804  0.00  0.00    +0.166 C 
ATOM     14 CL   UNL A   1     -23.768  -1.026  29.537  0.00  0.00    -0.102 Cl
BRANCH  13  15
ATOM     15  C   UNL A   1     -23.734   1.465  29.265  0.00  0.00    +0.228 C 
ATOM     16  O   UNL A   1     -23.222   2.315  28.584  0.00  0.00    -0.287 OA
ENDBRANCH  13  15
ENDBRANCH   2  13
TORSDOF 3
