MODEL 3501
MODEL 1
REMARK VINA RESULT:    -6.375      0.000      0.000
REMARK INTER + INTRA:          -7.966
REMARK INTER:                  -7.493
REMARK INTRA:                  -0.473
REMARK UNBOUND:                -0.473
REMARK  Name = No_3501-gen_results/8p0m/2024-11-26-14-13-15/
REMARK  3 active torsions:
REMARK  status: ('A' for Active; 'I' for Inactive)
REMARK    1  A    between atoms: C_3  and  C_7
REMARK    2  A    between atoms: C_8  and  C_11
REMARK    3  A    between atoms: C_11  and  C_15
REMARK                            x       y       z     vdW  Elec       q    Type
REMARK                         _______ _______ _______ _____ _____    ______ ____
ROOT
ATOM      1  C   UNL A   1     -24.552  -2.661  28.995  0.00  0.00    -0.002 A 
ATOM      2  C   UNL A   1     -25.781  -2.506  29.628  0.00  0.00    -0.000 A 
ATOM      3  C   UNL A   1     -24.031  -3.900  28.705  0.00  0.00    -0.000 A 
ATOM      4  C   UNL A   1     -24.817  -5.017  28.842  0.00  0.00    -0.000 A 
ATOM      5  C   UNL A   1     -26.067  -4.903  29.559  0.00  0.00    -0.000 A 
ATOM      6  C   UNL A   1     -26.451  -3.716  29.992  0.00  0.00    -0.003 A 
ENDROOT
BRANCH   1   9
ATOM      7  C   UNL A   1     -24.447  -0.481  27.622  0.00  0.00    -0.000 A 
ATOM      8  C   UNL A   1     -23.883   0.398  27.478  0.00  0.00    -0.000 A 
ATOM      9  C   UNL A   1     -23.877  -1.384  28.621  0.00  0.00    -0.000 A 
ATOM     10  C   UNL A   1     -22.726  -1.082  29.307  0.00  0.00    -0.000 A 
ATOM     11  C   UNL A   1     -22.664   0.971  28.047  0.00  0.00    -0.000 A 
ATOM     12  C   UNL A   1     -22.104   0.105  29.015  0.00  0.00    -0.000 A 
ENDBRANCH   1   9
BRANCH   2  13
ATOM     13  C   UNL A   1     -26.355  -1.196  30.005  0.00  0.00    +0.166 C 
ATOM     14 CL   UNL A   1     -27.314  -0.327  29.393  0.00  0.00    -0.102 Cl
BRANCH  13  15
ATOM     15  C   UNL A   1     -26.044  -0.909  31.473  0.00  0.00    +0.228 C 
ATOM     16  O   UNL A   1     -25.004  -1.105  32.047  0.00  0.00    -0.287 OA
ENDBRANCH  13  15
ENDBRANCH   2  13
TORSDOF 3
ENDMDL
ENDMDL
