MODEL 3502
MODEL 1
REMARK VINA RESULT:    -6.909      0.000      0.000
REMARK INTER + INTRA:         -10.750
REMARK INTER:                  -8.928
REMARK INTRA:                  -1.822
REMARK UNBOUND:                -1.822
REMARK  Name = No_3502-gen_results/8p0m/2024-11-26-14-13-15/
REMARK  5 active torsions:
REMARK  status: ('A' for Active; 'I' for Inactive)
REMARK    1  A    between atoms: C_3  and  C_19
REMARK    2  A    between atoms: C_5  and  C_15
REMARK    3  A    between atoms: N_21  and  C_24
REMARK    4  A    between atoms: C_25  and  C_26
REMARK    5  A    between atoms: C_27  and  C_28
REMARK                            x       y       z     vdW  Elec       q    Type
REMARK                         _______ _______ _______ _____ _____    ______ ____
ROOT
ATOM      1  C   UNL A   1     -10.409   2.249  36.413  0.00  0.00    +0.003 A 
ATOM      2  C   UNL A   1     -10.767   1.328  37.110  0.00  0.00    +0.022 A 
ATOM      3  C   UNL A   1     -11.449   1.454  38.308  0.00  0.00    +0.055 A 
ATOM      4  C   UNL A   1     -11.816   0.380  39.199  0.00  0.00    +0.009 A 
ATOM      5  C   UNL A   1     -11.468  -0.945  38.842  0.00  0.00    +0.073 A 
ATOM      6  C   UNL A   1     -10.731  -1.103  37.619  0.00  0.00    +0.023 A 
ATOM      7  C   UNL A   1     -10.369  -0.068  36.802  0.00  0.00    +0.081 A 
ATOM      8  C   UNL A   1      -9.771   1.977  35.095  0.00  0.00    +0.018 A 
ATOM      9  C   UNL A   1      -9.409   3.048  34.236  0.00  0.00    +0.008 A 
ATOM     10  C   UNL A   1      -8.215   3.003  33.620  0.00  0.00    +0.035 A 
ATOM     11  C   UNL A   1      -7.162   2.196  34.131  0.00  0.00    +0.008 A 
ATOM     12  C   UNL A   1      -7.490   1.201  35.073  0.00  0.00    +0.020 A 
ATOM     13  C   UNL A   1      -8.663   1.025  35.217  0.00  0.00    +0.081 A 
ATOM     14  N   UNL A   1      -8.995  -0.231  35.902  0.00  0.00    -0.245 NA
ATOM     15 BR   UNL A   1      -7.722   4.419  32.437  0.00  0.00    -0.049 Br
ENDROOT
BRANCH   5  16
ATOM     16  C   UNL A   1     -11.886  -2.111  39.572  0.00  0.00    +0.419 C 
ATOM     17  F   UNL A   1     -11.048  -2.626  40.307  0.00  0.00    -0.166 F 
ATOM     18  F   UNL A   1     -12.937  -1.884  40.422  0.00  0.00    -0.166 F 
ATOM     19  F   UNL A   1     -12.358  -3.087  38.653  0.00  0.00    -0.166 F 
ENDBRANCH   5  16
BRANCH   3  20
ATOM     20  C   UNL A   1     -11.934   2.760  38.779  0.00  0.00    +0.253 C 
ATOM     21  O   UNL A   1     -11.213   3.454  39.409  0.00  0.00    -0.270 OA
ATOM     22  N   UNL A   1     -13.083   3.243  38.260  0.00  0.00    -0.252 N 
ATOM     23  C   UNL A   1     -13.566   4.570  38.615  0.00  0.00    +0.120 C 
BRANCH  22  24
ATOM     24  C   UNL A   1     -14.050   2.454  37.416  0.00  0.00    +0.068 C 
ATOM     25  C   UNL A   1     -14.360   2.946  36.261  0.00  0.00    +0.016 C 
BRANCH  25  26
ATOM     26  C   UNL A   1     -14.002   3.402  35.408  0.00  0.00    +0.001 C 
ATOM     27  C   UNL A   1     -13.348   2.890  34.173  0.00  0.00    +0.000 C 
BRANCH  27  28
ATOM     28  C   UNL A   1     -13.198   1.537  34.095  0.00  0.00    +0.000 C 
ATOM     29  C   UNL A   1     -12.629   0.942  32.952  0.00  0.00    +0.000 C 
ENDBRANCH  27  28
ENDBRANCH  25  26
ENDBRANCH  22  24
ENDBRANCH   3  20
TORSDOF 5
ENDMDL
ENDMDL
