REMARK  Name = No_3502-gen_results/8p0m/2024-11-26-14-13-15/
REMARK  5 active torsions:
REMARK  status: ('A' for Active; 'I' for Inactive)
REMARK    1  A    between atoms: C_3  and  C_19
REMARK    2  A    between atoms: C_5  and  C_15
REMARK    3  A    between atoms: N_21  and  C_24
REMARK    4  A    between atoms: C_25  and  C_26
REMARK    5  A    between atoms: C_27  and  C_28
REMARK                            x       y       z     vdW  Elec       q    Type
REMARK                         _______ _______ _______ _____ _____    ______ ____
ROOT
ATOM      1  C   UNL A   1     -28.016  -0.814  28.878  0.00  0.00    +0.003 A 
ATOM      2  C   UNL A   1     -27.064  -0.119  28.608  0.00  0.00    +0.022 A 
ATOM      3  C   UNL A   1     -26.972   0.714  27.506  0.00  0.00    +0.055 A 
ATOM      4  C   UNL A   1     -25.820   1.491  27.116  0.00  0.00    +0.009 A 
ATOM      5  C   UNL A   1     -24.656   1.424  27.918  0.00  0.00    +0.073 A 
ATOM      6  C   UNL A   1     -24.711   0.542  29.051  0.00  0.00    +0.023 A 
ATOM      7  C   UNL A   1     -25.804  -0.206  29.388  0.00  0.00    +0.081 A 
ATOM      8  C   UNL A   1     -28.031  -1.590  30.149  0.00  0.00    +0.018 A 
ATOM      9  C   UNL A   1     -29.171  -2.355  30.511  0.00  0.00    +0.008 A 
ATOM     10  C   UNL A   1     -28.985  -3.591  31.006  0.00  0.00    +0.035 A 
ATOM     11  C   UNL A   1     -27.779  -4.301  30.758  0.00  0.00    +0.008 A 
ATOM     12  C   UNL A   1     -26.669  -3.572  30.288  0.00  0.00    +0.020 A 
ATOM     13  C   UNL A   1     -26.811  -2.386  30.310  0.00  0.00    +0.081 A 
ATOM     14  N   UNL A   1     -25.556  -1.635  30.176  0.00  0.00    -0.245 NA
ATOM     15 BR   UNL A   1     -30.504  -4.625  31.528  0.00  0.00    -0.049 Br
ENDROOT
BRANCH   5  16
ATOM     16  C   UNL A   1     -23.491   2.243  27.715  0.00  0.00    +0.419 C 
ATOM     17  F   UNL A   1     -23.689   3.386  27.314  0.00  0.00    -0.166 F 
ATOM     18  F   UNL A   1     -22.752   2.444  28.852  0.00  0.00    -0.166 F 
ATOM     19  F   UNL A   1     -22.612   1.582  26.815  0.00  0.00    -0.166 F 
ENDBRANCH   5  16
BRANCH   3  20
ATOM     20  C   UNL A   1     -28.122   0.936  26.617  0.00  0.00    +0.253 C 
ATOM     21  O   UNL A   1     -28.239   0.273  25.644  0.00  0.00    -0.270 OA
ATOM     22  N   UNL A   1     -29.143   1.697  27.065  0.00  0.00    -0.252 N 
ATOM     23  C   UNL A   1     -30.350   1.876  26.270  0.00  0.00    +0.120 C 
BRANCH  22  24
ATOM     24  C   UNL A   1     -29.108   2.546  28.309  0.00  0.00    +0.068 C 
ATOM     25  C   UNL A   1     -28.844   3.802  28.158  0.00  0.00    +0.016 C 
BRANCH  25  26
ATOM     26  C   UNL A   1     -29.031   4.648  27.598  0.00  0.00    +0.001 C 
ATOM     27  C   UNL A   1     -28.527   6.047  27.660  0.00  0.00    +0.000 C 
BRANCH  27  28
ATOM     28  C   UNL A   1     -27.597   6.303  28.624  0.00  0.00    +0.000 C 
ATOM     29  C   UNL A   1     -27.160   5.281  29.489  0.00  0.00    +0.000 C 
ENDBRANCH  27  28
ENDBRANCH  25  26
ENDBRANCH  22  24
ENDBRANCH   3  20
TORSDOF 5
