MODEL 3503
MODEL 1
REMARK VINA RESULT:    -6.893      0.000      0.000
REMARK INTER + INTRA:          -9.090
REMARK INTER:                  -8.505
REMARK INTRA:                  -0.584
REMARK UNBOUND:                -0.584
REMARK  Name = No_3503-gen_results/8p0m/2024-11-26-14-13-15/
REMARK  4 active torsions:
REMARK  status: ('A' for Active; 'I' for Inactive)
REMARK    1  A    between atoms: C_2  and  C_7
REMARK    2  A    between atoms: C_3  and  O_18
REMARK    3  A    between atoms: C_13  and  C_15
REMARK    4  A    between atoms: O_18  and  C_19
REMARK                            x       y       z     vdW  Elec       q    Type
REMARK                         _______ _______ _______ _____ _____    ______ ____
ROOT
ATOM      1  C   UNL A   1     -24.022   1.309  28.898  0.00  0.00    +0.042 A 
ATOM      2  C   UNL A   1     -23.842   1.962  28.092  0.00  0.00    +0.057 A 
ATOM      3  C   UNL A   1     -22.949   0.273  29.149  0.00  0.00    +0.147 A 
ATOM      4  C   UNL A   1     -21.747   0.331  28.412  0.00  0.00    +0.038 A 
ATOM      5  C   UNL A   1     -22.688   2.252  27.210  0.00  0.00    +0.005 A 
ATOM      6  C   UNL A   1     -21.678   1.323  27.416  0.00  0.00    +0.003 A 
ENDROOT
BRANCH   2   7
ATOM      7  C   UNL A   1     -24.959   3.082  27.811  0.00  0.00    +0.249 C 
ATOM      8  O   UNL A   1     -24.594   4.127  27.917  0.00  0.00    -0.270 OA
ATOM      9  N   UNL A   1     -26.109   2.712  27.043  0.00  0.00    -0.276 N 
ATOM     10  C   UNL A   1     -26.995   3.751  26.666  0.00  0.00    +0.094 C 
ATOM     11  C   UNL A   1     -27.646   3.510  25.643  0.00  0.00    +0.022 C 
ATOM     12  C   UNL A   1     -27.700   2.260  25.075  0.00  0.00    +0.015 C 
ATOM     13  C   UNL A   1     -26.818   1.217  25.412  0.00  0.00    +0.123 C 
ATOM     14  C   UNL A   1     -25.964   1.499  26.343  0.00  0.00    +0.105 C 
BRANCH  13  15
ATOM     15  C   UNL A   1     -26.860  -0.047  24.618  0.00  0.00    +0.366 C 
ATOM     16  O   UNL A   1     -27.740  -0.477  24.084  0.00  0.00    -0.246 OA
ATOM     17  O   UNL A   1     -25.697  -0.777  24.817  0.00  0.00    -0.246 OA
ENDBRANCH  13  15
ENDBRANCH   2   7
BRANCH   3  18
ATOM     18  O   UNL A   1     -23.043  -0.721  30.078  0.00  0.00    -0.436 OA
BRANCH  18  19
ATOM     19  C   UNL A   1     -23.826  -1.773  29.766  0.00  0.00    +0.230 A 
ATOM     20  C   UNL A   1     -25.146  -1.942  30.354  0.00  0.00    +0.058 A 
ATOM     21  C   UNL A   1     -25.848  -3.077  30.024  0.00  0.00    +0.006 A 
ATOM     22  C   UNL A   1     -25.368  -4.051  29.155  0.00  0.00    +0.021 A 
ATOM     23  N   UNL A   1     -23.439  -2.826  28.960  0.00  0.00    -0.210 NA
ATOM     24  C   UNL A   1     -24.132  -3.889  28.655  0.00  0.00    +0.102 A 
ENDBRANCH  18  19
ENDBRANCH   3  18
TORSDOF 4
ENDMDL
ENDMDL
