REMARK  Name = No_3503-gen_results/8p0m/2024-11-26-14-13-15/
REMARK  4 active torsions:
REMARK  status: ('A' for Active; 'I' for Inactive)
REMARK    1  A    between atoms: C_2  and  C_7
REMARK    2  A    between atoms: C_3  and  O_18
REMARK    3  A    between atoms: C_13  and  C_15
REMARK    4  A    between atoms: O_18  and  C_19
REMARK                            x       y       z     vdW  Elec       q    Type
REMARK                         _______ _______ _______ _____ _____    ______ ____
ROOT
ATOM      1  C   UNL A   1     -28.016  -0.814  28.878  0.00  0.00    +0.042 A 
ATOM      2  C   UNL A   1     -28.469  -0.785  29.829  0.00  0.00    +0.057 A 
ATOM      3  C   UNL A   1     -26.504  -0.778  28.877  0.00  0.00    +0.147 A 
ATOM      4  C   UNL A   1     -25.810  -0.853  30.103  0.00  0.00    +0.038 A 
ATOM      5  C   UNL A   1     -27.991  -0.892  31.226  0.00  0.00    +0.005 A 
ATOM      6  C   UNL A   1     -26.604  -0.868  31.265  0.00  0.00    +0.003 A 
ENDROOT
BRANCH   2   7
ATOM      7  C   UNL A   1     -30.074  -0.836  29.861  0.00  0.00    +0.249 C 
ATOM      8  O   UNL A   1     -30.561  -0.442  28.942  0.00  0.00    -0.270 OA
ATOM      9  N   UNL A   1     -30.704  -1.742  30.773  0.00  0.00    -0.276 N 
ATOM     10  C   UNL A   1     -32.109  -1.893  30.667  0.00  0.00    +0.094 C 
ATOM     11  C   UNL A   1     -32.530  -2.981  31.075  0.00  0.00    +0.022 C 
ATOM     12  C   UNL A   1     -31.753  -3.854  31.797  0.00  0.00    +0.015 C 
ATOM     13  C   UNL A   1     -30.354  -3.743  31.901  0.00  0.00    +0.123 C 
ATOM     14  C   UNL A   1     -29.838  -2.720  31.297  0.00  0.00    +0.105 C 
BRANCH  13  15
ATOM     15  C   UNL A   1     -29.592  -4.837  32.574  0.00  0.00    +0.366 C 
ATOM     16  O   UNL A   1     -29.391  -4.943  33.666  0.00  0.00    -0.246 OA
ATOM     17  O   UNL A   1     -28.937  -5.615  31.631  0.00  0.00    -0.246 OA
ENDBRANCH  13  15
ENDBRANCH   2   7
BRANCH   3  18
ATOM     18  O   UNL A   1     -25.738  -0.707  27.750  0.00  0.00    -0.436 OA
BRANCH  18  19
ATOM     19  C   UNL A   1     -24.508  -0.173  27.884  0.00  0.00    +0.230 A 
ATOM     20  C   UNL A   1     -24.099   0.999  27.125  0.00  0.00    +0.058 A 
ATOM     21  C   UNL A   1     -22.805   1.437  27.280  0.00  0.00    +0.006 A 
ATOM     22  C   UNL A   1     -21.885   0.828  28.128  0.00  0.00    +0.021 A 
ATOM     23  N   UNL A   1     -23.497  -0.717  28.652  0.00  0.00    -0.210 NA
ATOM     24  C   UNL A   1     -22.277  -0.273  28.789  0.00  0.00    +0.102 A 
ENDBRANCH  18  19
ENDBRANCH   3  18
TORSDOF 4
