REMARK  Name = No_3504-gen_results/8p0m/2024-11-26-14-13-15/
REMARK  4 active torsions:
REMARK  status: ('A' for Active; 'I' for Inactive)
REMARK    1  A    between atoms: C_3  and  C_4
REMARK    2  A    between atoms: C_4  and  C_8
REMARK    3  A    between atoms: C_9  and  C_10
REMARK    4  A    between atoms: C_11  and  C_12
REMARK                            x       y       z     vdW  Elec       q    Type
REMARK                         _______ _______ _______ _____ _____    ______ ____
ROOT
ATOM      1  C   UNL A   1     -25.654  -0.660  27.719  0.00  0.00    +0.052 C 
ENDROOT
BRANCH   1   4
ATOM      2  C   UNL A   1     -28.016  -0.814  28.878  0.00  0.00    -0.004 A 
ATOM      3  C   UNL A   1     -28.469  -0.785  29.829  0.00  0.00    -0.000 A 
ATOM      4  C   UNL A   1     -26.504  -0.778  28.877  0.00  0.00    -0.018 A 
ATOM      5  C   UNL A   1     -27.918  -0.937  31.182  0.00  0.00    -0.000 A 
ATOM      6  C   UNL A   1     -26.542  -0.940  31.261  0.00  0.00    -0.000 A 
ATOM      7  C   UNL A   1     -25.791  -0.904  30.175  0.00  0.00    -0.004 A 
ENDBRANCH   1   4
BRANCH   1   8
ATOM      8  C   UNL A   1     -25.897   0.317  26.757  0.00  0.00    -0.021 C 
ATOM      9  C   UNL A   1     -26.773   0.461  26.249  0.00  0.00    -0.004 C 
BRANCH   9  10
ATOM     10  C   UNL A   1     -27.200   1.276  25.490  0.00  0.00    -0.000 C 
ATOM     11  C   UNL A   1     -28.529   1.450  24.911  0.00  0.00    -0.000 C 
BRANCH  11  12
ATOM     12  C   UNL A   1     -29.270   0.392  25.224  0.00  0.00    -0.000 C 
ATOM     13  C   UNL A   1     -28.989  -0.617  25.852  0.00  0.00    -0.000 C 
ENDBRANCH  11  12
ENDBRANCH   9  10
ENDBRANCH   1   8
TORSDOF 4
