REMARK  Name = No_3505-gen_results/8p0m/2024-11-26-14-13-15/
REMARK  1 active torsions:
REMARK  status: ('A' for Active; 'I' for Inactive)
REMARK    1  A    between atoms: C_7  and  C_8
REMARK                            x       y       z     vdW  Elec       q    Type
REMARK                         _______ _______ _______ _____ _____    ______ ____
ROOT
ATOM      1  O   UNL A   1     -28.123  -1.335  28.487  0.00  0.00    -0.437 OA
ATOM      2  C   UNL A   1     -27.064  -0.824  28.869  0.00  0.00    +0.226 A 
ATOM      3  C   UNL A   1     -27.025   0.188  29.736  0.00  0.00    +0.036 A 
ATOM      4  C   UNL A   1     -25.839   0.851  29.996  0.00  0.00    -0.013 A 
ATOM      5  N   UNL A   1     -25.779  -0.996  28.190  0.00  0.00    -0.210 NA
ATOM      6  C   UNL A   1     -24.612  -0.425  28.439  0.00  0.00    +0.108 A 
ATOM      7  C   UNL A   1     -24.586   0.556  29.370  0.00  0.00    +0.095 A 
ATOM      8  C   UNL A   1     -28.951  -1.484  29.545  0.00  0.00    +0.144 A 
ATOM      9  C   UNL A   1     -29.575  -2.515  29.510  0.00  0.00    +0.037 A 
ATOM     10  C   UNL A   1     -30.555  -2.863  30.680  0.00  0.00    +0.003 A 
ATOM     11  C   UNL A   1     -30.774  -1.879  31.620  0.00  0.00    -0.000 A 
ATOM     12  C   UNL A   1     -30.057  -0.731  31.550  0.00  0.00    -0.001 A 
ATOM     13  C   UNL A   1     -29.161  -0.503  30.508  0.00  0.00    +0.020 A 
ATOM     14  C   UNL A   1     -28.131   0.346  30.671  0.00  0.00    +0.073 C 
ATOM     15  C   UNL A   1     -28.118   1.429  31.684  0.00  0.00    -0.022 C 
ATOM     16  C   UNL A   1     -27.350   2.439  31.731  0.00  0.00    -0.030 C 
ATOM     17  C   UNL A   1     -26.040   2.577  31.197  0.00  0.00    +0.030 C 
ATOM     18  C   UNL A   1     -25.712   1.845  30.912  0.00  0.00    +0.031 C 
ENDROOT
BRANCH   7  19
ATOM     19  C   UNL A   1     -23.325   1.220  29.632  0.00  0.00    +0.389 C 
ATOM     20  O   UNL A   1     -23.317   2.151  30.344  0.00  0.00    -0.240 OA
ATOM     21  O   UNL A   1     -22.207   0.724  29.208  0.00  0.00    -0.240 OA
ENDBRANCH   7  19
TORSDOF 1
