MODEL 3505
MODEL 1
REMARK VINA RESULT:    -7.206      0.000      0.000
REMARK INTER + INTRA:          -7.741
REMARK INTER:                  -7.628
REMARK INTRA:                  -0.113
REMARK UNBOUND:                -0.113
REMARK  Name = No_3505-gen_results/8p0m/2024-11-26-14-13-15/
REMARK  1 active torsions:
REMARK  status: ('A' for Active; 'I' for Inactive)
REMARK    1  A    between atoms: C_7  and  C_8
REMARK                            x       y       z     vdW  Elec       q    Type
REMARK                         _______ _______ _______ _____ _____    ______ ____
ROOT
ATOM      1  O   UNL A   1     -26.554  -1.337  29.956  0.00  0.00    -0.437 OA
ATOM      2  C   UNL A   1     -26.169  -0.412  29.232  0.00  0.00    +0.226 A 
ATOM      3  C   UNL A   1     -24.882  -0.196  28.963  0.00  0.00    +0.036 A 
ATOM      4  C   UNL A   1     -24.480   0.952  28.304  0.00  0.00    -0.013 A 
ATOM      5  N   UNL A   1     -26.992   0.744  28.873  0.00  0.00    -0.210 NA
ATOM      6  C   UNL A   1     -26.664   1.834  28.200  0.00  0.00    +0.108 A 
ATOM      7  C   UNL A   1     -25.359   2.000  27.882  0.00  0.00    +0.095 A 
ATOM      8  C   UNL A   1     -25.859  -2.457  29.653  0.00  0.00    +0.144 A 
ATOM      9  C   UNL A   1     -26.539  -3.452  29.680  0.00  0.00    +0.037 A 
ATOM     10  C   UNL A   1     -25.899  -4.833  29.317  0.00  0.00    +0.003 A 
ATOM     11  C   UNL A   1     -24.532  -4.857  29.142  0.00  0.00    -0.000 A 
ATOM     12  C   UNL A   1     -23.844  -3.690  29.176  0.00  0.00    -0.001 A 
ATOM     13  C   UNL A   1     -24.483  -2.484  29.456  0.00  0.00    +0.020 A 
ATOM     14  C   UNL A   1     -23.959  -1.322  29.027  0.00  0.00    +0.073 C 
ATOM     15  C   UNL A   1     -22.524  -1.146  28.697  0.00  0.00    -0.022 C 
ATOM     16  C   UNL A   1     -21.886  -0.056  28.567  0.00  0.00    -0.030 C 
ATOM     17  C   UNL A   1     -22.388   1.223  28.204  0.00  0.00    +0.030 C 
ATOM     18  C   UNL A   1     -23.197   1.207  27.940  0.00  0.00    +0.031 C 
ENDROOT
BRANCH   7  19
ATOM     19  C   UNL A   1     -24.972   3.204  27.176  0.00  0.00    +0.389 C 
ATOM     20  O   UNL A   1     -25.114   3.245  26.013  0.00  0.00    -0.240 OA
ATOM     21  O   UNL A   1     -24.608   4.268  27.818  0.00  0.00    -0.240 OA
ENDBRANCH   7  19
TORSDOF 1
ENDMDL
ENDMDL
