REMARK  Name = No_3506-gen_results/8p0m/2024-11-26-14-13-15/
REMARK  9 active torsions:
REMARK  status: ('A' for Active; 'I' for Inactive)
REMARK    1  A    between atoms: C_2  and  C_8
REMARK    2  A    between atoms: C_8  and  C_9
REMARK    3  A    between atoms: C_8  and  C_19
REMARK    4  A    between atoms: C_9  and  C_10
REMARK    5  A    between atoms: C_9  and  C_16
REMARK    6  A    between atoms: C_19  and  C_20
REMARK    7  A    between atoms: C_20  and  C_21
REMARK    8  A    between atoms: C_21  and  C_22
REMARK    9  A    between atoms: C_23  and  C_24
REMARK                            x       y       z     vdW  Elec       q    Type
REMARK                         _______ _______ _______ _____ _____    ______ ____
ROOT
ATOM      1  C   UNL A   1     -25.714  -0.220  29.407  0.00  0.00    +0.037 C 
ENDROOT
BRANCH   1   3
ATOM      2  C   UNL A   1     -28.016  -0.814  28.878  0.00  0.00    -0.001 A 
ATOM      3  C   UNL A   1     -27.064  -0.119  28.608  0.00  0.00    -0.021 A 
ATOM      4  C   UNL A   1     -26.972   0.714  27.506  0.00  0.00    -0.001 A 
ATOM      5  C   UNL A   1     -28.105   0.774  26.642  0.00  0.00    +0.042 A 
ATOM      6  C   UNL A   1     -29.201   0.104  27.053  0.00  0.00    +0.196 A 
ATOM      7  C   UNL A   1     -29.210  -0.603  28.185  0.00  0.00    +0.042 A 
ATOM      8  O   UNL A   1     -30.304   0.227  26.260  0.00  0.00    -0.287 OA
ENDBRANCH   1   3
BRANCH   1   9
ATOM      9  C   UNL A   1     -25.243   0.966  30.109  0.00  0.00    +0.130 C 
BRANCH   9  10
ATOM     10  C   UNL A   1     -25.478   1.189  31.081  0.00  0.00    -0.011 A 
ATOM     11  C   UNL A   1     -26.306   0.398  31.996  0.00  0.00    -0.004 A 
ATOM     12  C   UNL A   1     -27.194   0.670  32.578  0.00  0.00    -0.000 A 
ATOM     13  C   UNL A   1     -27.772   1.984  32.374  0.00  0.00    -0.000 A 
ATOM     14  C   UNL A   1     -26.916   3.030  31.998  0.00  0.00    -0.000 A 
ATOM     15  C   UNL A   1     -25.843   2.632  31.119  0.00  0.00    -0.004 A 
ENDBRANCH   9  10
BRANCH   9  16
ATOM     16  C   UNL A   1     -24.132   1.612  29.282  0.00  0.00    +0.369 C 
ATOM     17  O   UNL A   1     -22.991   1.366  29.468  0.00  0.00    -0.245 OA
ATOM     18  O   UNL A   1     -24.468   2.587  28.360  0.00  0.00    -0.245 OA
ENDBRANCH   9  16
ENDBRANCH   1   9
BRANCH   1  19
ATOM     19  C   UNL A   1     -25.688  -1.550  30.108  0.00  0.00    +0.006 C 
BRANCH  19  20
ATOM     20  C   UNL A   1     -24.677  -2.358  29.554  0.00  0.00    +0.004 C 
ATOM     21  C   UNL A   1     -23.284  -1.830  29.378  0.00  0.00    +0.000 C 
BRANCH  20  22
ATOM     22  C   UNL A   1     -24.912  -3.724  29.179  0.00  0.00    +0.022 C 
ATOM     23  C   UNL A   1     -23.913  -4.508  28.540  0.00  0.00    +0.005 C 
BRANCH  22  24
ATOM     24  C   UNL A   1     -26.220  -4.165  29.353  0.00  0.00    -0.025 C 
ATOM     25  C   UNL A   1     -26.572  -4.540  30.631  0.00  0.00    +0.015 C 
BRANCH  25  26
ATOM     26  C   UNL A   1     -28.135  -4.550  30.685  0.00  0.00    +0.081 A 
ATOM     27  N   UNL A   1     -28.809  -3.902  31.474  0.00  0.00    -0.244 NA
ATOM     28  C   UNL A   1     -30.212  -3.991  31.517  0.00  0.00    +0.099 A 
ATOM     29  C   UNL A   1     -30.721  -4.758  30.523  0.00  0.00    +0.021 A 
ATOM     30  C   UNL A   1     -30.055  -5.433  29.587  0.00  0.00    +0.003 A 
ATOM     31  C   UNL A   1     -28.706  -5.251  29.652  0.00  0.00    +0.019 A 
ENDBRANCH  25  26
ENDBRANCH  22  24
ENDBRANCH  20  22
ENDBRANCH  19  20
ENDBRANCH   1  19
TORSDOF 9
