MODEL 3506
MODEL 1
REMARK VINA RESULT:    -7.823      0.000      0.000
REMARK INTER + INTRA:         -15.065
REMARK INTER:                 -11.939
REMARK INTRA:                  -3.126
REMARK UNBOUND:                -3.126
REMARK  Name = No_3506-gen_results/8p0m/2024-11-26-14-13-15/
REMARK  9 active torsions:
REMARK  status: ('A' for Active; 'I' for Inactive)
REMARK    1  A    between atoms: C_2  and  C_8
REMARK    2  A    between atoms: C_8  and  C_9
REMARK    3  A    between atoms: C_8  and  C_19
REMARK    4  A    between atoms: C_9  and  C_10
REMARK    5  A    between atoms: C_9  and  C_16
REMARK    6  A    between atoms: C_19  and  C_20
REMARK    7  A    between atoms: C_20  and  C_21
REMARK    8  A    between atoms: C_21  and  C_22
REMARK    9  A    between atoms: C_23  and  C_24
REMARK                            x       y       z     vdW  Elec       q    Type
REMARK                         _______ _______ _______ _____ _____    ______ ____
ROOT
ATOM      1  C   UNL A   1     -23.989  -0.430  28.974  0.00  0.00    +0.037 C 
ENDROOT
BRANCH   1   3
ATOM      2  C   UNL A   1     -24.068  -2.862  28.881  0.00  0.00    -0.001 A 
ATOM      3  C   UNL A   1     -24.620  -1.846  29.233  0.00  0.00    -0.021 A 
ATOM      4  C   UNL A   1     -25.904  -1.774  29.748  0.00  0.00    -0.001 A 
ATOM      5  C   UNL A   1     -26.612  -3.002  29.898  0.00  0.00    +0.042 A 
ATOM      6  C   UNL A   1     -25.914  -4.126  29.637  0.00  0.00    +0.196 A 
ATOM      7  C   UNL A   1     -24.644  -4.086  29.227  0.00  0.00    +0.042 A 
ATOM      8  O   UNL A   1     -26.574  -5.299  29.856  0.00  0.00    -0.287 OA
ENDBRANCH   1   3
BRANCH   1   9
ATOM      9  C   UNL A   1     -22.817  -0.050  29.750  0.00  0.00    +0.130 C 
BRANCH   9  10
ATOM     10  C   UNL A   1     -22.819   0.086  30.765  0.00  0.00    -0.011 A 
ATOM     11  C   UNL A   1     -22.768  -0.953  31.798  0.00  0.00    -0.004 A 
ATOM     12  C   UNL A   1     -23.432  -1.156  32.646  0.00  0.00    -0.000 A 
ATOM     13  C   UNL A   1     -24.650  -0.377  32.766  0.00  0.00    -0.000 A 
ATOM     14  C   UNL A   1     -24.647   0.932  32.262  0.00  0.00    -0.000 A 
ATOM     15  C   UNL A   1     -23.862   1.106  31.064  0.00  0.00    -0.004 A 
ENDBRANCH   9  10
BRANCH   9  16
ATOM     16  C   UNL A   1     -21.579  -0.203  28.867  0.00  0.00    +0.369 C 
ATOM     17  O   UNL A   1     -20.930  -1.190  28.866  0.00  0.00    -0.245 OA
ATOM     18  O   UNL A   1     -21.151   0.883  28.125  0.00  0.00    -0.245 OA
ENDBRANCH   9  16
ENDBRANCH   1   9
BRANCH   1  19
ATOM     19  C   UNL A   1     -24.005  -0.178  27.492  0.00  0.00    +0.006 C 
BRANCH  19  20
ATOM     20  C   UNL A   1     -24.809   0.943  27.210  0.00  0.00    +0.004 C 
ATOM     21  C   UNL A   1     -25.787   1.459  28.223  0.00  0.00    +0.000 C 
BRANCH  20  22
ATOM     22  C   UNL A   1     -24.700   1.668  25.975  0.00  0.00    +0.022 C 
ATOM     23  C   UNL A   1     -23.548   2.438  25.657  0.00  0.00    +0.005 C 
BRANCH  22  24
ATOM     24  C   UNL A   1     -25.852   1.678  25.196  0.00  0.00    -0.025 C 
ATOM     25  C   UNL A   1     -26.129   0.520  24.502  0.00  0.00    +0.015 C 
BRANCH  25  26
ATOM     26  C   UNL A   1     -27.636   0.588  24.091  0.00  0.00    +0.081 A 
ATOM     27  N   UNL A   1     -28.407  -0.362  24.109  0.00  0.00    -0.244 NA
ATOM     28  C   UNL A   1     -29.741  -0.258  23.674  0.00  0.00    +0.099 A 
ATOM     29  C   UNL A   1     -30.096   1.012  23.365  0.00  0.00    +0.021 A 
ATOM     30  C   UNL A   1     -29.334   2.105  23.392  0.00  0.00    +0.003 A 
ATOM     31  C   UNL A   1     -28.070   1.867  23.842  0.00  0.00    +0.019 A 
ENDBRANCH  25  26
ENDBRANCH  22  24
ENDBRANCH  20  22
ENDBRANCH  19  20
ENDBRANCH   1  19
TORSDOF 9
ENDMDL
ENDMDL
