MODEL 3507
MODEL 1
REMARK VINA RESULT:    -7.646      0.000      0.000
REMARK INTER + INTRA:         -10.514
REMARK INTER:                  -9.434
REMARK INTRA:                  -1.080
REMARK UNBOUND:                -1.080
REMARK  Name = No_3507-gen_results/8p0m/2024-11-26-14-13-15/
REMARK  4 active torsions:
REMARK  status: ('A' for Active; 'I' for Inactive)
REMARK    1  A    between atoms: C_5  and  C_8
REMARK    2  A    between atoms: C_13  and  C_14
REMARK    3  A    between atoms: C_18  and  C_20
REMARK    4  A    between atoms: C_20  and  C_22
REMARK                            x       y       z     vdW  Elec       q    Type
REMARK                         _______ _______ _______ _____ _____    ______ ____
ROOT
ATOM      1  C   UNL A   1      -8.309  -0.005  35.243  0.00  0.00    +0.000 A 
ATOM      2  C   UNL A   1      -8.865   0.909  34.782  0.00  0.00    +0.000 A 
ATOM      3  C   UNL A   1     -10.146   1.371  35.263  0.00  0.00    -0.000 A 
ATOM      4  C   UNL A   1     -10.781   0.650  36.262  0.00  0.00    -0.000 A 
ATOM      5  C   UNL A   1      -8.978  -0.762  36.352  0.00  0.00    -0.000 A 
ATOM      6  C   UNL A   1     -10.138  -0.414  36.780  0.00  0.00    -0.000 A 
ENDROOT
BRANCH   1  11
ATOM      7  C   UNL A   1      -5.747  -2.303  34.211  0.00  0.00    +0.030 A 
ATOM      8  C   UNL A   1      -6.646  -1.850  34.520  0.00  0.00    +0.002 A 
ATOM      9  C   UNL A   1      -4.554  -1.522  34.378  0.00  0.00    +0.140 A 
ATOM     10  C   UNL A   1      -4.569  -0.237  34.743  0.00  0.00    +0.030 A 
ATOM     11  C   UNL A   1      -6.900  -0.475  34.925  0.00  0.00    +0.000 A 
ATOM     12  C   UNL A   1      -5.809   0.268  35.062  0.00  0.00    +0.002 A 
ATOM     13  F   UNL A   1      -3.371  -2.147  34.042  0.00  0.00    -0.204 F 
ENDBRANCH   1  11
BRANCH   6  14
ATOM     14  C   UNL A   1     -10.794  -1.195  37.876  0.00  0.00    -0.000 A 
ATOM     15  C   UNL A   1     -11.655  -1.987  37.768  0.00  0.00    -0.000 A 
ATOM     16  C   UNL A   1     -12.296  -2.684  38.901  0.00  0.00    -0.000 A 
ATOM     17  C   UNL A   1     -11.811  -2.353  40.165  0.00  0.00    -0.003 A 
ATOM     18  C   UNL A   1     -10.806  -1.468  40.310  0.00  0.00    -0.000 A 
ATOM     19  C   UNL A   1     -10.185  -0.825  39.182  0.00  0.00    -0.003 A 
BRANCH  18  20
ATOM     20  C   UNL A   1     -10.230  -1.115  41.623  0.00  0.00    +0.166 C 
ATOM     21 CL   UNL A   1     -10.927  -0.340  42.740  0.00  0.00    -0.102 Cl
BRANCH  20  22
ATOM     22  C   UNL A   1      -8.842  -1.528  41.843  0.00  0.00    +0.228 C 
ATOM     23  O   UNL A   1      -8.561  -2.585  42.005  0.00  0.00    -0.287 OA
ENDBRANCH  20  22
ENDBRANCH  18  20
ENDBRANCH   6  14
TORSDOF 4
ENDMDL
ENDMDL
