REMARK  Name = No_3508-gen_results/8p0m/2024-11-26-14-13-15/
REMARK  1 active torsions:
REMARK  status: ('A' for Active; 'I' for Inactive)
REMARK    1  A    between atoms: C_1  and  C_2
REMARK                            x       y       z     vdW  Elec       q    Type
REMARK                         _______ _______ _______ _____ _____    ______ ____
ROOT
ATOM      1  C   UNL A   1     -27.064  -0.119  28.608  0.00  0.00    +0.044 A 
ATOM      2  C   UNL A   1     -27.001   0.691  27.491  0.00  0.00    +0.001 A 
ATOM      3  C   UNL A   1     -25.855   1.482  27.083  0.00  0.00    +0.003 A 
ATOM      4  C   UNL A   1     -24.690   1.453  27.881  0.00  0.00    +0.035 A 
ATOM      5  C   UNL A   1     -24.738   0.601  29.042  0.00  0.00    +0.004 A 
ATOM      6  C   UNL A   1     -25.823  -0.169  29.389  0.00  0.00    +0.001 A 
ATOM      7  C   UNL A   1     -23.512   2.201  27.582  0.00  0.00    +0.170 A 
ATOM      8  N   UNL A   1     -23.507   3.169  26.816  0.00  0.00    -0.107 NA
ATOM      9  N   UNL A   1     -22.275   1.762  28.023  0.00  0.00    -0.226 NA
ATOM     10  C   UNL A   1     -22.069   0.711  28.830  0.00  0.00    +0.100 A 
ATOM     11  C   UNL A   1     -23.251   0.065  29.430  0.00  0.00    +0.021 A 
ENDROOT
BRANCH   1  12
ATOM     12  C   UNL A   1     -28.016  -0.814  28.878  0.00  0.00    +0.341 C 
ATOM     13  F   UNL A   1     -28.952  -0.639  28.165  0.00  0.00    -0.193 F 
ATOM     14  F   UNL A   1     -28.429  -0.600  30.233  0.00  0.00    -0.193 F 
ENDBRANCH   1  12
TORSDOF 1
