MODEL 3508
MODEL 1
REMARK VINA RESULT:    -6.084      0.000      0.000
REMARK INTER + INTRA:          -6.610
REMARK INTER:                  -6.439
REMARK INTRA:                  -0.171
REMARK UNBOUND:                -0.171
REMARK  Name = No_3508-gen_results/8p0m/2024-11-26-14-13-15/
REMARK  1 active torsions:
REMARK  status: ('A' for Active; 'I' for Inactive)
REMARK    1  A    between atoms: C_1  and  C_2
REMARK                            x       y       z     vdW  Elec       q    Type
REMARK                         _______ _______ _______ _____ _____    ______ ____
ROOT
ATOM      1  C   UNL A   1     -23.177   1.775  26.311  0.00  0.00    +0.044 A 
ATOM      2  C   UNL A   1     -22.103   1.709  27.177  0.00  0.00    +0.001 A 
ATOM      3  C   UNL A   1     -22.024   0.879  28.365  0.00  0.00    +0.003 A 
ATOM      4  C   UNL A   1     -23.128   0.065  28.701  0.00  0.00    +0.035 A 
ATOM      5  C   UNL A   1     -24.250   0.115  27.798  0.00  0.00    +0.004 A 
ATOM      6  C   UNL A   1     -24.288   0.882  26.657  0.00  0.00    +0.001 A 
ATOM      7  C   UNL A   1     -23.164  -0.778  29.852  0.00  0.00    +0.170 A 
ATOM      8  N   UNL A   1     -22.403  -0.635  30.813  0.00  0.00    -0.107 NA
ATOM      9  N   UNL A   1     -23.961  -1.910  29.864  0.00  0.00    -0.226 NA
ATOM     10  C   UNL A   1     -24.825  -2.259  28.899  0.00  0.00    +0.100 A 
ATOM     11  C   UNL A   1     -25.073  -1.289  27.817  0.00  0.00    +0.021 A 
ENDROOT
BRANCH   1  12
ATOM     12  C   UNL A   1     -23.178   2.431  25.295  0.00  0.00    +0.341 C 
ATOM     13  F   UNL A   1     -22.100   2.558  24.809  0.00  0.00    -0.193 F 
ATOM     14  F   UNL A   1     -23.728   3.732  25.535  0.00  0.00    -0.193 F 
ENDBRANCH   1  12
TORSDOF 1
ENDMDL
ENDMDL
