MODEL 3509
MODEL 1
REMARK VINA RESULT:    -7.795      0.000      0.000
REMARK INTER + INTRA:         -11.438
REMARK INTER:                 -10.529
REMARK INTRA:                  -0.909
REMARK UNBOUND:                -0.909
REMARK  Name = No_3509-gen_results/8p0m/2024-11-26-14-13-15/
REMARK  6 active torsions:
REMARK  status: ('A' for Active; 'I' for Inactive)
REMARK    1  A    between atoms: C_2  and  C_7
REMARK    2  A    between atoms: N_9  and  C_10
REMARK    3  A    between atoms: C_13  and  C_16
REMARK    4  A    between atoms: N_18  and  C_19
REMARK    5  A    between atoms: C_22  and  C_25
REMARK    6  A    between atoms: N_27  and  C_28
REMARK                            x       y       z     vdW  Elec       q    Type
REMARK                         _______ _______ _______ _____ _____    ______ ____
ROOT
ATOM      1  C   UNL A   1      -8.982   0.129  35.447  0.00  0.00    +0.269 C 
ATOM      2  O   UNL A   1      -9.499  -0.296  36.434  0.00  0.00    -0.268 OA
ATOM      3  N   UNL A   1      -9.442   1.171  34.791  0.00  0.00    -0.175 NA
ENDROOT
BRANCH   1   7
ATOM      4  C   UNL A   1      -4.865  -0.845  34.608  0.00  0.00    +0.074 A 
ATOM      5  C   UNL A   1      -5.266   0.080  35.020  0.00  0.00    +0.017 A 
ATOM      6  C   UNL A   1      -6.593   0.609  35.364  0.00  0.00    +0.006 A 
ATOM      7  C   UNL A   1      -7.613  -0.320  35.112  0.00  0.00    +0.056 A 
ATOM      8  C   UNL A   1      -7.348  -1.537  34.588  0.00  0.00    +0.006 A 
ATOM      9  C   UNL A   1      -6.075  -1.954  34.298  0.00  0.00    +0.017 A 
BRANCH   4  12
ATOM     10  C   UNL A   1      -2.828  -1.605  35.082  0.00  0.00    +0.269 C 
ATOM     11  O   UNL A   1      -2.846  -1.757  36.183  0.00  0.00    -0.268 OA
ATOM     12  N   UNL A   1      -3.958  -1.351  34.322  0.00  0.00    -0.175 NA
BRANCH  10  14
ATOM     13  C   UNL A   1      -0.576  -1.931  34.919  0.00  0.00    +0.004 A 
ATOM     14  C   UNL A   1      -1.466  -2.081  34.375  0.00  0.00    +0.055 A 
ATOM     15  C   UNL A   1       0.692  -2.376  34.225  0.00  0.00    -0.004 A 
ATOM     16  C   UNL A   1       0.630  -2.812  32.885  0.00  0.00    -0.022 A 
ATOM     17  C   UNL A   1      -1.798  -2.473  32.986  0.00  0.00    +0.004 A 
ATOM     18  C   UNL A   1      -0.655  -2.883  32.314  0.00  0.00    -0.004 A 
ATOM     19  C   UNL A   1       1.811  -3.265  32.194  0.00  0.00    +0.031 C 
ENDBRANCH  10  14
ENDBRANCH   4  12
ENDBRANCH   1   7
BRANCH   3  20
ATOM     20  C   UNL A   1     -10.750   1.696  35.037  0.00  0.00    +0.074 A 
ATOM     21  C   UNL A   1     -11.656   1.401  34.253  0.00  0.00    +0.017 A 
ATOM     22  C   UNL A   1     -12.961   1.938  34.410  0.00  0.00    +0.006 A 
ATOM     23  C   UNL A   1     -13.217   2.813  35.525  0.00  0.00    +0.056 A 
ATOM     24  C   UNL A   1     -12.139   3.082  36.354  0.00  0.00    +0.006 A 
ATOM     25  C   UNL A   1     -10.904   2.584  36.153  0.00  0.00    +0.017 A 
BRANCH  23  26
ATOM     26  C   UNL A   1     -14.551   3.331  35.699  0.00  0.00    +0.269 C 
ATOM     27  O   UNL A   1     -15.449   3.410  35.041  0.00  0.00    -0.268 OA
ATOM     28  N   UNL A   1     -14.711   3.851  37.060  0.00  0.00    -0.175 NA
BRANCH  28  29
ATOM     29  C   UNL A   1     -15.694   4.363  37.503  0.00  0.00    +0.074 A 
ATOM     30  C   UNL A   1     -16.283   5.269  37.553  0.00  0.00    +0.018 A 
ATOM     31  C   UNL A   1     -17.487   5.675  38.210  0.00  0.00    +0.013 A 
ATOM     32  C   UNL A   1     -18.044   4.691  39.047  0.00  0.00    +0.058 A 
ATOM     33  C   UNL A   1     -17.465   3.469  39.133  0.00  0.00    +0.013 A 
ATOM     34  C   UNL A   1     -16.286   3.169  38.501  0.00  0.00    +0.018 A 
ATOM     35 CL   UNL A   1     -19.485   5.082  39.878  0.00  0.00    -0.082 Cl
ENDBRANCH  28  29
ENDBRANCH  23  26
ENDBRANCH   3  20
TORSDOF 6
ENDMDL
ENDMDL
