REMARK  Name = No_3509-gen_results/8p0m/2024-11-26-14-13-15/
REMARK  6 active torsions:
REMARK  status: ('A' for Active; 'I' for Inactive)
REMARK    1  A    between atoms: C_2  and  C_7
REMARK    2  A    between atoms: N_9  and  C_10
REMARK    3  A    between atoms: C_13  and  C_16
REMARK    4  A    between atoms: N_18  and  C_19
REMARK    5  A    between atoms: C_22  and  C_25
REMARK    6  A    between atoms: N_27  and  C_28
REMARK                            x       y       z     vdW  Elec       q    Type
REMARK                         _______ _______ _______ _____ _____    ______ ____
ROOT
ATOM      1  C   UNL A   1     -35.553  -2.378  33.000  0.00  0.00    +0.269 C 
ATOM      2  O   UNL A   1     -35.793  -2.247  34.161  0.00  0.00    -0.268 OA
ATOM      3  N   UNL A   1     -36.487  -2.558  32.093  0.00  0.00    -0.175 NA
ENDROOT
BRANCH   1   7
ATOM      4  C   UNL A   1     -31.777  -1.299  31.217  0.00  0.00    +0.074 A 
ATOM      5  C   UNL A   1     -32.742  -1.418  30.727  0.00  0.00    +0.017 A 
ATOM      6  C   UNL A   1     -34.108  -1.780  31.130  0.00  0.00    +0.006 A 
ATOM      7  C   UNL A   1     -34.204  -2.023  32.508  0.00  0.00    +0.056 A 
ATOM      8  C   UNL A   1     -33.125  -1.943  33.317  0.00  0.00    +0.006 A 
ATOM      9  C   UNL A   1     -31.882  -1.594  32.858  0.00  0.00    +0.017 A 
BRANCH   4  12
ATOM     10  C   UNL A   1     -30.074  -0.836  29.861  0.00  0.00    +0.269 C 
ATOM     11  O   UNL A   1     -30.561  -0.442  28.942  0.00  0.00    -0.268 OA
ATOM     12  N   UNL A   1     -30.743  -1.043  31.056  0.00  0.00    -0.175 NA
BRANCH  10  14
ATOM     13  C   UNL A   1     -28.016  -0.814  28.878  0.00  0.00    +0.004 A 
ATOM     14  C   UNL A   1     -28.469  -0.785  29.829  0.00  0.00    +0.055 A 
ATOM     15  C   UNL A   1     -26.504  -0.778  28.877  0.00  0.00    -0.004 A 
ATOM     16  C   UNL A   1     -25.810  -0.853  30.103  0.00  0.00    -0.022 A 
ATOM     17  C   UNL A   1     -27.991  -0.892  31.226  0.00  0.00    +0.004 A 
ATOM     18  C   UNL A   1     -26.604  -0.868  31.265  0.00  0.00    -0.004 A 
ATOM     19  C   UNL A   1     -24.370  -0.800  30.148  0.00  0.00    +0.031 C 
ENDBRANCH  10  14
ENDBRANCH   4  12
ENDBRANCH   1   7
BRANCH   3  20
ATOM     20  C   UNL A   1     -37.829  -2.899  32.453  0.00  0.00    +0.074 A 
ATOM     21  C   UNL A   1     -38.652  -3.070  31.550  0.00  0.00    +0.017 A 
ATOM     22  C   UNL A   1     -40.012  -3.352  31.845  0.00  0.00    +0.006 A 
ATOM     23  C   UNL A   1     -40.408  -3.468  33.225  0.00  0.00    +0.056 A 
ATOM     24  C   UNL A   1     -39.413  -3.265  34.168  0.00  0.00    +0.006 A 
ATOM     25  C   UNL A   1     -38.140  -2.961  33.852  0.00  0.00    +0.017 A 
BRANCH  23  26
ATOM     26  C   UNL A   1     -41.783  -3.786  33.520  0.00  0.00    +0.269 C 
ATOM     27  O   UNL A   1     -42.669  -4.066  32.901  0.00  0.00    -0.268 OA
ATOM     28  N   UNL A   1     -42.012  -3.716  34.966  0.00  0.00    -0.175 NA
BRANCH  28  29
ATOM     29  C   UNL A   1     -43.052  -3.906  35.520  0.00  0.00    +0.074 A 
ATOM     30  C   UNL A   1     -44.130  -3.898  35.423  0.00  0.00    +0.018 A 
ATOM     31  C   UNL A   1     -45.240  -4.155  36.288  0.00  0.00    +0.013 A 
ATOM     32  C   UNL A   1     -44.877  -4.445  37.616  0.00  0.00    +0.058 A 
ATOM     33  C   UNL A   1     -43.569  -4.511  37.961  0.00  0.00    +0.013 A 
ATOM     34  C   UNL A   1     -42.561  -4.212  37.081  0.00  0.00    +0.018 A 
ATOM     35 CL   UNL A   1     -46.135  -4.766  38.727  0.00  0.00    -0.082 Cl
ENDBRANCH  28  29
ENDBRANCH  23  26
ENDBRANCH   3  20
TORSDOF 6
