REMARK  Name = No_3510-gen_results/8p0m/2024-11-26-14-13-15/
REMARK  6 active torsions:
REMARK  status: ('A' for Active; 'I' for Inactive)
REMARK    1  A    between atoms: C_4  and  C_18
REMARK    2  A    between atoms: C_5  and  C_10
REMARK    3  A    between atoms: C_7  and  O_13
REMARK    4  A    between atoms: O_13  and  C_14
REMARK    5  A    between atoms: C_14  and  C_15
REMARK    6  A    between atoms: C_18  and  C_20
REMARK                            x       y       z     vdW  Elec       q    Type
REMARK                         _______ _______ _______ _____ _____    ______ ____
ROOT
ATOM      1  C   UNL A   1     -28.016  -0.814  28.878  0.00  0.00    +0.273 C 
ATOM      2  C   UNL A   1     -27.064  -0.119  28.608  0.00  0.00    +0.038 C 
ATOM      3  C   UNL A   1     -25.765  -0.390  29.036  0.00  0.00    +0.030 C 
ATOM      4  C   UNL A   1     -24.552   0.406  28.765  0.00  0.00    +0.019 C 
ATOM      5  C   UNL A   1     -24.696   1.448  27.799  0.00  0.00    +0.107 C 
ATOM      6  C   UNL A   1     -25.976   1.725  27.308  0.00  0.00    +0.045 C 
ATOM      7  C   UNL A   1     -27.072   1.013  27.654  0.00  0.00    +0.139 C 
ATOM      8  F   UNL A   1     -27.878  -2.016  29.247  0.00  0.00    -0.173 F 
ATOM      9  F   UNL A   1     -28.752  -0.198  29.933  0.00  0.00    -0.173 F 
ENDROOT
BRANCH   5  10
ATOM     10  C   UNL A   1     -23.490   2.224  27.522  0.00  0.00    +0.364 C 
ATOM     11  O   UNL A   1     -23.596   3.171  26.727  0.00  0.00    -0.246 OA
ATOM     12  O   UNL A   1     -22.300   1.860  27.889  0.00  0.00    -0.246 OA
ENDBRANCH   5  10
BRANCH   4  13
ATOM     13  C   UNL A   1     -23.527   0.294  29.677  0.00  0.00    +0.023 C 
ATOM     14  C   UNL A   1     -22.402  -0.565  29.244  0.00  0.00    +0.005 C 
BRANCH  13  15
ATOM     15  C   UNL A   1     -23.958  -0.216  31.084  0.00  0.00    -0.022 A 
ATOM     16  C   UNL A   1     -24.513   0.702  31.955  0.00  0.00    -0.004 A 
ATOM     17  C   UNL A   1     -25.222   0.311  33.105  0.00  0.00    -0.000 A 
ATOM     18  C   UNL A   1     -25.037  -1.055  33.396  0.00  0.00    -0.000 A 
ATOM     19  C   UNL A   1     -23.339  -1.328  31.597  0.00  0.00    -0.004 A 
ATOM     20  C   UNL A   1     -24.040  -1.773  32.819  0.00  0.00    -0.000 A 
ENDBRANCH  13  15
ENDBRANCH   4  13
BRANCH   7  21
ATOM     21  O   UNL A   1     -28.243   1.280  27.097  0.00  0.00    -0.341 OA
BRANCH  21  22
ATOM     22  C   UNL A   1     -28.451   1.260  25.783  0.00  0.00    +0.257 C 
BRANCH  22  23
ATOM     23  C   UNL A   1     -29.375   0.428  25.324  0.00  0.00    +0.395 C 
ATOM     24  O   UNL A   1     -30.362   0.761  25.229  0.00  0.00    -0.243 OA
ATOM     25  O   UNL A   1     -28.818  -0.573  24.548  0.00  0.00    -0.243 OA
ENDBRANCH  22  23
ENDBRANCH  21  22
ENDBRANCH   7  21
TORSDOF 6
