MODEL 3510
MODEL 1
REMARK VINA RESULT:    -6.974      0.000      0.000
REMARK INTER + INTRA:         -10.867
REMARK INTER:                  -9.420
REMARK INTRA:                  -1.447
REMARK UNBOUND:                -1.447
REMARK  Name = No_3510-gen_results/8p0m/2024-11-26-14-13-15/
REMARK  6 active torsions:
REMARK  status: ('A' for Active; 'I' for Inactive)
REMARK    1  A    between atoms: C_4  and  C_18
REMARK    2  A    between atoms: C_5  and  C_10
REMARK    3  A    between atoms: C_7  and  O_13
REMARK    4  A    between atoms: O_13  and  C_14
REMARK    5  A    between atoms: C_14  and  C_15
REMARK    6  A    between atoms: C_18  and  C_20
REMARK                            x       y       z     vdW  Elec       q    Type
REMARK                         _______ _______ _______ _____ _____    ______ ____
ROOT
ATOM      1  C   UNL A   1     -25.456   0.008  25.097  0.00  0.00    +0.273 C 
ATOM      2  C   UNL A   1     -25.785   0.002  26.261  0.00  0.00    +0.038 C 
ATOM      3  C   UNL A   1     -24.923  -0.339  27.303  0.00  0.00    +0.030 C 
ATOM      4  C   UNL A   1     -25.241  -0.384  28.744  0.00  0.00    +0.019 C 
ATOM      5  C   UNL A   1     -26.502   0.171  29.120  0.00  0.00    +0.107 C 
ATOM      6  C   UNL A   1     -27.380   0.568  28.106  0.00  0.00    +0.045 C 
ATOM      7  C   UNL A   1     -27.069   0.512  26.792  0.00  0.00    +0.139 C 
ATOM      8  F   UNL A   1     -24.242   0.068  24.749  0.00  0.00    -0.173 F 
ATOM      9  F   UNL A   1     -25.949  -1.177  24.473  0.00  0.00    -0.173 F 
ENDROOT
BRANCH   5  10
ATOM     10  C   UNL A   1     -26.806   0.138  30.548  0.00  0.00    +0.364 C 
ATOM     11  O   UNL A   1     -27.735  -0.600  30.912  0.00  0.00    -0.246 OA
ATOM     12  O   UNL A   1     -26.311   0.973  31.409  0.00  0.00    -0.246 OA
ENDBRANCH   5  10
BRANCH   4  13
ATOM     13  C   UNL A   1     -24.473  -1.227  29.516  0.00  0.00    +0.023 C 
ATOM     14  C   UNL A   1     -23.012  -1.058  29.355  0.00  0.00    +0.005 C 
BRANCH  13  15
ATOM     15  C   UNL A   1     -24.768  -2.744  29.317  0.00  0.00    -0.022 A 
ATOM     16  C   UNL A   1     -23.985  -3.434  28.411  0.00  0.00    -0.004 A 
ATOM     17  C   UNL A   1     -23.938  -4.840  28.380  0.00  0.00    -0.000 A 
ATOM     18  C   UNL A   1     -24.969  -5.416  29.147  0.00  0.00    -0.000 A 
ATOM     19  C   UNL A   1     -26.028  -3.209  29.596  0.00  0.00    -0.004 A 
ATOM     20  C   UNL A   1     -26.036  -4.686  29.562  0.00  0.00    -0.000 A 
ENDBRANCH  13  15
ENDBRANCH   4  13
BRANCH   7  21
ATOM     21  O   UNL A   1     -27.917   0.972  25.886  0.00  0.00    -0.341 OA
BRANCH  21  22
ATOM     22  C   UNL A   1     -29.173   0.545  25.775  0.00  0.00    +0.257 C 
BRANCH  22  23
ATOM     23  C   UNL A   1     -29.495  -0.125  24.678  0.00  0.00    +0.395 C 
ATOM     24  O   UNL A   1     -28.893  -0.035  23.828  0.00  0.00    -0.243 OA
ATOM     25  O   UNL A   1     -30.260  -1.240  24.970  0.00  0.00    -0.243 OA
ENDBRANCH  22  23
ENDBRANCH  21  22
ENDBRANCH   7  21
TORSDOF 6
ENDMDL
ENDMDL
