REMARK  Name = No_3511-gen_results/8p0m/2024-11-26-14-13-15/
REMARK  1 active torsions:
REMARK  status: ('A' for Active; 'I' for Inactive)
REMARK    1  A    between atoms: C_2  and  C_3
REMARK                            x       y       z     vdW  Elec       q    Type
REMARK                         _______ _______ _______ _____ _____    ______ ____
ROOT
ATOM      1  C   UNL A   1     -28.016  -0.814  28.878  0.00  0.00    +0.000 A 
ATOM      2  C   UNL A   1     -27.064  -0.119  28.608  0.00  0.00    +0.000 A 
ATOM      3  C   UNL A   1     -28.089  -1.596  30.148  0.00  0.00    +0.000 A 
ATOM      4  C   UNL A   1     -26.902  -1.816  30.851  0.00  0.00    +0.000 A 
ATOM      5  C   UNL A   1     -25.701  -1.238  30.468  0.00  0.00    +0.000 A 
ATOM      6  C   UNL A   1     -25.756  -0.369  29.365  0.00  0.00    +0.000 A 
ENDROOT
BRANCH   2   7
ATOM      7  C   UNL A   1     -26.972   0.714  27.506  0.00  0.00    +0.000 A 
ATOM      8  C   UNL A   1     -25.821   1.491  27.116  0.00  0.00    +0.000 A 
ATOM      9  C   UNL A   1     -25.750   2.319  26.023  0.00  0.00    +0.000 A 
ATOM     10  C   UNL A   1     -26.826   2.218  25.137  0.00  0.00    +0.000 A 
ATOM     11  C   UNL A   1     -27.922   1.471  25.369  0.00  0.00    +0.000 A 
ATOM     12  C   UNL A   1     -27.920   0.705  26.540  0.00  0.00    +0.000 A 
ENDBRANCH   2   7
TORSDOF 1
