MODEL 3511
MODEL 1
REMARK VINA RESULT:    -6.510      0.000      0.000
REMARK INTER + INTRA:          -7.229
REMARK INTER:                  -6.890
REMARK INTRA:                  -0.339
REMARK UNBOUND:                -0.339
REMARK  Name = No_3511-gen_results/8p0m/2024-11-26-14-13-15/
REMARK  1 active torsions:
REMARK  status: ('A' for Active; 'I' for Inactive)
REMARK    1  A    between atoms: C_2  and  C_3
REMARK                            x       y       z     vdW  Elec       q    Type
REMARK                         _______ _______ _______ _____ _____    ______ ____
ROOT
ATOM      1  C   UNL A   1     -24.459  -0.472  27.925  0.00  0.00    +0.000 A 
ATOM      2  C   UNL A   1     -23.966  -1.411  28.506  0.00  0.00    +0.000 A 
ATOM      3  C   UNL A   1     -23.657   0.727  27.538  0.00  0.00    +0.000 A 
ATOM      4  C   UNL A   1     -22.427   0.924  28.170  0.00  0.00    +0.000 A 
ATOM      5  C   UNL A   1     -21.890  -0.008  29.044  0.00  0.00    +0.000 A 
ATOM      6  C   UNL A   1     -22.626  -1.193  29.214  0.00  0.00    +0.000 A 
ENDROOT
BRANCH   2   7
ATOM      7  C   UNL A   1     -24.617  -2.597  28.801  0.00  0.00    +0.000 A 
ATOM      8  C   UNL A   1     -24.072  -3.926  28.674  0.00  0.00    +0.000 A 
ATOM      9  C   UNL A   1     -24.736  -5.092  28.965  0.00  0.00    +0.000 A 
ATOM     10  C   UNL A   1     -25.959  -4.926  29.620  0.00  0.00    +0.000 A 
ATOM     11  C   UNL A   1     -26.531  -3.728  29.850  0.00  0.00    +0.000 A 
ATOM     12  C   UNL A   1     -25.797  -2.601  29.466  0.00  0.00    +0.000 A 
ENDBRANCH   2   7
TORSDOF 1
ENDMDL
ENDMDL
