MODEL 3512
MODEL 1
REMARK VINA RESULT:    -6.018      0.000      0.000
REMARK INTER + INTRA:          -8.169
REMARK INTER:                  -7.425
REMARK INTRA:                  -0.743
REMARK UNBOUND:                -0.743
REMARK  Name = No_3512-gen_results/8p0m/2024-11-26-14-13-15/
REMARK  4 active torsions:
REMARK  status: ('A' for Active; 'I' for Inactive)
REMARK    1  A    between atoms: C_3  and  C_7
REMARK    2  A    between atoms: C_7  and  C_9
REMARK    3  A    between atoms: C_9  and  C_10
REMARK    4  A    between atoms: C_11  and  C_12
REMARK                            x       y       z     vdW  Elec       q    Type
REMARK                         _______ _______ _______ _____ _____    ______ ____
ROOT
ATOM      1  C   UNL A   1     -22.918  -0.461  28.914  0.00  0.00    +0.027 C 
ATOM      2  C   UNL A   1     -21.531  -0.581  29.087  0.00  0.00    +0.005 C 
ENDROOT
BRANCH   1   5
ATOM      3  C   UNL A   1     -24.514   0.143  27.002  0.00  0.00    -0.004 A 
ATOM      4  C   UNL A   1     -24.741   0.807  26.216  0.00  0.00    -0.000 A 
ATOM      5  C   UNL A   1     -23.346   0.389  27.756  0.00  0.00    -0.022 A 
ATOM      6  C   UNL A   1     -22.509   1.453  27.481  0.00  0.00    -0.004 A 
ATOM      7  C   UNL A   1     -22.886   2.280  26.435  0.00  0.00    -0.000 A 
ATOM      8  C   UNL A   1     -24.054   2.021  25.750  0.00  0.00    -0.000 A 
ENDBRANCH   1   5
BRANCH   1   9
ATOM      9  C   UNL A   1     -23.804  -1.119  29.740  0.00  0.00    +0.030 C 
BRANCH   9  10
ATOM     10  C   UNL A   1     -23.981  -2.468  29.717  0.00  0.00    -0.026 C 
ATOM     11  C   UNL A   1     -24.381  -3.113  28.578  0.00  0.00    -0.005 C 
BRANCH  11  12
ATOM     12  C   UNL A   1     -24.128  -4.432  28.524  0.00  0.00    -0.000 C 
ATOM     13  C   UNL A   1     -24.935  -5.347  29.170  0.00  0.00    -0.000 C 
ENDBRANCH  11  12
ENDBRANCH   9  10
ENDBRANCH   1   9
TORSDOF 4
ENDMDL
ENDMDL
