MODEL 3513
MODEL 1
REMARK VINA RESULT:    -6.590      0.000      0.000
REMARK INTER + INTRA:          -7.293
REMARK INTER:                  -6.975
REMARK INTRA:                  -0.318
REMARK UNBOUND:                -0.318
REMARK  Name = No_3513-gen_results/8p0m/2024-11-26-14-13-15/
REMARK  1 active torsions:
REMARK  status: ('A' for Active; 'I' for Inactive)
REMARK    1  A    between atoms: C_3  and  C_4
REMARK                            x       y       z     vdW  Elec       q    Type
REMARK                         _______ _______ _______ _____ _____    ______ ____
ROOT
ATOM      1  C   UNL A   1     -24.466  -4.946  28.818  0.00  0.00    +0.000 A 
ATOM      2  C   UNL A   1     -23.982  -3.852  28.641  0.00  0.00    +0.000 A 
ATOM      3  C   UNL A   1     -24.496  -2.693  28.936  0.00  0.00    +0.000 A 
ATOM      4  C   UNL A   1     -25.773  -5.033  29.498  0.00  0.00    +0.000 A 
ATOM      5  C   UNL A   1     -26.422  -3.888  29.807  0.00  0.00    +0.000 A 
ATOM      6  C   UNL A   1     -25.786  -2.599  29.571  0.00  0.00    +0.000 A 
ENDROOT
BRANCH   3   7
ATOM      7  C   UNL A   1     -23.866  -1.369  28.708  0.00  0.00    +0.000 A 
ATOM      8  C   UNL A   1     -24.402  -0.335  27.930  0.00  0.00    +0.000 A 
ATOM      9  C   UNL A   1     -22.536  -1.155  29.248  0.00  0.00    +0.000 A 
ATOM     10  C   UNL A   1     -21.827   0.017  29.015  0.00  0.00    +0.000 A 
ATOM     11  C   UNL A   1     -23.592   0.813  27.546  0.00  0.00    +0.000 A 
ATOM     12  C   UNL A   1     -22.347   1.001  28.179  0.00  0.00    +0.000 A 
ENDBRANCH   3   7
TORSDOF 1
ENDMDL
ENDMDL
