MODEL 3514
MODEL 1
REMARK VINA RESULT:    -7.300      0.000      0.000
REMARK INTER + INTRA:          -8.037
REMARK INTER:                  -7.727
REMARK INTRA:                  -0.310
REMARK UNBOUND:                -0.310
REMARK  Name = No_3514-gen_results/8p0m/2024-11-26-14-13-15/
REMARK  1 active torsions:
REMARK  status: ('A' for Active; 'I' for Inactive)
REMARK    1  A    between atoms: C_3  and  C_15
REMARK                            x       y       z     vdW  Elec       q    Type
REMARK                         _______ _______ _______ _____ _____    ______ ____
ROOT
ATOM      1  C   UNL A   1     -23.770  -3.043  28.874  0.00  0.00    -0.000 A 
ATOM      2  C   UNL A   1     -24.643  -2.218  29.016  0.00  0.00    -0.000 A 
ATOM      3  C   UNL A   1     -24.411  -0.857  29.050  0.00  0.00    -0.000 A 
ATOM      4  C   UNL A   1     -25.266  -0.002  29.742  0.00  0.00    -0.000 A 
ATOM      5  C   UNL A   1     -26.553  -0.445  30.259  0.00  0.00    -0.000 A 
ATOM      6  C   UNL A   1     -26.803  -1.823  30.161  0.00  0.00    -0.000 A 
ATOM      7  C   UNL A   1     -25.847  -2.635  29.630  0.00  0.00    -0.000 A 
ATOM      8  C   UNL A   1     -24.116  -4.469  28.621  0.00  0.00    -0.000 A 
ATOM      9  C   UNL A   1     -25.314  -4.975  29.170  0.00  0.00    +0.000 A 
ATOM     10  C   UNL A   1     -26.220  -4.064  29.685  0.00  0.00    -0.000 A 
ATOM     11  C   UNL A   1     -28.147  -2.218  30.726  0.00  0.00    +0.000 C 
ATOM     12  C   UNL A   1     -28.554  -3.153  30.870  0.00  0.00    +0.000 C 
ATOM     13  C   UNL A   1     -28.211  -4.548  30.509  0.00  0.00    +0.000 C 
ATOM     14  C   UNL A   1     -27.436  -4.730  30.071  0.00  0.00    +0.000 C 
ENDROOT
BRANCH   3  15
ATOM     15  C   UNL A   1     -23.138  -0.277  28.579  0.00  0.00    -0.005 C 
ATOM     16  C   UNL A   1     -23.214   0.846  28.057  0.00  0.00    -0.026 C 
ATOM     17  C   UNL A   1     -21.993   1.504  27.553  0.00  0.00    +0.031 C 
ENDBRANCH   3  15
TORSDOF 1
ENDMDL
ENDMDL
