REMARK  Name = No_3515-gen_results/8p0m/2024-11-26-14-13-15/
REMARK  1 active torsions:
REMARK  status: ('A' for Active; 'I' for Inactive)
REMARK    1  A    between atoms: C_3  and  C_7
REMARK                            x       y       z     vdW  Elec       q    Type
REMARK                         _______ _______ _______ _____ _____    ______ ____
ROOT
ATOM      1  C   UNL A   1     -24.549   0.410  28.734  0.00  0.00    +0.118 C 
ATOM      2  C   UNL A   1     -24.093   1.378  29.576  0.00  0.00    +0.248 C 
ATOM      3  N   UNL A   1     -23.009   2.059  29.185  0.00  0.00    -0.185 NA
ATOM      4  O   UNL A   1     -24.853   1.970  30.450  0.00  0.00    -0.273 OA
ATOM      5  C   UNL A   1     -22.098   1.660  28.167  0.00  0.00    +0.204 C 
ATOM      6  C   UNL A   1     -23.625   0.047  27.674  0.00  0.00    +0.104 C 
ATOM      7  N   UNL A   1     -22.512   0.683  27.444  0.00  0.00    -0.195 NA
ENDROOT
BRANCH   1  10
ATOM      8  C   UNL A   1     -28.016  -0.814  28.878  0.00  0.00    -0.000 A 
ATOM      9  C   UNL A   1     -27.064  -0.119  28.608  0.00  0.00    -0.004 A 
ATOM     10  C   UNL A   1     -25.765  -0.390  29.036  0.00  0.00    -0.012 A 
ATOM     11  C   UNL A   1     -25.530  -1.530  29.901  0.00  0.00    -0.004 A 
ATOM     12  C   UNL A   1     -26.689  -2.289  30.181  0.00  0.00    -0.000 A 
ATOM     13  C   UNL A   1     -27.873  -1.951  29.737  0.00  0.00    -0.000 A 
ENDBRANCH   1  10
TORSDOF 1
