MODEL 3515
MODEL 1
REMARK VINA RESULT:    -6.166      0.000      0.000
REMARK INTER + INTRA:          -6.647
REMARK INTER:                  -6.526
REMARK INTRA:                  -0.121
REMARK UNBOUND:                -0.121
REMARK  Name = No_3515-gen_results/8p0m/2024-11-26-14-13-15/
REMARK  1 active torsions:
REMARK  status: ('A' for Active; 'I' for Inactive)
REMARK    1  A    between atoms: C_3  and  C_7
REMARK                            x       y       z     vdW  Elec       q    Type
REMARK                         _______ _______ _______ _____ _____    ______ ____
ROOT
ATOM      1  C   UNL A   1     -23.871  -1.439  28.679  0.00  0.00    +0.118 C 
ATOM      2  C   UNL A   1     -24.321  -0.456  27.850  0.00  0.00    +0.248 C 
ATOM      3  N   UNL A   1     -23.475   0.547  27.586  0.00  0.00    -0.185 NA
ATOM      4  O   UNL A   1     -25.271  -0.644  26.982  0.00  0.00    -0.273 OA
ATOM      5  C   UNL A   1     -22.305   0.867  28.331  0.00  0.00    +0.204 C 
ATOM      6  C   UNL A   1     -22.652  -1.112  29.397  0.00  0.00    +0.104 C 
ATOM      7  N   UNL A   1     -21.953  -0.036  29.172  0.00  0.00    -0.195 NA
ENDROOT
BRANCH   1  10
ATOM      8  C   UNL A   1     -26.575  -3.614  29.901  0.00  0.00    -0.000 A 
ATOM      9  C   UNL A   1     -25.940  -2.615  29.658  0.00  0.00    -0.004 A 
ATOM     10  C   UNL A   1     -24.700  -2.625  29.020  0.00  0.00    -0.012 A 
ATOM     11  C   UNL A   1     -24.095  -3.896  28.672  0.00  0.00    -0.004 A 
ATOM     12  C   UNL A   1     -24.890  -5.019  28.995  0.00  0.00    -0.000 A 
ATOM     13  C   UNL A   1     -26.044  -4.911  29.602  0.00  0.00    -0.000 A 
ENDBRANCH   1  10
TORSDOF 1
ENDMDL
ENDMDL
