MODEL 3516
MODEL 1
REMARK VINA RESULT:    -7.803      0.000      0.000
REMARK INTER + INTRA:         -11.817
REMARK INTER:                 -10.084
REMARK INTRA:                  -1.733
REMARK UNBOUND:                -1.733
REMARK  Name = No_3516-gen_results/8p0m/2024-11-26-14-13-15/
REMARK  5 active torsions:
REMARK  status: ('A' for Active; 'I' for Inactive)
REMARK    1  A    between atoms: C_3  and  C_4
REMARK    2  A    between atoms: C_4  and  N_8
REMARK    3  A    between atoms: C_4  and  C_9
REMARK    4  A    between atoms: N_8  and  C_10
REMARK    5  A    between atoms: C_9  and  C_17
REMARK                            x       y       z     vdW  Elec       q    Type
REMARK                         _______ _______ _______ _____ _____    ______ ____
ROOT
ATOM      1  C   UNL A   1     -23.094  -0.406  29.098  0.00  0.00    +0.119 C 
ENDROOT
BRANCH   1   4
ATOM      2  C   UNL A   1     -24.701   0.153  27.139  0.00  0.00    -0.003 A 
ATOM      3  C   UNL A   1     -24.834   0.834  26.346  0.00  0.00    -0.000 A 
ATOM      4  C   UNL A   1     -23.457   0.355  27.882  0.00  0.00    -0.002 A 
ATOM      5  C   UNL A   1     -24.065   1.946  25.804  0.00  0.00    -0.000 A 
ATOM      6  C   UNL A   1     -22.877   2.160  26.471  0.00  0.00    -0.000 A 
ATOM      7  C   UNL A   1     -22.572   1.412  27.547  0.00  0.00    -0.003 A 
ENDBRANCH   1   4
BRANCH   1   8
ATOM      8  N   UNL A   1     -22.825  -0.021  30.055  0.00  0.00    -0.235 NA
BRANCH   8   9
ATOM      9  C   UNL A   1     -23.673   0.434  31.113  0.00  0.00    +0.065 A 
ATOM     10  C   UNL A   1     -23.868  -0.328  32.321  0.00  0.00    +0.012 A 
ATOM     11  C   UNL A   1     -24.486   1.586  31.012  0.00  0.00    +0.036 A 
ATOM     12  C   UNL A   1     -23.124  -1.508  32.676  0.00  0.00    +0.034 C 
ATOM     13  C   UNL A   1     -24.972   0.053  33.178  0.00  0.00    +0.096 A 
ATOM     14  N   UNL A   1     -25.682   1.179  32.982  0.00  0.00    -0.243 NA
ATOM     15  C   UNL A   1     -25.437   1.931  31.921  0.00  0.00    +0.100 A 
ENDBRANCH   8   9
ENDBRANCH   1   8
BRANCH   1  16
ATOM     16  C   UNL A   1     -23.086  -1.895  28.918  0.00  0.00    +0.052 C 
BRANCH  16  17
ATOM     17  C   UNL A   1     -24.128  -2.720  29.124  0.00  0.00    -0.020 A 
ATOM     18  C   UNL A   1     -23.981  -4.052  28.767  0.00  0.00    -0.004 A 
ATOM     19  C   UNL A   1     -25.024  -4.958  29.084  0.00  0.00    -0.000 A 
ATOM     20  C   UNL A   1     -26.234  -4.502  29.639  0.00  0.00    -0.000 A 
ATOM     21  C   UNL A   1     -26.404  -3.156  29.939  0.00  0.00    -0.000 A 
ATOM     22  C   UNL A   1     -25.429  -2.281  29.748  0.00  0.00    -0.004 A 
ENDBRANCH  16  17
ENDBRANCH   1  16
TORSDOF 5
ENDMDL
ENDMDL
