REMARK  Name = No_3516-gen_results/8p0m/2024-11-26-14-13-15/
REMARK  5 active torsions:
REMARK  status: ('A' for Active; 'I' for Inactive)
REMARK    1  A    between atoms: C_3  and  C_4
REMARK    2  A    between atoms: C_4  and  N_8
REMARK    3  A    between atoms: C_4  and  C_9
REMARK    4  A    between atoms: N_8  and  C_10
REMARK    5  A    between atoms: C_9  and  C_17
REMARK                            x       y       z     vdW  Elec       q    Type
REMARK                         _______ _______ _______ _____ _____    ______ ____
ROOT
ATOM      1  C   UNL A   1     -26.252   0.411  27.422  0.00  0.00    +0.119 C 
ENDROOT
BRANCH   1   4
ATOM      2  C   UNL A   1     -28.016  -0.814  28.878  0.00  0.00    -0.003 A 
ATOM      3  C   UNL A   1     -28.469  -0.785  29.829  0.00  0.00    -0.000 A 
ATOM      4  C   UNL A   1     -27.087   0.290  28.638  0.00  0.00    -0.002 A 
ATOM      5  C   UNL A   1     -28.391   0.104  30.980  0.00  0.00    -0.000 A 
ATOM      6  C   UNL A   1     -27.533   1.167  30.787  0.00  0.00    -0.000 A 
ATOM      7  C   UNL A   1     -26.828   1.256  29.645  0.00  0.00    -0.003 A 
ENDBRANCH   1   4
BRANCH   1   8
ATOM      8  N   UNL A   1     -25.189   0.469  27.361  0.00  0.00    -0.235 NA
BRANCH   8   9
ATOM      9  C   UNL A   1     -24.214   0.185  28.367  0.00  0.00    +0.065 A 
ATOM     10  C   UNL A   1     -22.959   0.891  28.440  0.00  0.00    +0.012 A 
ATOM     11  C   UNL A   1     -24.334  -0.887  29.281  0.00  0.00    +0.036 A 
ATOM     12  C   UNL A   1     -22.620   2.046  27.650  0.00  0.00    +0.034 C 
ATOM     13  C   UNL A   1     -21.923   0.324  29.280  0.00  0.00    +0.096 A 
ATOM     14  N   UNL A   1     -22.155  -0.705  30.115  0.00  0.00    -0.243 NA
ATOM     15  C   UNL A   1     -23.340  -1.293  30.116  0.00  0.00    +0.100 A 
ENDBRANCH   8   9
ENDBRANCH   1   8
BRANCH   1  16
ATOM     16  C   UNL A   1     -27.030   0.490  26.142  0.00  0.00    +0.052 C 
BRANCH  16  17
ATOM     17  C   UNL A   1     -28.261   1.014  25.999  0.00  0.00    -0.020 A 
ATOM     18  C   UNL A   1     -28.833   0.989  24.736  0.00  0.00    -0.004 A 
ATOM     19  C   UNL A   1     -30.172   1.429  24.590  0.00  0.00    -0.000 A 
ATOM     20  C   UNL A   1     -30.871   1.992  25.674  0.00  0.00    -0.000 A 
ATOM     21  C   UNL A   1     -30.274   2.073  26.926  0.00  0.00    -0.000 A 
ATOM     22  C   UNL A   1     -29.058   1.594  27.140  0.00  0.00    -0.004 A 
ENDBRANCH  16  17
ENDBRANCH   1  16
TORSDOF 5
