REMARK  Name = No_3517-gen_results/8p0m/2024-11-26-14-13-15/
REMARK  9 active torsions:
REMARK  status: ('A' for Active; 'I' for Inactive)
REMARK    1  A    between atoms: C_2  and  C_8
REMARK    2  A    between atoms: C_4  and  C_17
REMARK    3  A    between atoms: C_17  and  C_18
REMARK    4  A    between atoms: C_17  and  C_20
REMARK    5  A    between atoms: C_20  and  C_22
REMARK    6  A    between atoms: C_23  and  C_24
REMARK    7  A    between atoms: C_25  and  C_26
REMARK    8  A    between atoms: C_27  and  C_28
REMARK    9  A    between atoms: C_29  and  C_30
REMARK                            x       y       z     vdW  Elec       q    Type
REMARK                         _______ _______ _______ _____ _____    ______ ____
ROOT
ATOM      1  C   UNL A   1     -28.016  -0.814  28.878  0.00  0.00    +0.005 A 
ATOM      2  C   UNL A   1     -27.064  -0.119  28.608  0.00  0.00    +0.053 A 
ATOM      3  C   UNL A   1     -26.972   0.714  27.506  0.00  0.00    +0.001 A 
ATOM      4  C   UNL A   1     -28.105   0.774  26.642  0.00  0.00    -0.010 A 
ATOM      5  C   UNL A   1     -29.201   0.104  27.053  0.00  0.00    +0.054 A 
ATOM      6  C   UNL A   1     -29.210  -0.603  28.185  0.00  0.00    +0.011 A 
ATOM      7 CL   UNL A   1     -30.565   0.243  26.049  0.00  0.00    -0.083 Cl
ENDROOT
BRANCH   2   8
ATOM      8  C   UNL A   1     -25.703  -0.234  29.413  0.00  0.00    +0.249 C 
ATOM      9  O   UNL A   1     -25.609  -0.984  30.224  0.00  0.00    -0.270 OA
ATOM     10  N   UNL A   1     -24.656   0.645  29.073  0.00  0.00    -0.276 N 
ATOM     11  C   UNL A   1     -23.394   0.487  29.765  0.00  0.00    +0.094 C 
ATOM     12  C   UNL A   1     -22.271   0.737  28.875  0.00  0.00    +0.022 C 
ATOM     13  C   UNL A   1     -22.409   1.690  27.860  0.00  0.00    +0.003 C 
ATOM     14  C   UNL A   1     -23.710   1.988  27.338  0.00  0.00    +0.018 C 
ATOM     15  C   UNL A   1     -24.695   1.731  28.225  0.00  0.00    +0.094 C 
ATOM     16  C   UNL A   1     -23.751   3.338  26.702  0.00  0.00    +0.002 C 
ATOM     17  C   UNL A   1     -23.865   0.965  26.168  0.00  0.00    +0.002 C 
ENDBRANCH   2   8
BRANCH   4  18
ATOM     18  C   UNL A   1     -28.073   1.664  25.459  0.00  0.00    +0.046 C 
BRANCH  18  19
ATOM     19  C   UNL A   1     -27.937   1.012  24.252  0.00  0.00    +0.114 C 
ATOM     20  N   UNL A   1     -27.936  -0.290  24.244  0.00  0.00    -0.131 NA
ENDBRANCH  18  19
BRANCH  18  21
ATOM     21  C   UNL A   1     -27.981   3.044  25.587  0.00  0.00    +0.032 C 
BRANCH  21  22
ATOM     22  C   UNL A   1     -27.314   3.707  26.572  0.00  0.00    -0.026 C 
ATOM     23  C   UNL A   1     -27.446   5.080  26.811  0.00  0.00    -0.005 C 
BRANCH  23  24
ATOM     24  C   UNL A   1     -26.600   5.782  27.639  0.00  0.00    -0.000 C 
ATOM     25  C   UNL A   1     -26.838   6.245  28.722  0.00  0.00    -0.000 C 
BRANCH  25  26
ATOM     26  C   UNL A   1     -25.820   6.881  29.633  0.00  0.00    -0.000 C 
ATOM     27  C   UNL A   1     -25.861   6.761  30.984  0.00  0.00    -0.000 C 
BRANCH  27  28
ATOM     28  C   UNL A   1     -24.765   7.149  31.801  0.00  0.00    +0.000 C 
ATOM     29  C   UNL A   1     -24.475   6.502  32.996  0.00  0.00    +0.000 C 
BRANCH  29  30
ATOM     30  C   UNL A   1     -25.382   5.492  33.454  0.00  0.00    +0.000 C 
ATOM     31  C   UNL A   1     -26.404   5.101  32.650  0.00  0.00    +0.000 C 
ENDBRANCH  29  30
ENDBRANCH  27  28
ENDBRANCH  25  26
ENDBRANCH  23  24
ENDBRANCH  21  22
ENDBRANCH  18  21
ENDBRANCH   4  18
TORSDOF 9
