MODEL 3517
MODEL 1
REMARK VINA RESULT:    -6.292      0.000      0.000
REMARK INTER + INTRA:         -12.031
REMARK INTER:                  -9.602
REMARK INTRA:                  -2.429
REMARK UNBOUND:                -2.429
REMARK  Name = No_3517-gen_results/8p0m/2024-11-26-14-13-15/
REMARK  9 active torsions:
REMARK  status: ('A' for Active; 'I' for Inactive)
REMARK    1  A    between atoms: C_2  and  C_8
REMARK    2  A    between atoms: C_4  and  C_17
REMARK    3  A    between atoms: C_17  and  C_18
REMARK    4  A    between atoms: C_17  and  C_20
REMARK    5  A    between atoms: C_20  and  C_22
REMARK    6  A    between atoms: C_23  and  C_24
REMARK    7  A    between atoms: C_25  and  C_26
REMARK    8  A    between atoms: C_27  and  C_28
REMARK    9  A    between atoms: C_29  and  C_30
REMARK                            x       y       z     vdW  Elec       q    Type
REMARK                         _______ _______ _______ _____ _____    ______ ____
ROOT
ATOM      1  C   UNL A   1     -30.571 -14.114   7.409  0.00  0.00    +0.005 A 
ATOM      2  C   UNL A   1     -29.465 -14.064   7.896  0.00  0.00    +0.053 A 
ATOM      3  C   UNL A   1     -29.189 -14.083   9.252  0.00  0.00    +0.001 A 
ATOM      4  C   UNL A   1     -30.300 -14.201  10.139  0.00  0.00    -0.010 A 
ATOM      5  C   UNL A   1     -31.501 -14.405   9.561  0.00  0.00    +0.054 A 
ATOM      6  C   UNL A   1     -31.644 -14.456   8.235  0.00  0.00    +0.011 A 
ATOM      7 CL   UNL A   1     -32.804 -14.614  10.631  0.00  0.00    -0.083 Cl
ENDROOT
BRANCH   2   8
ATOM      8  C   UNL A   1     -28.185 -13.773   7.007  0.00  0.00    +0.249 C 
ATOM      9  O   UNL A   1     -27.898 -14.489   6.210  0.00  0.00    -0.270 OA
ATOM     10  N   UNL A   1     -27.440 -12.609   7.278  0.00  0.00    -0.276 N 
ATOM     11  C   UNL A   1     -26.313 -12.315   6.418  0.00  0.00    +0.094 C 
ATOM     12  C   UNL A   1     -26.186 -10.885   6.187  0.00  0.00    +0.022 C 
ATOM     13  C   UNL A   1     -26.550  -9.998   7.207  0.00  0.00    +0.003 C 
ATOM     14  C   UNL A   1     -27.519 -10.399   8.184  0.00  0.00    +0.018 C 
ATOM     15  C   UNL A   1     -27.573 -11.739   8.340  0.00  0.00    +0.094 C 
ATOM     16  C   UNL A   1     -27.389  -9.608   9.443  0.00  0.00    +0.002 C 
ATOM     17  C   UNL A   1     -28.872  -9.954   7.544  0.00  0.00    +0.002 C 
ENDBRANCH   2   8
BRANCH   4  18
ATOM     18  C   UNL A   1     -30.064 -14.248  11.600  0.00  0.00    +0.046 C 
BRANCH  18  19
ATOM     19  C   UNL A   1     -29.789 -15.504  12.098  0.00  0.00    +0.114 C 
ATOM     20  N   UNL A   1     -29.010 -15.605  13.136  0.00  0.00    -0.131 NA
ENDBRANCH  18  19
BRANCH  18  21
ATOM     21  C   UNL A   1     -30.307 -13.149  12.413  0.00  0.00    +0.032 C 
BRANCH  21  22
ATOM     22  C   UNL A   1     -30.214 -11.844  12.034  0.00  0.00    -0.026 C 
ATOM     23  C   UNL A   1     -31.222 -11.163  11.341  0.00  0.00    -0.005 C 
BRANCH  23  24
ATOM     24  C   UNL A   1     -31.029  -9.933  10.755  0.00  0.00    -0.000 C 
ATOM     25  C   UNL A   1     -31.739  -8.965  10.812  0.00  0.00    -0.000 C 
BRANCH  25  26
ATOM     26  C   UNL A   1     -31.394  -7.606  10.259  0.00  0.00    -0.000 C 
ATOM     27  C   UNL A   1     -30.453  -7.416   9.300  0.00  0.00    -0.000 C 
BRANCH  27  28
ATOM     28  C   UNL A   1     -30.322  -6.176   8.618  0.00  0.00    +0.000 C 
ATOM     29  C   UNL A   1     -29.098  -5.729   8.137  0.00  0.00    +0.000 C 
BRANCH  29  30
ATOM     30  C   UNL A   1     -27.930  -6.500   8.442  0.00  0.00    +0.000 C 
ATOM     31  C   UNL A   1     -26.777  -6.259   7.766  0.00  0.00    +0.000 C 
ENDBRANCH  29  30
ENDBRANCH  27  28
ENDBRANCH  25  26
ENDBRANCH  23  24
ENDBRANCH  21  22
ENDBRANCH  18  21
ENDBRANCH   4  18
TORSDOF 9
ENDMDL
ENDMDL
