MODEL 3518
MODEL 1
REMARK VINA RESULT:    -4.888      0.000      0.000
REMARK INTER + INTRA:          -5.225
REMARK INTER:                  -5.174
REMARK INTRA:                  -0.051
REMARK UNBOUND:                -0.051
REMARK  Name = No_3518-gen_results/8p0m/2024-11-26-14-13-15/
REMARK  1 active torsions:
REMARK  status: ('A' for Active; 'I' for Inactive)
REMARK    1  A    between atoms: C_1  and  C_8
REMARK                            x       y       z     vdW  Elec       q    Type
REMARK                         _______ _______ _______ _____ _____    ______ ____
ROOT
ATOM      1  C   UNL A   1     -23.325  -2.000  28.945  0.00  0.00    -0.014 C 
ATOM      2  C   UNL A   1     -24.195  -2.798  29.203  0.00  0.00    -0.047 C 
ATOM      3  C   UNL A   1     -25.455  -2.438  29.682  0.00  0.00    +0.022 C 
ATOM      4  C   UNL A   1     -26.568  -3.342  30.032  0.00  0.00    +0.004 C 
ATOM      5  C   UNL A   1     -26.402  -4.708  29.651  0.00  0.00    +0.001 C 
ATOM      6  C   UNL A   1     -25.168  -5.105  29.124  0.00  0.00    +0.004 C 
ATOM      7  C   UNL A   1     -24.149  -4.246  28.898  0.00  0.00    +0.022 C 
ENDROOT
BRANCH   1   8
ATOM      8  C   UNL A   1     -23.303  -0.706  29.695  0.00  0.00    +0.135 C 
ATOM      9  N   UNL A   1     -22.496  -0.515  30.722  0.00  0.00    -0.126 NA
ENDBRANCH   1   8
TORSDOF 1
ENDMDL
ENDMDL
