MODEL 3519
MODEL 1
REMARK VINA RESULT:    -4.350      0.000      0.000
REMARK INTER + INTRA:          -4.350
REMARK INTER:                  -4.350
REMARK INTRA:                   0.000
REMARK UNBOUND:                 0.000
REMARK  Name = No_3519-gen_results/8p0m/2024-11-26-14-13-15/
REMARK  0 active torsions:
REMARK  status: ('A' for Active; 'I' for Inactive)
REMARK                            x       y       z     vdW  Elec       q    Type
REMARK                         _______ _______ _______ _____ _____    ______ ____
ROOT
ATOM      1  C   UNL A   1     -24.959  -5.433  29.071  0.00  0.00    +0.000 A 
ATOM      2  C   UNL A   1     -24.199  -4.814  28.685  0.00  0.00    +0.000 A 
ATOM      3  C   UNL A   1     -26.112  -4.688  29.593  0.00  0.00    +0.000 A 
ATOM      4  C   UNL A   1     -26.104  -3.362  29.730  0.00  0.00    +0.000 A 
ATOM      5  C   UNL A   1     -23.963  -3.392  28.736  0.00  0.00    +0.000 A 
ATOM      6  C   UNL A   1     -25.034  -2.720  29.247  0.00  0.00    +0.000 A 
ENDROOT
TORSDOF 0
ENDMDL
ENDMDL
