MODEL 351
MODEL 1
REMARK VINA RESULT:    -4.432      0.000      0.000
REMARK INTER + INTRA:          -4.432
REMARK INTER:                  -4.432
REMARK INTRA:                   0.000
REMARK UNBOUND:                 0.000
REMARK  Name = No_351-gen_results/8p0m/2024-11-26-14-13-15/
REMARK  0 active torsions:
REMARK  status: ('A' for Active; 'I' for Inactive)
REMARK                            x       y       z     vdW  Elec       q    Type
REMARK                         _______ _______ _______ _____ _____    ______ ____
ROOT
ATOM      1  C   UNL A   1     -24.056  -4.151  28.794  0.00  0.00    +0.011 A 
ATOM      2  C   UNL A   1     -24.274  -3.008  29.124  0.00  0.00    +0.058 A 
ATOM      3  C   UNL A   1     -25.433  -2.592  29.695  0.00  0.00    +0.011 A 
ATOM      4  C   UNL A   1     -26.447  -3.543  29.918  0.00  0.00    +0.001 A 
ATOM      5  C   UNL A   1     -25.010  -5.192  29.080  0.00  0.00    +0.001 A 
ATOM      6  C   UNL A   1     -26.202  -4.822  29.626  0.00  0.00    +0.000 A 
ATOM      7 CL   UNL A   1     -23.083  -1.758  28.902  0.00  0.00    -0.082 Cl
ENDROOT
TORSDOF 0
ENDMDL
ENDMDL
