REMARK  Name = No_352-gen_results/8p0m/2024-11-26-14-13-15/
REMARK  4 active torsions:
REMARK  status: ('A' for Active; 'I' for Inactive)
REMARK    1  A    between atoms: C_2  and  C_7
REMARK    2  A    between atoms: C_6  and  O_10
REMARK    3  A    between atoms: O_10  and  C_11
REMARK    4  A    between atoms: C_11  and  C_12
REMARK                            x       y       z     vdW  Elec       q    Type
REMARK                         _______ _______ _______ _____ _____    ______ ____
ROOT
ATOM      1  C   UNL A   1     -28.016  -0.814  28.878  0.00  0.00    +0.037 A 
ATOM      2  C   UNL A   1     -27.064  -0.119  28.608  0.00  0.00    +0.029 A 
ATOM      3  C   UNL A   1     -25.792  -0.430  29.076  0.00  0.00    -0.000 A 
ATOM      4  C   UNL A   1     -25.576  -1.565  29.936  0.00  0.00    +0.003 A 
ATOM      5  C   UNL A   1     -26.735  -2.300  30.217  0.00  0.00    +0.038 A 
ATOM      6  C   UNL A   1     -27.918  -1.954  29.763  0.00  0.00    +0.149 A 
ENDROOT
BRANCH   2   7
ATOM      7  C   UNL A   1     -27.106   1.102  27.759  0.00  0.00    +0.262 C 
ATOM      8 CL   UNL A   1     -26.660   2.231  27.924  0.00  0.00    -0.072 Cl
ATOM      9  F   UNL A   1     -27.788   0.718  26.568  0.00  0.00    -0.214 F 
ENDBRANCH   2   7
BRANCH   6  10
ATOM     10  O   UNL A   1     -28.968  -2.723  30.140  0.00  0.00    -0.416 OA
BRANCH  10  11
ATOM     11  C   UNL A   1     -30.138  -2.200  30.504  0.00  0.00    +0.427 C 
ATOM     12  O   UNL A   1     -30.205  -1.112  31.078  0.00  0.00    -0.237 OA
BRANCH  11  13
ATOM     13  C   UNL A   1     -31.207  -2.873  30.014  0.00  0.00    +0.463 C 
ATOM     14  O   UNL A   1     -32.161  -2.860  30.477  0.00  0.00    -0.233 OA
ATOM     15  O   UNL A   1     -30.979  -3.874  29.195  0.00  0.00    -0.233 OA
ENDBRANCH  11  13
ENDBRANCH  10  11
ENDBRANCH   6  10
TORSDOF 4
