MODEL 3520
MODEL 1
REMARK VINA RESULT:    -6.621      0.000      0.000
REMARK INTER + INTRA:          -9.313
REMARK INTER:                  -8.170
REMARK INTRA:                  -1.144
REMARK UNBOUND:                -1.144
REMARK  Name = No_3520-gen_results/8p0m/2024-11-26-14-13-15/
REMARK  4 active torsions:
REMARK  status: ('A' for Active; 'I' for Inactive)
REMARK    1  A    between atoms: C_3  and  C_13
REMARK    2  A    between atoms: C_6  and  C_7
REMARK    3  A    between atoms: C_13  and  C_14
REMARK    4  A    between atoms: C_13  and  C_19
REMARK                            x       y       z     vdW  Elec       q    Type
REMARK                         _______ _______ _______ _____ _____    ______ ____
ROOT
ATOM      1  C   UNL A   1     -26.407  -0.493  24.399  0.00  0.00    +0.001 A 
ATOM      2  C   UNL A   1     -25.365  -0.227  24.953  0.00  0.00    -0.004 A 
ATOM      3  C   UNL A   1     -25.283   0.823  25.862  0.00  0.00    -0.019 A 
ATOM      4  C   UNL A   1     -26.088   1.511  26.082  0.00  0.00    -0.004 A 
ATOM      5  C   UNL A   1     -27.437   1.382  25.467  0.00  0.00    +0.001 A 
ATOM      6  C   UNL A   1     -27.544   0.387  24.617  0.00  0.00    +0.018 A 
ENDROOT
BRANCH   6   7
ATOM      7  C   UNL A   1     -28.862   0.214  23.961  0.00  0.00    +0.081 A 
ATOM      8  N   UNL A   1     -29.669   1.243  23.835  0.00  0.00    -0.244 NA
ATOM      9  C   UNL A   1     -30.916   1.037  23.280  0.00  0.00    +0.099 A 
ATOM     10  C   UNL A   1     -31.358  -0.215  23.176  0.00  0.00    +0.021 A 
ATOM     11  C   UNL A   1     -29.468  -0.948  23.887  0.00  0.00    +0.019 A 
ATOM     12  C   UNL A   1     -30.614  -1.260  23.406  0.00  0.00    +0.003 A 
ENDBRANCH   6   7
BRANCH   3  13
ATOM     13  C   UNL A   1     -23.853   1.000  26.591  0.00  0.00    +0.041 C 
BRANCH  13  14
ATOM     14  C   UNL A   1     -23.448   0.401  27.683  0.00  0.00    -0.036 C 
ATOM     15  C   UNL A   1     -23.833  -0.392  28.389  0.00  0.00    -0.008 C 
ATOM     16  C   UNL A   1     -23.162  -0.766  29.618  0.00  0.00    -0.005 C 
ATOM     17  C   UNL A   1     -21.862  -0.326  29.625  0.00  0.00    -0.022 C 
ATOM     18  C   UNL A   1     -21.983   0.742  28.166  0.00  0.00    +0.048 C 
ENDBRANCH  13  14
BRANCH  13  19
ATOM     19  C   UNL A   1     -23.374   2.456  26.310  0.00  0.00    +0.008 C 
ATOM     20  C   UNL A   1     -22.677   2.514  25.060  0.00  0.00    +0.001 C 
ENDBRANCH  13  19
ENDBRANCH   3  13
TORSDOF 4
ENDMDL
ENDMDL
