REMARK  Name = No_3520-gen_results/8p0m/2024-11-26-14-13-15/
REMARK  4 active torsions:
REMARK  status: ('A' for Active; 'I' for Inactive)
REMARK    1  A    between atoms: C_3  and  C_13
REMARK    2  A    between atoms: C_6  and  C_7
REMARK    3  A    between atoms: C_13  and  C_14
REMARK    4  A    between atoms: C_13  and  C_19
REMARK                            x       y       z     vdW  Elec       q    Type
REMARK                         _______ _______ _______ _____ _____    ______ ____
ROOT
ATOM      1  C   UNL A   1     -28.016  -0.814  28.878  0.00  0.00    +0.001 A 
ATOM      2  C   UNL A   1     -27.064  -0.119  28.608  0.00  0.00    -0.004 A 
ATOM      3  C   UNL A   1     -25.792  -0.430  29.076  0.00  0.00    -0.019 A 
ATOM      4  C   UNL A   1     -25.568  -1.241  29.757  0.00  0.00    -0.004 A 
ATOM      5  C   UNL A   1     -26.611  -2.184  30.244  0.00  0.00    +0.001 A 
ATOM      6  C   UNL A   1     -27.819  -1.919  29.803  0.00  0.00    +0.018 A 
ENDROOT
BRANCH   6   7
ATOM      7  C   UNL A   1     -28.905  -2.816  30.264  0.00  0.00    +0.081 A 
ATOM      8  N   UNL A   1     -28.687  -4.108  30.362  0.00  0.00    -0.244 NA
ATOM      9  C   UNL A   1     -29.736  -4.926  30.730  0.00  0.00    +0.099 A 
ATOM     10  C   UNL A   1     -30.970  -4.427  30.677  0.00  0.00    +0.021 A 
ATOM     11  C   UNL A   1     -30.175  -2.498  30.166  0.00  0.00    +0.019 A 
ATOM     12  C   UNL A   1     -31.226  -3.167  30.466  0.00  0.00    +0.003 A 
ENDBRANCH   6   7
BRANCH   3  13
ATOM     13  C   UNL A   1     -24.606   0.535  28.559  0.00  0.00    +0.041 C 
BRANCH  13  14
ATOM     14  C   UNL A   1     -24.630   1.317  27.508  0.00  0.00    -0.036 C 
ATOM     15  C   UNL A   1     -25.348   1.567  26.673  0.00  0.00    -0.008 C 
ATOM     16  C   UNL A   1     -25.013   2.430  25.558  0.00  0.00    -0.005 C 
ATOM     17  C   UNL A   1     -23.894   3.176  25.830  0.00  0.00    -0.022 C 
ATOM     18  C   UNL A   1     -23.402   2.295  27.335  0.00  0.00    +0.048 C 
ENDBRANCH  13  14
BRANCH  13  19
ATOM     19  C   UNL A   1     -23.260  -0.136  28.965  0.00  0.00    +0.008 C 
ATOM     20  C   UNL A   1     -22.747   0.467  30.159  0.00  0.00    +0.001 C 
ENDBRANCH  13  19
ENDBRANCH   3  13
TORSDOF 4
