MODEL 3521
MODEL 1
REMARK VINA RESULT:    -5.544      0.000      0.000
REMARK INTER + INTRA:          -5.923
REMARK INTER:                  -5.869
REMARK INTRA:                  -0.054
REMARK UNBOUND:                -0.054
REMARK  Name = No_3521-gen_results/8p0m/2024-11-26-14-13-15/
REMARK  1 active torsions:
REMARK  status: ('A' for Active; 'I' for Inactive)
REMARK    1  A    between atoms: C_2  and  C_7
REMARK                            x       y       z     vdW  Elec       q    Type
REMARK                         _______ _______ _______ _____ _____    ______ ____
ROOT
ATOM      1  C   UNL A   1      -8.454 -10.455  18.505  0.00  0.00    +0.006 A 
ATOM      2  C   UNL A   1      -9.443 -10.108  18.400  0.00  0.00    +0.068 A 
ATOM      3  C   UNL A   1      -7.780 -10.151  19.778  0.00  0.00    +0.000 A 
ATOM      4  C   UNL A   1      -8.335  -9.469  20.632  0.00  0.00    +0.000 A 
ATOM      5  C   UNL A   1     -10.344  -9.387  19.319  0.00  0.00    +0.006 A 
ATOM      6  C   UNL A   1      -9.707  -9.046  20.473  0.00  0.00    +0.000 A 
ENDROOT
BRANCH   2   7
ATOM      7  C   UNL A   1     -10.267 -10.469  17.069  0.00  0.00    +0.333 C 
ATOM      8  O   UNL A   1     -11.328 -10.429  17.010  0.00  0.00    -0.254 OA
ATOM      9  F   UNL A   1      -9.547 -10.765  15.934  0.00  0.00    -0.159 F 
ENDBRANCH   2   7
TORSDOF 1
ENDMDL
ENDMDL
