MODEL 3522
MODEL 1
REMARK VINA RESULT:    -4.274      0.000      0.000
REMARK INTER + INTRA:          -4.274
REMARK INTER:                  -4.274
REMARK INTRA:                   0.000
REMARK UNBOUND:                 0.000
REMARK  Name = No_3522-gen_results/8p0m/2024-11-26-14-13-15/
REMARK  0 active torsions:
REMARK  status: ('A' for Active; 'I' for Inactive)
REMARK                            x       y       z     vdW  Elec       q    Type
REMARK                         _______ _______ _______ _____ _____    ______ ____
ROOT
ATOM      1  C   UNL A   1     -26.072  -4.852  29.654  0.00  0.00    +0.000 A 
ATOM      2  C   UNL A   1     -26.214  -3.652  29.709  0.00  0.00    +0.000 A 
ATOM      3  C   UNL A   1     -25.248  -2.749  29.309  0.00  0.00    +0.000 A 
ATOM      4  C   UNL A   1     -24.038  -3.264  28.766  0.00  0.00    +0.000 A 
ATOM      5  C   UNL A   1     -23.997  -4.602  28.567  0.00  0.00    +0.000 A 
ATOM      6  C   UNL A   1     -24.987  -5.388  28.945  0.00  0.00    +0.000 A 
ENDROOT
TORSDOF 0
ENDMDL
ENDMDL
