REMARK  Name = No_3523-gen_results/8p0m/2024-11-26-14-13-15/
REMARK  2 active torsions:
REMARK  status: ('A' for Active; 'I' for Inactive)
REMARK    1  A    between atoms: C_7  and  C_11
REMARK    2  A    between atoms: C_11  and  C_12
REMARK                            x       y       z     vdW  Elec       q    Type
REMARK                         _______ _______ _______ _____ _____    ______ ____
ROOT
ATOM      1  C   UNL A   1     -28.016  -0.814  28.878  0.00  0.00    -0.000 A 
ATOM      2  C   UNL A   1     -27.064  -0.119  28.608  0.00  0.00    -0.000 A 
ATOM      3  C   UNL A   1     -25.765  -0.390  29.036  0.00  0.00    -0.004 A 
ATOM      4  C   UNL A   1     -25.530  -1.530  29.901  0.00  0.00    -0.000 A 
ATOM      5  C   UNL A   1     -26.658  -2.292  30.203  0.00  0.00    -0.000 A 
ATOM      6  C   UNL A   1     -27.855  -1.956  29.763  0.00  0.00    -0.000 A 
ATOM      7  C   UNL A   1     -24.544   0.413  28.738  0.00  0.00    -0.018 A 
ATOM      8  C   UNL A   1     -23.323   0.048  29.050  0.00  0.00    -0.004 A 
ATOM      9  C   UNL A   1     -23.165  -1.230  29.704  0.00  0.00    -0.000 A 
ATOM     10  C   UNL A   1     -24.210  -1.967  30.198  0.00  0.00    -0.000 A 
ENDROOT
BRANCH   7  11
ATOM     11  C   UNL A   1     -24.492   1.466  27.723  0.00  0.00    +0.053 C 
BRANCH  11  12
ATOM     12  C   UNL A   1     -25.236   2.384  27.649  0.00  0.00    -0.018 A 
ATOM     13  C   UNL A   1     -25.942   2.842  28.790  0.00  0.00    -0.004 A 
ATOM     14  C   UNL A   1     -26.717   4.056  28.834  0.00  0.00    -0.000 A 
ATOM     15  C   UNL A   1     -26.737   4.774  27.671  0.00  0.00    -0.000 A 
ATOM     16  C   UNL A   1     -25.284   3.430  26.589  0.00  0.00    -0.004 A 
ATOM     17  C   UNL A   1     -26.022   4.552  26.599  0.00  0.00    -0.000 A 
ENDBRANCH  11  12
ENDBRANCH   7  11
TORSDOF 2
