MODEL 3523
MODEL 1
REMARK VINA RESULT:    -7.930      0.000      0.000
REMARK INTER + INTRA:          -9.291
REMARK INTER:                  -8.857
REMARK INTRA:                  -0.434
REMARK UNBOUND:                -0.434
REMARK  Name = No_3523-gen_results/8p0m/2024-11-26-14-13-15/
REMARK  2 active torsions:
REMARK  status: ('A' for Active; 'I' for Inactive)
REMARK    1  A    between atoms: C_7  and  C_11
REMARK    2  A    between atoms: C_11  and  C_12
REMARK                            x       y       z     vdW  Elec       q    Type
REMARK                         _______ _______ _______ _____ _____    ______ ____
ROOT
ATOM      1  C   UNL A   1     -25.330   1.704  26.699  0.00  0.00    -0.000 A 
ATOM      2  C   UNL A   1     -25.054   0.804  27.457  0.00  0.00    -0.000 A 
ATOM      3  C   UNL A   1     -23.749   0.478  27.824  0.00  0.00    -0.004 A 
ATOM      4  C   UNL A   1     -22.645   1.208  27.231  0.00  0.00    -0.000 A 
ATOM      5  C   UNL A   1     -23.009   2.224  26.348  0.00  0.00    -0.000 A 
ATOM      6  C   UNL A   1     -24.271   2.458  26.048  0.00  0.00    -0.000 A 
ATOM      7  C   UNL A   1     -23.331  -0.610  28.755  0.00  0.00    -0.018 A 
ATOM      8  C   UNL A   1     -22.102  -0.795  29.175  0.00  0.00    -0.004 A 
ATOM      9  C   UNL A   1     -21.102   0.140  28.713  0.00  0.00    -0.000 A 
ATOM     10  C   UNL A   1     -21.318   1.056  27.717  0.00  0.00    -0.000 A 
ENDROOT
BRANCH   7  11
ATOM     11  C   UNL A   1     -24.257  -1.328  29.632  0.00  0.00    +0.053 C 
BRANCH  11  12
ATOM     12  C   UNL A   1     -24.507  -2.483  29.566  0.00  0.00    -0.018 A 
ATOM     13  C   UNL A   1     -25.781  -2.974  29.947  0.00  0.00    -0.004 A 
ATOM     14  C   UNL A   1     -26.232  -4.325  29.725  0.00  0.00    -0.000 A 
ATOM     15  C   UNL A   1     -25.332  -5.142  29.101  0.00  0.00    -0.000 A 
ATOM     16  C   UNL A   1     -23.802  -3.520  28.761  0.00  0.00    -0.004 A 
ATOM     17  C   UNL A   1     -24.191  -4.790  28.568  0.00  0.00    -0.000 A 
ENDBRANCH  11  12
ENDBRANCH   7  11
TORSDOF 2
ENDMDL
ENDMDL
