MODEL 3524
MODEL 1
REMARK VINA RESULT:    -6.540      0.000      0.000
REMARK INTER + INTRA:          -8.839
REMARK INTER:                  -8.452
REMARK INTRA:                  -0.387
REMARK UNBOUND:                -0.387
REMARK  Name = No_3524-gen_results/8p0m/2024-11-26-14-13-15/
REMARK  5 active torsions:
REMARK  status: ('A' for Active; 'I' for Inactive)
REMARK    1  A    between atoms: C_2  and  N_11
REMARK    2  A    between atoms: C_3  and  C_7
REMARK    3  A    between atoms: N_13  and  C_16
REMARK    4  A    between atoms: C_16  and  C_17
REMARK    5  A    between atoms: C_17  and  C_18
REMARK                            x       y       z     vdW  Elec       q    Type
REMARK                         _______ _______ _______ _____ _____    ______ ____
ROOT
ATOM      1  C   UNL A   1     -23.899   0.847  27.495  0.00  0.00    +0.021 A 
ATOM      2  C   UNL A   1     -23.557   0.338  28.351  0.00  0.00    +0.075 A 
ATOM      3  C   UNL A   1     -22.848   1.578  26.788  0.00  0.00    +0.073 A 
ATOM      4  C   UNL A   1     -21.542   1.568  27.211  0.00  0.00    +0.004 A 
ATOM      5  C   UNL A   1     -22.269   0.150  29.019  0.00  0.00    +0.017 A 
ATOM      6  C   UNL A   1     -21.244   0.854  28.343  0.00  0.00    +0.001 A 
ENDROOT
BRANCH   2   7
ATOM      7  N   UNL A   1     -24.579  -0.525  29.099  0.00  0.00    -0.162 NA
ATOM      8  C   UNL A   1     -25.703  -0.007  29.796  0.00  0.00    +0.328 C 
ATOM      9  N   UNL A   1     -26.454  -0.831  30.536  0.00  0.00    -0.261 N 
ATOM     10  O   UNL A   1     -26.145   1.157  29.512  0.00  0.00    -0.250 OA
ATOM     11  C   UNL A   1     -27.610  -0.417  31.296  0.00  0.00    +0.117 C 
BRANCH   9  12
ATOM     12  C   UNL A   1     -26.024  -2.191  30.766  0.00  0.00    +0.100 C 
BRANCH  12  13
ATOM     13  C   UNL A   1     -26.759  -3.038  30.055  0.00  0.00    +0.047 C 
BRANCH  13  14
ATOM     14  C   UNL A   1     -26.386  -3.950  29.783  0.00  0.00    -0.029 C 
ATOM     15  C   UNL A   1     -25.399  -4.220  29.293  0.00  0.00    -0.030 C 
ATOM     16  C   UNL A   1     -24.730  -5.499  28.916  0.00  0.00    +0.030 C 
ENDBRANCH  13  14
ENDBRANCH  12  13
ENDBRANCH   9  12
ENDBRANCH   2   7
BRANCH   3  17
ATOM     17  C   UNL A   1     -23.132   2.321  25.522  0.00  0.00    +0.419 C 
ATOM     18  F   UNL A   1     -23.626   3.333  25.573  0.00  0.00    -0.166 F 
ATOM     19  F   UNL A   1     -23.785   1.447  24.655  0.00  0.00    -0.166 F 
ATOM     20  F   UNL A   1     -21.965   2.580  24.741  0.00  0.00    -0.166 F 
ENDBRANCH   3  17
TORSDOF 5
ENDMDL
ENDMDL
