REMARK  Name = No_3524-gen_results/8p0m/2024-11-26-14-13-15/
REMARK  5 active torsions:
REMARK  status: ('A' for Active; 'I' for Inactive)
REMARK    1  A    between atoms: C_2  and  N_11
REMARK    2  A    between atoms: C_3  and  C_7
REMARK    3  A    between atoms: N_13  and  C_16
REMARK    4  A    between atoms: C_16  and  C_17
REMARK    5  A    between atoms: C_17  and  C_18
REMARK                            x       y       z     vdW  Elec       q    Type
REMARK                         _______ _______ _______ _____ _____    ______ ____
ROOT
ATOM      1  C   UNL A   1     -28.016  -0.814  28.878  0.00  0.00    +0.021 A 
ATOM      2  C   UNL A   1     -28.469  -0.785  29.829  0.00  0.00    +0.075 A 
ATOM      3  C   UNL A   1     -27.087   0.290  28.638  0.00  0.00    +0.073 A 
ATOM      4  C   UNL A   1     -26.832   1.249  29.587  0.00  0.00    +0.004 A 
ATOM      5  C   UNL A   1     -28.391   0.080  31.006  0.00  0.00    +0.017 A 
ATOM      6  C   UNL A   1     -27.494   1.152  30.784  0.00  0.00    +0.001 A 
ENDROOT
BRANCH   2   7
ATOM      7  N   UNL A   1     -29.390  -1.955  30.193  0.00  0.00    -0.162 NA
ATOM      8  C   UNL A   1     -28.940  -3.279  30.440  0.00  0.00    +0.328 C 
ATOM      9  N   UNL A   1     -29.837  -4.257  30.608  0.00  0.00    -0.261 N 
ATOM     10  O   UNL A   1     -27.721  -3.486  30.759  0.00  0.00    -0.250 OA
ATOM     11  C   UNL A   1     -29.498  -5.640  30.852  0.00  0.00    +0.117 C 
BRANCH   9  12
ATOM     12  C   UNL A   1     -31.238  -4.003  30.366  0.00  0.00    +0.100 C 
BRANCH  12  13
ATOM     13  C   UNL A   1     -31.816  -5.065  29.818  0.00  0.00    +0.047 C 
BRANCH  13  14
ATOM     14  C   UNL A   1     -32.094  -5.058  28.834  0.00  0.00    -0.029 C 
ATOM     15  C   UNL A   1     -31.481  -5.255  27.900  0.00  0.00    -0.030 C 
ATOM     16  C   UNL A   1     -31.788  -5.337  26.442  0.00  0.00    +0.030 C 
ENDBRANCH  13  14
ENDBRANCH  12  13
ENDBRANCH   9  12
ENDBRANCH   2   7
BRANCH   3  17
ATOM     17  C   UNL A   1     -26.311   0.392  27.364  0.00  0.00    +0.419 C 
ATOM     18  F   UNL A   1     -26.860   0.403  26.380  0.00  0.00    -0.166 F 
ATOM     19  F   UNL A   1     -25.302  -0.569  27.405  0.00  0.00    -0.166 F 
ATOM     20  F   UNL A   1     -25.500   1.564  27.285  0.00  0.00    -0.166 F 
ENDBRANCH   3  17
TORSDOF 5
