MODEL 3525
MODEL 1
REMARK VINA RESULT:    -7.197      0.000      0.000
REMARK INTER + INTRA:          -8.878
REMARK INTER:                  -8.039
REMARK INTRA:                  -0.839
REMARK UNBOUND:                -0.839
REMARK  Name = No_3525-gen_results/8p0m/2024-11-26-14-13-15/
REMARK  2 active torsions:
REMARK  status: ('A' for Active; 'I' for Inactive)
REMARK    1  A    between atoms: C_4  and  C_11
REMARK    2  A    between atoms: C_7  and  C_18
REMARK                            x       y       z     vdW  Elec       q    Type
REMARK                         _______ _______ _______ _____ _____    ______ ____
ROOT
ATOM      1  C   UNL A   1     -25.555   0.435  26.687  0.00  0.00    +0.007 A 
ATOM      2  C   UNL A   1     -25.321  -0.467  27.458  0.00  0.00    +0.000 A 
ATOM      3  C   UNL A   1     -24.623  -0.298  28.654  0.00  0.00    +0.000 A 
ATOM      4  C   UNL A   1     -24.284  -1.339  29.643  0.00  0.00    +0.002 A 
ATOM      5  C   UNL A   1     -23.525  -1.136  30.851  0.00  0.00    +0.000 A 
ATOM      6  C   UNL A   1     -23.281   0.204  31.170  0.00  0.00    +0.000 A 
ATOM      7  C   UNL A   1     -24.919   1.767  26.969  0.00  0.00    +0.080 A 
ATOM      8  C   UNL A   1     -24.293   2.047  28.162  0.00  0.00    +0.007 A 
ATOM      9  C   UNL A   1     -24.067   1.019  29.060  0.00  0.00    +0.000 A 
ATOM     10  C   UNL A   1     -23.446   1.250  30.287  0.00  0.00    +0.000 A 
ENDROOT
BRANCH   4  11
ATOM     11  C   UNL A   1     -24.700  -2.759  29.409  0.00  0.00    +0.028 A 
ATOM     12  C   UNL A   1     -25.851  -3.124  29.846  0.00  0.00    +0.140 A 
ATOM     13  C   UNL A   1     -26.233  -4.477  29.821  0.00  0.00    +0.030 A 
ATOM     14  C   UNL A   1     -23.822  -3.594  28.768  0.00  0.00    +0.002 A 
ATOM     15  C   UNL A   1     -24.149  -4.944  28.593  0.00  0.00    +0.000 A 
ATOM     16  C   UNL A   1     -25.416  -5.374  29.045  0.00  0.00    +0.002 A 
ATOM     17  F   UNL A   1     -26.729  -2.363  30.480  0.00  0.00    -0.204 F 
ENDBRANCH   4  11
BRANCH   7  18
ATOM     18  C   UNL A   1     -25.169   2.864  25.961  0.00  0.00    +0.388 C 
ATOM     19  O   UNL A   1     -26.078   2.833  25.447  0.00  0.00    -0.241 OA
ATOM     20  O   UNL A   1     -24.271   3.745  25.804  0.00  0.00    -0.241 OA
ENDBRANCH   7  18
TORSDOF 2
ENDMDL
ENDMDL
