MODEL 3526
MODEL 1
REMARK VINA RESULT:    -6.262      0.000      0.000
REMARK INTER + INTRA:         -15.500
REMARK INTER:                 -10.655
REMARK INTRA:                  -4.845
REMARK UNBOUND:                -4.845
REMARK  Name = No_3526-gen_results/8p0m/2024-11-26-14-13-15/
REMARK  12 active torsions:
REMARK  status: ('A' for Active; 'I' for Inactive)
REMARK    1  A    between atoms: C_1  and  C_6
REMARK    2  A    between atoms: C_3  and  C_14
REMARK    3  A    between atoms: C_5  and  C_10
REMARK    4  A    between atoms: C_14  and  C_15
REMARK    5  A    between atoms: C_15  and  C_16
REMARK    6  A    between atoms: C_16  and  C_18
REMARK    7  A    between atoms: C_20  and  C_26
REMARK    8  A    between atoms: C_27  and  C_28
REMARK    9  A    between atoms: C_28  and  C_29
REMARK   10  A    between atoms: C_29  and  C_30
REMARK   11  A    between atoms: C_31  and  C_32
REMARK   12  A    between atoms: C_32  and  O_34
REMARK                            x       y       z     vdW  Elec       q    Type
REMARK                         _______ _______ _______ _____ _____    ______ ____
ROOT
ATOM      1  C   UNL A   1     -30.506 -14.535  10.992  0.00  0.00    -0.022 C 
ATOM      2  C   UNL A   1     -29.866 -15.763  11.209  0.00  0.00    -0.005 C 
ENDROOT
BRANCH   1   3
ATOM      3  C   UNL A   1     -31.397 -14.404   9.874  0.00  0.00    -0.004 A 
ATOM      4  C   UNL A   1     -31.044 -13.972   8.634  0.00  0.00    +0.000 A 
ATOM      5  C   UNL A   1     -31.791 -12.980   8.011  0.00  0.00    +0.011 A 
ATOM      6  C   UNL A   1     -32.839 -12.355   8.626  0.00  0.00    +0.058 A 
ATOM      7  C   UNL A   1     -33.191 -12.823   9.982  0.00  0.00    +0.011 A 
ATOM      8  C   UNL A   1     -32.682 -14.527  10.047  0.00  0.00    +0.001 A 
ATOM      9 CL   UNL A   1     -33.692 -11.044   8.014  0.00  0.00    -0.082 Cl
BRANCH   4  10
ATOM     10  C   UNL A   1     -29.750 -14.362   8.047  0.00  0.00    -0.004 C 
ATOM     11  C   UNL A   1     -28.752 -13.393   7.767  0.00  0.00    -0.026 C 
BRANCH  11  12
ATOM     12  C   UNL A   1     -27.530 -13.830   7.222  0.00  0.00    +0.031 C 
BRANCH  12  13
ATOM     13  C   UNL A   1     -26.799 -12.846   6.444  0.00  0.00    +0.031 C 
BRANCH  13  14
ATOM     14  C   UNL A   1     -25.450 -13.039   6.201  0.00  0.00    -0.019 C 
ATOM     15  C   UNL A   1     -24.938 -14.384   6.822  0.00  0.00    +0.077 C 
BRANCH  15  16
ATOM     16  C   UNL A   1     -23.608 -14.602   6.397  0.00  0.00    +0.341 C 
ATOM     17  O   UNL A   1     -22.840 -13.856   5.778  0.00  0.00    -0.245 OA
BRANCH  16  18
ATOM     18  O   UNL A   1     -23.180 -15.895   6.463  0.00  0.00    -0.441 OA
ATOM     19  C   UNL A   1     -22.086 -16.367   5.742  0.00  0.00    +0.256 C 
ENDBRANCH  16  18
ENDBRANCH  15  16
ENDBRANCH  13  14
ENDBRANCH  12  13
ENDBRANCH  11  12
ENDBRANCH   4  10
ENDBRANCH   1   3
BRANCH   1  20
ATOM     20  C   UNL A   1     -29.695 -13.518  11.458  0.00  0.00    +0.031 C 
BRANCH  20  21
ATOM     21  C   UNL A   1     -30.143 -12.389  11.908  0.00  0.00    +0.027 C 
ATOM     22  C   UNL A   1     -30.692 -12.311  13.226  0.00  0.00    +0.005 C 
BRANCH  21  25
ATOM     23  C   UNL A   1     -31.047  -9.307  10.128  0.00  0.00    +0.079 A 
ATOM     24  C   UNL A   1     -31.050 -10.240  10.898  0.00  0.00    +0.002 A 
ATOM     25  C   UNL A   1     -30.023 -11.157  11.043  0.00  0.00    -0.022 A 
ATOM     26  C   UNL A   1     -28.862 -10.964  10.238  0.00  0.00    -0.000 A 
ATOM     27  C   UNL A   1     -28.831  -9.834   9.503  0.00  0.00    +0.071 A 
ATOM     28  C   UNL A   1     -29.875  -9.021   9.474  0.00  0.00    +0.010 A 
BRANCH  27  29
ATOM     29  C   UNL A   1     -27.528  -9.824   8.714  0.00  0.00    +0.419 C 
ATOM     30  F   UNL A   1     -27.762  -9.927   7.557  0.00  0.00    -0.166 F 
ATOM     31  F   UNL A   1     -26.941  -8.667   8.968  0.00  0.00    -0.166 F 
ATOM     32  F   UNL A   1     -26.700 -10.797   9.033  0.00  0.00    -0.166 F 
ENDBRANCH  27  29
BRANCH  23  33
ATOM     33  C   UNL A   1     -32.145  -8.381  10.114  0.00  0.00    +0.388 C 
ATOM     34  O   UNL A   1     -32.575  -7.911   9.062  0.00  0.00    -0.241 OA
ATOM     35  O   UNL A   1     -32.613  -7.867  11.240  0.00  0.00    -0.241 OA
ENDBRANCH  23  33
ENDBRANCH  21  25
ENDBRANCH  20  21
ENDBRANCH   1  20
TORSDOF 12
ENDMDL
ENDMDL
