REMARK  Name = No_3526-gen_results/8p0m/2024-11-26-14-13-15/
REMARK  12 active torsions:
REMARK  status: ('A' for Active; 'I' for Inactive)
REMARK    1  A    between atoms: C_1  and  C_6
REMARK    2  A    between atoms: C_3  and  C_14
REMARK    3  A    between atoms: C_5  and  C_10
REMARK    4  A    between atoms: C_14  and  C_15
REMARK    5  A    between atoms: C_15  and  C_16
REMARK    6  A    between atoms: C_16  and  C_18
REMARK    7  A    between atoms: C_20  and  C_26
REMARK    8  A    between atoms: C_27  and  C_28
REMARK    9  A    between atoms: C_28  and  C_29
REMARK   10  A    between atoms: C_29  and  C_30
REMARK   11  A    between atoms: C_31  and  C_32
REMARK   12  A    between atoms: C_32  and  O_34
REMARK                            x       y       z     vdW  Elec       q    Type
REMARK                         _______ _______ _______ _____ _____    ______ ____
ROOT
ATOM      1  C   UNL A   1     -23.682   1.565  28.349  0.00  0.00    -0.022 C 
ATOM      2  C   UNL A   1     -22.728   2.262  27.595  0.00  0.00    -0.005 C 
ENDROOT
BRANCH   1   3
ATOM      3  C   UNL A   1     -23.307   1.046  29.634  0.00  0.00    -0.004 A 
ATOM      4  C   UNL A   1     -23.620  -0.191  30.104  0.00  0.00    +0.000 A 
ATOM      5  C   UNL A   1     -24.173  -0.328  31.371  0.00  0.00    +0.011 A 
ATOM      6  C   UNL A   1     -24.492   0.747  32.153  0.00  0.00    +0.058 A 
ATOM      7  C   UNL A   1     -24.167   2.083  31.613  0.00  0.00    +0.011 A 
ATOM      8  C   UNL A   1     -22.780   1.835  30.526  0.00  0.00    +0.001 A 
ATOM      9 CL   UNL A   1     -25.305   0.682  33.620  0.00  0.00    -0.082 Cl
BRANCH   4  10
ATOM     10  C   UNL A   1     -23.607  -1.357  29.204  0.00  0.00    -0.004 C 
ATOM     11  C   UNL A   1     -24.056  -2.628  29.647  0.00  0.00    -0.026 C 
BRANCH  11  12
ATOM     12  C   UNL A   1     -24.036  -3.700  28.735  0.00  0.00    +0.031 C 
BRANCH  12  13
ATOM     13  C   UNL A   1     -24.781  -4.881  29.134  0.00  0.00    +0.031 C 
BRANCH  13  14
ATOM     14  C   UNL A   1     -26.160  -4.883  29.022  0.00  0.00    -0.019 C 
ATOM     15  C   UNL A   1     -26.853  -5.010  30.422  0.00  0.00    +0.077 C 
BRANCH  15  16
ATOM     16  C   UNL A   1     -28.246  -4.836  30.256  0.00  0.00    +0.341 C 
ATOM     17  O   UNL A   1     -28.891  -4.508  29.254  0.00  0.00    -0.245 OA
BRANCH  16  18
ATOM     18  O   UNL A   1     -28.968  -4.788  31.412  0.00  0.00    -0.441 OA
ATOM     19  C   UNL A   1     -30.314  -5.141  31.477  0.00  0.00    +0.256 C 
ENDBRANCH  16  18
ENDBRANCH  15  16
ENDBRANCH  13  14
ENDBRANCH  12  13
ENDBRANCH  11  12
ENDBRANCH   4  10
ENDBRANCH   1   3
BRANCH   1  20
ATOM     20  C   UNL A   1     -24.563   0.939  27.488  0.00  0.00    +0.031 C 
BRANCH  20  21
ATOM     21  C   UNL A   1     -25.703   1.442  27.134  0.00  0.00    +0.027 C 
ATOM     22  C   UNL A   1     -25.745   2.642  26.357  0.00  0.00    +0.005 C 
BRANCH  21  25
ATOM     23  C   UNL A   1     -28.016  -0.814  28.878  0.00  0.00    +0.079 A 
ATOM     24  C   UNL A   1     -27.064  -0.119  28.608  0.00  0.00    +0.002 A 
ATOM     25  C   UNL A   1     -26.972   0.714  27.506  0.00  0.00    -0.022 A 
ATOM     26  C   UNL A   1     -28.105   0.774  26.642  0.00  0.00    -0.000 A 
ATOM     27  C   UNL A   1     -29.201   0.104  27.053  0.00  0.00    +0.071 A 
ATOM     28  C   UNL A   1     -29.164  -0.639  28.148  0.00  0.00    +0.010 A 
BRANCH  27  29
ATOM     29  C   UNL A   1     -30.282   0.281  25.995  0.00  0.00    +0.419 C 
ATOM     30  F   UNL A   1     -31.170  -0.476  26.201  0.00  0.00    -0.166 F 
ATOM     31  F   UNL A   1     -30.705   1.530  26.092  0.00  0.00    -0.166 F 
ATOM     32  F   UNL A   1     -29.867   0.070  24.763  0.00  0.00    -0.166 F 
ENDBRANCH  27  29
BRANCH  23  33
ATOM     33  C   UNL A   1     -28.022  -1.590  30.088  0.00  0.00    +0.388 C 
ATOM     34  O   UNL A   1     -27.115  -2.378  30.350  0.00  0.00    -0.241 OA
ATOM     35  O   UNL A   1     -29.087  -1.614  30.872  0.00  0.00    -0.241 OA
ENDBRANCH  23  33
ENDBRANCH  21  25
ENDBRANCH  20  21
ENDBRANCH   1  20
TORSDOF 12
