REMARK  Name = No_3527-gen_results/8p0m/2024-11-26-14-13-15/
REMARK  1 active torsions:
REMARK  status: ('A' for Active; 'I' for Inactive)
REMARK    1  A    between atoms: C_9  and  C_11
REMARK                            x       y       z     vdW  Elec       q    Type
REMARK                         _______ _______ _______ _____ _____    ______ ____
ROOT
ATOM      1  C   UNL A   1     -28.016  -0.814  28.878  0.00  0.00    +0.011 A 
ATOM      2  C   UNL A   1     -28.469  -0.785  29.829  0.00  0.00    +0.058 A 
ATOM      3  C   UNL A   1     -26.504  -0.778  28.877  0.00  0.00    +0.001 A 
ATOM      4  C   UNL A   1     -25.654  -0.660  27.719  0.00  0.00    +0.001 A 
ATOM      5  C   UNL A   1     -27.918  -0.937  31.182  0.00  0.00    +0.011 A 
ATOM      6  C   UNL A   1     -26.542  -0.940  31.261  0.00  0.00    +0.001 A 
ATOM      7  C   UNL A   1     -25.783  -0.893  30.120  0.00  0.00    +0.001 A 
ATOM      8  C   UNL A   1     -24.318  -0.237  27.844  0.00  0.00    +0.010 A 
ATOM      9  C   UNL A   1     -23.663  -0.428  29.085  0.00  0.00    +0.068 A 
ATOM     10  C   UNL A   1     -24.362  -0.646  30.194  0.00  0.00    +0.010 A 
ATOM     11 CL   UNL A   1     -30.285  -0.892  29.847  0.00  0.00    -0.082 Cl
ENDROOT
BRANCH   9  12
ATOM     12  C   UNL A   1     -22.197  -0.159  29.126  0.00  0.00    +0.100 C 
ATOM     13  N   UNL A   1     -21.246   0.368  28.736  0.00  0.00    -0.191 NA
ENDBRANCH   9  12
TORSDOF 1
