MODEL 3528
MODEL 1
REMARK VINA RESULT:    -6.855      0.000      0.000
REMARK INTER + INTRA:         -11.072
REMARK INTER:                  -9.259
REMARK INTRA:                  -1.813
REMARK UNBOUND:                -1.813
REMARK  Name = No_3528-gen_results/8p0m/2024-11-26-14-13-15/
REMARK  6 active torsions:
REMARK  status: ('A' for Active; 'I' for Inactive)
REMARK    1  A    between atoms: C_6  and  C_13
REMARK    2  A    between atoms: C_11  and  C_18
REMARK    3  A    between atoms: C_13  and  C_14
REMARK    4  A    between atoms: C_15  and  C_16
REMARK    5  A    between atoms: C_18  and  C_21
REMARK    6  A    between atoms: C_23  and  C_28
REMARK                            x       y       z     vdW  Elec       q    Type
REMARK                         _______ _______ _______ _____ _____    ______ ____
ROOT
ATOM      1  O   UNL A   1     -11.805  -2.692  37.607  0.00  0.00    -0.273 OA
ATOM      2  C   UNL A   1     -11.564  -1.867  38.375  0.00  0.00    +0.246 C 
ATOM      3  N   UNL A   1     -12.107  -1.843  39.527  0.00  0.00    -0.179 NA
ATOM      4  C   UNL A   1     -12.082  -0.711  40.465  0.00  0.00    +0.073 A 
ATOM      5  C   UNL A   1     -12.750  -0.778  41.629  0.00  0.00    +0.058 A 
ATOM      6  C   UNL A   1     -11.009  -0.511  37.909  0.00  0.00    +0.091 C 
ATOM      7  C   UNL A   1     -13.191   0.386  42.294  0.00  0.00    +0.197 A 
ATOM      8  C   UNL A   1     -12.948   1.636  41.566  0.00  0.00    +0.042 A 
ATOM      9  C   UNL A   1     -12.356   1.707  40.341  0.00  0.00    +0.001 A 
ATOM     10  C   UNL A   1     -12.061   0.489  39.702  0.00  0.00    -0.002 A 
ATOM     11  C   UNL A   1     -11.390   0.627  38.431  0.00  0.00    +0.054 C 
ATOM     12  O   UNL A   1     -13.623   0.508  43.536  0.00  0.00    -0.286 OA
ENDROOT
BRANCH  11  13
ATOM     13  C   UNL A   1     -11.063   1.900  37.863  0.00  0.00    -0.026 C 
ATOM     14  C   UNL A   1     -10.366   2.665  37.775  0.00  0.00    -0.047 C 
ATOM     15  C   UNL A   1      -9.153   2.768  38.727  0.00  0.00    +0.026 C 
ATOM     16  C   UNL A   1     -10.368   4.009  37.000  0.00  0.00    +0.026 C 
BRANCH  13  17
ATOM     17  C   UNL A   1     -12.263   2.221  36.750  0.00  0.00    -0.004 A 
ATOM     18  C   UNL A   1     -12.269   2.019  35.532  0.00  0.00    +0.006 A 
ATOM     19  C   UNL A   1     -13.344   2.408  34.696  0.00  0.00    +0.080 A 
ATOM     20  C   UNL A   1     -14.518   2.855  35.234  0.00  0.00    +0.007 A 
ATOM     21  C   UNL A   1     -13.470   2.916  37.240  0.00  0.00    -0.000 A 
ATOM     22  C   UNL A   1     -14.482   3.283  36.483  0.00  0.00    +0.000 A 
BRANCH  19  23
ATOM     23  C   UNL A   1     -13.317   1.960  33.182  0.00  0.00    +0.388 C 
ATOM     24  O   UNL A   1     -14.032   2.546  32.450  0.00  0.00    -0.241 OA
ATOM     25  O   UNL A   1     -12.325   1.225  32.834  0.00  0.00    -0.241 OA
ENDBRANCH  19  23
ENDBRANCH  13  17
ENDBRANCH  11  13
BRANCH   6  26
ATOM     26  C   UNL A   1     -10.250  -0.618  36.636  0.00  0.00    +0.035 C 
BRANCH  26  27
ATOM     27  C   UNL A   1      -9.039  -0.429  36.689  0.00  0.00    -0.029 C 
ATOM     28  C   UNL A   1      -8.323  -0.023  35.711  0.00  0.00    -0.013 C 
BRANCH  28  29
ATOM     29  C   UNL A   1      -6.842   0.204  35.752  0.00  0.00    +0.120 C 
ATOM     30 CL   UNL A   1      -5.919  -0.053  35.455  0.00  0.00    -0.109 Cl
ENDBRANCH  28  29
ENDBRANCH  26  27
ENDBRANCH   6  26
TORSDOF 6
ENDMDL
ENDMDL
