REMARK  Name = No_3528-gen_results/8p0m/2024-11-26-14-13-15/
REMARK  6 active torsions:
REMARK  status: ('A' for Active; 'I' for Inactive)
REMARK    1  A    between atoms: C_6  and  C_13
REMARK    2  A    between atoms: C_11  and  C_18
REMARK    3  A    between atoms: C_13  and  C_14
REMARK    4  A    between atoms: C_15  and  C_16
REMARK    5  A    between atoms: C_18  and  C_21
REMARK    6  A    between atoms: C_23  and  C_28
REMARK                            x       y       z     vdW  Elec       q    Type
REMARK                         _______ _______ _______ _____ _____    ______ ____
ROOT
ATOM      1  O   UNL A   1     -28.123  -1.335  28.487  0.00  0.00    -0.273 OA
ATOM      2  C   UNL A   1     -27.481  -0.404  28.709  0.00  0.00    +0.246 C 
ATOM      3  N   UNL A   1     -26.460  -0.110  28.005  0.00  0.00    -0.179 NA
ATOM      4  C   UNL A   1     -25.430   0.879  28.357  0.00  0.00    +0.073 A 
ATOM      5  C   UNL A   1     -24.360   1.056  27.565  0.00  0.00    +0.058 A 
ATOM      6  C   UNL A   1     -27.486   0.227  30.111  0.00  0.00    +0.091 C 
ATOM      7  C   UNL A   1     -23.143   1.562  28.072  0.00  0.00    +0.197 A 
ATOM      8  C   UNL A   1     -23.127   1.776  29.523  0.00  0.00    +0.042 A 
ATOM      9  C   UNL A   1     -24.178   1.510  30.349  0.00  0.00    +0.001 A 
ATOM     10  C   UNL A   1     -25.303   0.894  29.773  0.00  0.00    -0.002 A 
ATOM     11  C   UNL A   1     -26.402   0.683  30.686  0.00  0.00    +0.054 C 
ATOM     12  O   UNL A   1     -22.104   2.025  27.401  0.00  0.00    -0.286 OA
ENDROOT
BRANCH  11  13
ATOM     13  C   UNL A   1     -26.345   1.060  32.066  0.00  0.00    -0.026 C 
ATOM     14  C   UNL A   1     -26.078   0.797  33.034  0.00  0.00    -0.047 C 
ATOM     15  C   UNL A   1     -25.737  -0.663  33.410  0.00  0.00    +0.026 C 
ATOM     16  C   UNL A   1     -26.180   1.535  34.394  0.00  0.00    +0.026 C 
BRANCH  13  17
ATOM     17  C   UNL A   1     -26.754   2.677  32.110  0.00  0.00    -0.004 A 
ATOM     18  C   UNL A   1     -26.081   3.659  31.781  0.00  0.00    +0.006 A 
ATOM     19  C   UNL A   1     -26.540   4.990  31.938  0.00  0.00    +0.080 A 
ATOM     20  C   UNL A   1     -27.838   5.242  32.284  0.00  0.00    +0.007 A 
ATOM     21  C   UNL A   1     -28.065   3.027  32.691  0.00  0.00    -0.000 A 
ATOM     22  C   UNL A   1     -28.514   4.254  32.842  0.00  0.00    +0.000 A 
BRANCH  19  23
ATOM     23  C   UNL A   1     -25.665   6.160  31.340  0.00  0.00    +0.388 C 
ATOM     24  O   UNL A   1     -25.395   6.079  30.195  0.00  0.00    -0.241 OA
ATOM     25  O   UNL A   1     -25.584   7.221  32.056  0.00  0.00    -0.241 OA
ENDBRANCH  19  23
ENDBRANCH  13  17
ENDBRANCH  11  13
BRANCH   6  26
ATOM     26  C   UNL A   1     -28.761  -0.013  30.834  0.00  0.00    +0.035 C 
BRANCH  26  27
ATOM     27  C   UNL A   1     -29.666   0.796  30.657  0.00  0.00    -0.029 C 
ATOM     28  C   UNL A   1     -29.496   2.048  30.467  0.00  0.00    -0.013 C 
BRANCH  28  29
ATOM     29  C   UNL A   1     -30.588   3.054  30.259  0.00  0.00    +0.120 C 
ATOM     30 CL   UNL A   1     -31.515   3.272  29.944  0.00  0.00    -0.109 Cl
ENDBRANCH  28  29
ENDBRANCH  26  27
ENDBRANCH   6  26
TORSDOF 6
