MODEL 3529
MODEL 1
REMARK VINA RESULT:    -4.272      0.000      0.000
REMARK INTER + INTRA:          -4.272
REMARK INTER:                  -4.272
REMARK INTRA:                   0.000
REMARK UNBOUND:                 0.000
REMARK  Name = No_3529-gen_results/8p0m/2024-11-26-14-13-15/
REMARK  0 active torsions:
REMARK  status: ('A' for Active; 'I' for Inactive)
REMARK                            x       y       z     vdW  Elec       q    Type
REMARK                         _______ _______ _______ _____ _____    ______ ____
ROOT
ATOM      1  C   UNL A   1     -26.074  -4.850  29.651  0.00  0.00    +0.000 A 
ATOM      2  C   UNL A   1     -26.215  -3.650  29.703  0.00  0.00    +0.000 A 
ATOM      3  C   UNL A   1     -25.249  -2.749  29.302  0.00  0.00    +0.000 A 
ATOM      4  C   UNL A   1     -24.037  -3.266  28.763  0.00  0.00    +0.000 A 
ATOM      5  C   UNL A   1     -23.995  -4.604  28.569  0.00  0.00    +0.000 A 
ATOM      6  C   UNL A   1     -24.987  -5.388  28.947  0.00  0.00    +0.000 A 
ENDROOT
TORSDOF 0
ENDMDL
ENDMDL
