MODEL 352
MODEL 1
REMARK VINA RESULT:    -5.990      0.000      0.000
REMARK INTER + INTRA:          -7.641
REMARK INTER:                  -7.391
REMARK INTRA:                  -0.250
REMARK UNBOUND:                -0.250
REMARK  Name = No_352-gen_results/8p0m/2024-11-26-14-13-15/
REMARK  4 active torsions:
REMARK  status: ('A' for Active; 'I' for Inactive)
REMARK    1  A    between atoms: C_2  and  C_7
REMARK    2  A    between atoms: C_6  and  O_10
REMARK    3  A    between atoms: O_10  and  C_11
REMARK    4  A    between atoms: C_11  and  C_12
REMARK                            x       y       z     vdW  Elec       q    Type
REMARK                         _______ _______ _______ _____ _____    ______ ____
ROOT
ATOM      1  C   UNL A   1     -28.859 -11.578  29.609  0.00  0.00    +0.037 A 
ATOM      2  C   UNL A   1     -29.365 -12.200  28.704  0.00  0.00    +0.029 A 
ATOM      3  C   UNL A   1     -30.000 -13.415  28.934  0.00  0.00    -0.000 A 
ATOM      4  C   UNL A   1     -30.035 -13.995  30.252  0.00  0.00    +0.003 A 
ATOM      5  C   UNL A   1     -29.405 -13.221  31.235  0.00  0.00    +0.038 A 
ATOM      6  C   UNL A   1     -28.803 -12.086  30.963  0.00  0.00    +0.149 A 
ENDROOT
BRANCH   2   7
ATOM      7  C   UNL A   1     -29.400 -11.768  27.280  0.00  0.00    +0.262 C 
ATOM      8 CL   UNL A   1     -30.188 -11.069  26.655  0.00  0.00    -0.072 Cl
ATOM      9  F   UNL A   1     -28.228 -12.317  26.684  0.00  0.00    -0.214 F 
ENDBRANCH   2   7
BRANCH   6  10
ATOM     10  O   UNL A   1     -28.194 -11.452  31.994  0.00  0.00    -0.416 OA
BRANCH  10  11
ATOM     11  C   UNL A   1     -27.291 -12.055  32.765  0.00  0.00    +0.427 C 
ATOM     12  O   UNL A   1     -26.359 -12.699  32.281  0.00  0.00    -0.237 OA
BRANCH  11  13
ATOM     13  C   UNL A   1     -27.395 -11.727  34.076  0.00  0.00    +0.463 C 
ATOM     14  O   UNL A   1     -26.767 -11.012  34.545  0.00  0.00    -0.233 OA
ATOM     15  O   UNL A   1     -27.994 -12.578  34.876  0.00  0.00    -0.233 OA
ENDBRANCH  11  13
ENDBRANCH  10  11
ENDBRANCH   6  10
TORSDOF 4
ENDMDL
ENDMDL
