REMARK  Name = No_3530-gen_results/8p0m/2024-11-26-14-13-15/
REMARK  4 active torsions:
REMARK  status: ('A' for Active; 'I' for Inactive)
REMARK    1  A    between atoms: C_1  and  C_2
REMARK    2  A    between atoms: C_1  and  C_8
REMARK    3  A    between atoms: C_8  and  C_9
REMARK    4  A    between atoms: C_8  and  C_19
REMARK                            x       y       z     vdW  Elec       q    Type
REMARK                         _______ _______ _______ _____ _____    ______ ____
ROOT
ATOM      1  C   UNL A   1     -28.016  -0.814  28.878  0.00  0.00    +0.042 C 
ENDROOT
BRANCH   1   2
ATOM      2  C   UNL A   1     -27.064  -0.119  28.608  0.00  0.00    -0.021 A 
ATOM      3  C   UNL A   1     -25.792  -0.430  29.076  0.00  0.00    -0.004 A 
ATOM      4  C   UNL A   1     -24.546   0.349  28.823  0.00  0.00    +0.003 A 
ATOM      5  C   UNL A   1     -24.659   1.420  27.888  0.00  0.00    +0.019 A 
ATOM      6  C   UNL A   1     -25.947   1.681  27.379  0.00  0.00    +0.001 A 
ATOM      7  C   UNL A   1     -27.044   0.974  27.687  0.00  0.00    -0.004 A 
ATOM      8  C   UNL A   1     -23.443   2.131  27.575  0.00  0.00    +0.099 A 
ATOM      9  N   UNL A   1     -22.231   1.716  28.070  0.00  0.00    -0.242 NA
ATOM     10  C   UNL A   1     -22.167   0.666  28.977  0.00  0.00    +0.099 A 
ATOM     11  C   UNL A   1     -23.290  -0.073  29.367  0.00  0.00    +0.021 A 
ENDBRANCH   1   2
BRANCH   1  12
ATOM     12  C   UNL A   1     -29.229  -0.061  29.311  0.00  0.00    +0.130 C 
BRANCH  12  13
ATOM     13  C   UNL A   1     -29.186   0.371  30.437  0.00  0.00    -0.011 A 
ATOM     14  C   UNL A   1     -30.418   1.041  31.049  0.00  0.00    -0.004 A 
ATOM     15  C   UNL A   1     -30.416   1.620  32.314  0.00  0.00    -0.000 A 
ATOM     16  C   UNL A   1     -29.236   1.542  33.072  0.00  0.00    -0.000 A 
ATOM     17  C   UNL A   1     -28.070   0.926  32.566  0.00  0.00    -0.000 A 
ATOM     18  C   UNL A   1     -28.046   0.389  31.294  0.00  0.00    -0.004 A 
ENDBRANCH  12  13
BRANCH  12  19
ATOM     19  C   UNL A   1     -30.321  -0.093  28.391  0.00  0.00    +0.369 C 
ATOM     20  O   UNL A   1     -31.206  -0.872  28.440  0.00  0.00    -0.245 OA
ATOM     21  O   UNL A   1     -30.562   1.089  27.794  0.00  0.00    -0.245 OA
ENDBRANCH  12  19
ENDBRANCH   1  12
TORSDOF 4
