MODEL 3530
MODEL 1
REMARK VINA RESULT:    -7.287      0.000      0.000
REMARK INTER + INTRA:          -9.617
REMARK INTER:                  -8.991
REMARK INTRA:                  -0.626
REMARK UNBOUND:                -0.626
REMARK  Name = No_3530-gen_results/8p0m/2024-11-26-14-13-15/
REMARK  4 active torsions:
REMARK  status: ('A' for Active; 'I' for Inactive)
REMARK    1  A    between atoms: C_1  and  C_2
REMARK    2  A    between atoms: C_1  and  C_8
REMARK    3  A    between atoms: C_8  and  C_9
REMARK    4  A    between atoms: C_8  and  C_19
REMARK                            x       y       z     vdW  Elec       q    Type
REMARK                         _______ _______ _______ _____ _____    ______ ____
ROOT
ATOM      1  C   UNL A   1     -22.549  -1.106  28.951  0.00  0.00    +0.042 C 
ENDROOT
BRANCH   1   2
ATOM      2  C   UNL A   1     -22.940  -0.172  28.290  0.00  0.00    -0.021 A 
ATOM      3  C   UNL A   1     -24.218  -0.167  27.741  0.00  0.00    -0.004 A 
ATOM      4  C   UNL A   1     -24.811   0.915  26.903  0.00  0.00    +0.003 A 
ATOM      5  C   UNL A   1     -24.043   2.112  26.794  0.00  0.00    +0.019 A 
ATOM      6  C   UNL A   1     -22.775   2.107  27.409  0.00  0.00    +0.001 A 
ATOM      7  C   UNL A   1     -22.273   1.078  28.108  0.00  0.00    -0.004 A 
ATOM      8  C   UNL A   1     -24.642   3.194  26.052  0.00  0.00    +0.099 A 
ATOM      9  N   UNL A   1     -25.929   3.104  25.579  0.00  0.00    -0.242 NA
ATOM     10  C   UNL A   1     -26.642   1.920  25.710  0.00  0.00    +0.099 A 
ATOM     11  C   UNL A   1     -26.143   0.802  26.389  0.00  0.00    +0.021 A 
ENDBRANCH   1   2
BRANCH   1  12
ATOM     12  C   UNL A   1     -23.428  -1.462  30.103  0.00  0.00    +0.130 C 
BRANCH  12  13
ATOM     13  C   UNL A   1     -24.225  -2.340  29.883  0.00  0.00    -0.011 A 
ATOM     14  C   UNL A   1     -25.672  -2.200  30.361  0.00  0.00    -0.004 A 
ATOM     15  C   UNL A   1     -26.624  -3.202  30.203  0.00  0.00    -0.000 A 
ATOM     16  C   UNL A   1     -26.239  -4.375  29.533  0.00  0.00    -0.000 A 
ATOM     17  C   UNL A   1     -24.921  -4.559  29.059  0.00  0.00    -0.000 A 
ATOM     18  C   UNL A   1     -23.956  -3.590  29.251  0.00  0.00    -0.004 A 
ENDBRANCH  12  13
BRANCH  12  19
ATOM     19  C   UNL A   1     -23.304  -0.610  31.242  0.00  0.00    +0.369 C 
ATOM     20  O   UNL A   1     -23.854   0.428  31.357  0.00  0.00    -0.245 OA
ATOM     21  O   UNL A   1     -22.954  -1.259  32.369  0.00  0.00    -0.245 OA
ENDBRANCH  12  19
ENDBRANCH   1  12
TORSDOF 4
ENDMDL
ENDMDL
