MODEL 3531
MODEL 1
REMARK VINA RESULT:    -7.884      0.000      0.000
REMARK INTER + INTRA:          -9.042
REMARK INTER:                  -8.345
REMARK INTRA:                  -0.697
REMARK UNBOUND:                -0.697
REMARK  Name = No_3531-gen_results/8p0m/2024-11-26-14-13-15/
REMARK  1 active torsions:
REMARK  status: ('A' for Active; 'I' for Inactive)
REMARK    1  A    between atoms: C_7  and  C_9
REMARK                            x       y       z     vdW  Elec       q    Type
REMARK                         _______ _______ _______ _____ _____    ______ ____
ROOT
ATOM      1  C   UNL A   1     -24.860  -1.003  30.059  0.00  0.00    +0.043 A 
ATOM      2  C   UNL A   1     -24.270  -0.699  31.197  0.00  0.00    +0.141 A 
ATOM      3  C   UNL A   1     -23.799   0.645  31.442  0.00  0.00    +0.030 A 
ATOM      4  C   UNL A   1     -24.013   1.628  30.512  0.00  0.00    +0.008 A 
ATOM      5  C   UNL A   1     -24.673   1.277  29.329  0.00  0.00    +0.069 A 
ATOM      6  C   UNL A   1     -25.037  -0.044  29.052  0.00  0.00    +0.074 A 
ATOM      7  F   UNL A   1     -23.970  -1.591  32.159  0.00  0.00    -0.204 F 
ATOM      8  C   UNL A   1     -24.953   2.329  28.334  0.00  0.00    +0.251 C 
ATOM      9  O   UNL A   1     -24.589   3.395  28.275  0.00  0.00    -0.270 OA
ATOM     10  N   UNL A   1     -25.815   1.887  27.243  0.00  0.00    -0.260 N 
ATOM     11  C   UNL A   1     -26.181   2.766  26.169  0.00  0.00    +0.095 C 
ATOM     12  C   UNL A   1     -26.700   2.537  25.331  0.00  0.00    +0.022 C 
ATOM     13  C   UNL A   1     -27.258   1.120  25.183  0.00  0.00    +0.005 C 
ATOM     14  C   UNL A   1     -26.958   0.187  26.183  0.00  0.00    +0.042 C 
ATOM     15  C   UNL A   1     -26.219   0.592  27.187  0.00  0.00    +0.169 C 
ATOM     16  N   UNL A   1     -25.855  -0.279  28.134  0.00  0.00    -0.219 NA
ENDROOT
BRANCH   1  23
ATOM     17 CL   UNL A   1     -27.348  -2.209  30.839  0.00  0.00    -0.082 Cl
ATOM     18  C   UNL A   1     -26.416  -3.080  30.166  0.00  0.00    +0.058 A 
ATOM     19  C   UNL A   1     -26.530  -4.191  29.814  0.00  0.00    +0.014 A 
ATOM     20  C   UNL A   1     -25.560  -5.050  29.108  0.00  0.00    +0.030 A 
ATOM     21  C   UNL A   1     -24.345  -4.422  28.755  0.00  0.00    +0.140 A 
ATOM     22  C   UNL A   1     -24.181  -3.130  29.127  0.00  0.00    +0.031 A 
ATOM     23  C   UNL A   1     -25.128  -2.440  29.758  0.00  0.00    +0.016 A 
ATOM     24  F   UNL A   1     -23.431  -5.150  28.172  0.00  0.00    -0.204 F 
ENDBRANCH   1  23
TORSDOF 1
ENDMDL
ENDMDL
