REMARK  Name = No_3531-gen_results/8p0m/2024-11-26-14-13-15/
REMARK  1 active torsions:
REMARK  status: ('A' for Active; 'I' for Inactive)
REMARK    1  A    between atoms: C_7  and  C_9
REMARK                            x       y       z     vdW  Elec       q    Type
REMARK                         _______ _______ _______ _____ _____    ______ ____
ROOT
ATOM      1  C   UNL A   1     -27.846   1.199  26.886  0.00  0.00    +0.043 A 
ATOM      2  C   UNL A   1     -27.575   1.022  25.609  0.00  0.00    +0.141 A 
ATOM      3  C   UNL A   1     -28.635   1.031  24.627  0.00  0.00    +0.030 A 
ATOM      4  C   UNL A   1     -29.926   1.279  25.012  0.00  0.00    +0.008 A 
ATOM      5  C   UNL A   1     -30.173   1.496  26.373  0.00  0.00    +0.069 A 
ATOM      6  C   UNL A   1     -29.162   1.387  27.332  0.00  0.00    +0.074 A 
ATOM      7  F   UNL A   1     -26.354   0.729  25.125  0.00  0.00    -0.204 F 
ATOM      8  C   UNL A   1     -31.548   1.809  26.803  0.00  0.00    +0.251 C 
ATOM      9  O   UNL A   1     -32.521   1.761  26.234  0.00  0.00    -0.270 OA
ATOM     10  N   UNL A   1     -31.646   2.209  28.203  0.00  0.00    -0.260 N 
ATOM     11  C   UNL A   1     -32.907   2.533  28.807  0.00  0.00    +0.095 C 
ATOM     12  C   UNL A   1     -33.092   2.739  29.780  0.00  0.00    +0.022 C 
ATOM     13  C   UNL A   1     -31.909   2.814  30.748  0.00  0.00    +0.005 C 
ATOM     14  C   UNL A   1     -30.634   2.518  30.252  0.00  0.00    +0.042 C 
ATOM     15  C   UNL A   1     -30.536   2.199  28.984  0.00  0.00    +0.169 C 
ATOM     16  N   UNL A   1     -29.348   1.849  28.480  0.00  0.00    -0.219 NA
ENDROOT
BRANCH   1  23
ATOM     17 CL   UNL A   1     -28.149  -0.820  28.908  0.00  0.00    -0.082 Cl
ATOM     18  C   UNL A   1     -26.912  -0.080  28.945  0.00  0.00    +0.058 A 
ATOM     19  C   UNL A   1     -25.966  -0.212  29.623  0.00  0.00    +0.014 A 
ATOM     20  C   UNL A   1     -24.704   0.553  29.622  0.00  0.00    +0.030 A 
ATOM     21  C   UNL A   1     -24.601   1.544  28.621  0.00  0.00    +0.140 A 
ATOM     22  C   UNL A   1     -25.667   1.716  27.803  0.00  0.00    +0.031 A 
ATOM     23  C   UNL A   1     -26.761   0.962  27.884  0.00  0.00    +0.016 A 
ATOM     24  F   UNL A   1     -23.525   2.284  28.605  0.00  0.00    -0.204 F 
ENDBRANCH   1  23
TORSDOF 1
