REMARK  Name = No_3532-gen_results/8p0m/2024-11-26-14-13-15/
REMARK  7 active torsions:
REMARK  status: ('A' for Active; 'I' for Inactive)
REMARK    1  A    between atoms: C_4  and  C_11
REMARK    2  A    between atoms: C_11  and  C_12
REMARK    3  A    between atoms: C_11  and  C_13
REMARK    4  A    between atoms: C_12  and  C_16
REMARK    5  A    between atoms: C_13  and  C_14
REMARK    6  A    between atoms: C_14  and  C_15
REMARK    7  A    between atoms: C_16  and  C_17
REMARK                            x       y       z     vdW  Elec       q    Type
REMARK                         _______ _______ _______ _____ _____    ______ ____
ROOT
ATOM      1  C   UNL A   1     -24.645   1.658  27.946  0.00  0.00    +0.025 C 
ENDROOT
BRANCH   1   5
ATOM      2  C   UNL A   1     -28.016  -0.814  28.878  0.00  0.00    -0.000 A 
ATOM      3  C   UNL A   1     -27.064  -0.119  28.608  0.00  0.00    -0.000 A 
ATOM      4  C   UNL A   1     -25.765  -0.390  29.036  0.00  0.00    -0.004 A 
ATOM      5  C   UNL A   1     -24.552   0.406  28.765  0.00  0.00    -0.022 A 
ATOM      6  C   UNL A   1     -23.230   0.118  29.258  0.00  0.00    -0.004 A 
ATOM      7  C   UNL A   1     -23.094  -1.131  29.873  0.00  0.00    -0.000 A 
ATOM      8  C   UNL A   1     -27.798  -1.934  29.856  0.00  0.00    -0.000 A 
ATOM      9  C   UNL A   1     -26.542  -2.327  30.258  0.00  0.00    -0.000 A 
ATOM     10  C   UNL A   1     -25.451  -1.552  29.908  0.00  0.00    -0.000 A 
ATOM     11  C   UNL A   1     -24.156  -1.910  30.281  0.00  0.00    -0.000 A 
ENDBRANCH   1   5
BRANCH   1  12
ATOM     12  C   UNL A   1     -25.076   1.578  26.699  0.00  0.00    +0.040 C 
BRANCH  12  13
ATOM     13  C   UNL A   1     -25.255   2.875  25.940  0.00  0.00    +0.185 C 
ATOM     14  O   UNL A   1     -25.752   2.629  24.722  0.00  0.00    -0.220 OA
BRANCH  13  15
ATOM     15  C   UNL A   1     -23.795   3.461  26.028  0.00  0.00    +0.215 C 
ATOM     16  O   UNL A   1     -24.314   3.143  25.569  0.00  0.00    -0.218 OA
ENDBRANCH  13  15
ENDBRANCH  12  13
ENDBRANCH   1  12
BRANCH   1  17
ATOM     17  C   UNL A   1     -25.385   2.704  28.745  0.00  0.00    +0.004 C 
BRANCH  17  18
ATOM     18  C   UNL A   1     -25.669   3.931  28.097  0.00  0.00    +0.000 C 
BRANCH  18  19
ATOM     19  C   UNL A   1     -26.050   3.790  26.726  0.00  0.00    +0.000 C 
ATOM     20  C   UNL A   1     -26.262   5.131  26.048  0.00  0.00    +0.000 C 
ATOM     21  C   UNL A   1     -27.545   3.166  26.697  0.00  0.00    +0.000 C 
ENDBRANCH  18  19
ENDBRANCH  17  18
ENDBRANCH   1  17
TORSDOF 7
