MODEL 3532
MODEL 1
REMARK VINA RESULT:    -6.960      0.000      0.000
REMARK INTER + INTRA:         -10.936
REMARK INTER:                  -9.401
REMARK INTRA:                  -1.536
REMARK UNBOUND:                -1.536
REMARK  Name = No_3532-gen_results/8p0m/2024-11-26-14-13-15/
REMARK  7 active torsions:
REMARK  status: ('A' for Active; 'I' for Inactive)
REMARK    1  A    between atoms: C_4  and  C_11
REMARK    2  A    between atoms: C_11  and  C_12
REMARK    3  A    between atoms: C_11  and  C_13
REMARK    4  A    between atoms: C_12  and  C_16
REMARK    5  A    between atoms: C_13  and  C_14
REMARK    6  A    between atoms: C_14  and  C_15
REMARK    7  A    between atoms: C_16  and  C_17
REMARK                            x       y       z     vdW  Elec       q    Type
REMARK                         _______ _______ _______ _____ _____    ______ ____
ROOT
ATOM      1  C   UNL A   1     -24.732  -1.681  29.145  0.00  0.00    +0.025 C 
ENDROOT
BRANCH   1   5
ATOM      2  C   UNL A   1     -25.458   1.530  26.405  0.00  0.00    -0.000 A 
ATOM      3  C   UNL A   1     -25.256   0.627  27.184  0.00  0.00    -0.000 A 
ATOM      4  C   UNL A   1     -24.002   0.336  27.719  0.00  0.00    -0.004 A 
ATOM      5  C   UNL A   1     -23.664  -0.748  28.662  0.00  0.00    -0.022 A 
ATOM      6  C   UNL A   1     -22.347  -1.045  29.163  0.00  0.00    -0.004 A 
ATOM      7  C   UNL A   1     -21.375  -0.084  28.863  0.00  0.00    -0.000 A 
ATOM      8  C   UNL A   1     -24.260   2.265  25.874  0.00  0.00    -0.000 A 
ATOM      9  C   UNL A   1     -23.002   2.106  26.409  0.00  0.00    -0.000 A 
ATOM     10  C   UNL A   1     -22.787   1.100  27.333  0.00  0.00    -0.000 A 
ATOM     11  C   UNL A   1     -21.534   0.902  27.913  0.00  0.00    -0.000 A 
ENDBRANCH   1   5
BRANCH   1  12
ATOM     12  C   UNL A   1     -24.918  -2.826  28.510  0.00  0.00    +0.040 C 
BRANCH  12  13
ATOM     13  C   UNL A   1     -24.478  -4.091  29.214  0.00  0.00    +0.185 C 
ATOM     14  O   UNL A   1     -23.526  -4.705  28.501  0.00  0.00    -0.220 OA
BRANCH  13  15
ATOM     15  C   UNL A   1     -25.863  -4.827  29.370  0.00  0.00    +0.215 C 
ATOM     16  O   UNL A   1     -25.126  -4.913  29.195  0.00  0.00    -0.218 OA
ENDBRANCH  13  15
ENDBRANCH  12  13
ENDBRANCH   1  12
BRANCH   1  17
ATOM     17  C   UNL A   1     -24.573  -1.868  30.635  0.00  0.00    +0.004 C 
BRANCH  17  18
ATOM     18  C   UNL A   1     -25.397  -1.081  31.476  0.00  0.00    +0.000 C 
BRANCH  18  19
ATOM     19  C   UNL A   1     -24.673  -0.249  32.386  0.00  0.00    +0.000 C 
ATOM     20  C   UNL A   1     -24.211   1.043  31.739  0.00  0.00    +0.000 C 
ATOM     21  C   UNL A   1     -23.263  -0.983  32.701  0.00  0.00    +0.000 C 
ENDBRANCH  18  19
ENDBRANCH  17  18
ENDBRANCH   1  17
TORSDOF 7
ENDMDL
ENDMDL
