MODEL 3533
MODEL 1
REMARK VINA RESULT:    -6.170      0.000      0.000
REMARK INTER + INTRA:          -7.367
REMARK INTER:                  -6.892
REMARK INTRA:                  -0.475
REMARK UNBOUND:                -0.475
REMARK  Name = No_3533-gen_results/8p0m/2024-11-26-14-13-15/
REMARK  2 active torsions:
REMARK  status: ('A' for Active; 'I' for Inactive)
REMARK    1  A    between atoms: C_3  and  C_7
REMARK    2  A    between atoms: N_8  and  C_10
REMARK                            x       y       z     vdW  Elec       q    Type
REMARK                         _______ _______ _______ _____ _____    ______ ____
ROOT
ATOM      1  C   UNL A   1     -24.896  -1.077  28.508  0.00  0.00    +0.269 C 
ATOM      2  N   UNL A   1     -24.441  -0.317  29.418  0.00  0.00    -0.175 NA
ATOM      3  O   UNL A   1     -25.135  -0.661  27.352  0.00  0.00    -0.268 OA
ENDROOT
BRANCH   1   6
ATOM      4  C   UNL A   1     -26.227  -3.022  29.552  0.00  0.00    +0.005 A 
ATOM      5  C   UNL A   1     -26.216  -4.065  29.706  0.00  0.00    +0.000 A 
ATOM      6  C   UNL A   1     -25.044  -2.520  28.854  0.00  0.00    +0.055 A 
ATOM      7  C   UNL A   1     -24.038  -3.353  28.431  0.00  0.00    +0.005 A 
ATOM      8  C   UNL A   1     -25.314  -5.168  29.374  0.00  0.00    +0.000 A 
ATOM      9  C   UNL A   1     -24.165  -4.692  28.697  0.00  0.00    +0.000 A 
ENDBRANCH   1   6
BRANCH   2  10
ATOM     10  C   UNL A   1     -24.187  -0.653  30.817  0.00  0.00    +0.074 A 
ATOM     11  C   UNL A   1     -23.038  -1.091  31.233  0.00  0.00    +0.017 A 
ATOM     12  C   UNL A   1     -22.838  -1.274  32.619  0.00  0.00    +0.001 A 
ATOM     13  C   UNL A   1     -23.900  -1.058  33.504  0.00  0.00    +0.000 A 
ATOM     14  C   UNL A   1     -25.253  -0.338  31.767  0.00  0.00    +0.017 A 
ATOM     15  C   UNL A   1     -25.073  -0.606  33.094  0.00  0.00    +0.001 A 
ENDBRANCH   2  10
TORSDOF 2
ENDMDL
ENDMDL
