REMARK  Name = No_3533-gen_results/8p0m/2024-11-26-14-13-15/
REMARK  2 active torsions:
REMARK  status: ('A' for Active; 'I' for Inactive)
REMARK    1  A    between atoms: C_3  and  C_7
REMARK    2  A    between atoms: N_8  and  C_10
REMARK                            x       y       z     vdW  Elec       q    Type
REMARK                         _______ _______ _______ _____ _____    ______ ____
ROOT
ATOM      1  C   UNL A   1     -26.317   0.399  27.365  0.00  0.00    +0.269 C 
ATOM      2  N   UNL A   1     -25.072   0.157  27.430  0.00  0.00    -0.175 NA
ATOM      3  O   UNL A   1     -26.893   0.638  26.280  0.00  0.00    -0.268 OA
ENDROOT
BRANCH   1   6
ATOM      4  C   UNL A   1     -28.016  -0.814  28.878  0.00  0.00    +0.005 A 
ATOM      5  C   UNL A   1     -28.469  -0.785  29.829  0.00  0.00    +0.000 A 
ATOM      6  C   UNL A   1     -27.087   0.290  28.638  0.00  0.00    +0.055 A 
ATOM      7  C   UNL A   1     -26.832   1.249  29.587  0.00  0.00    +0.005 A 
ATOM      8  C   UNL A   1     -28.391   0.080  31.006  0.00  0.00    +0.000 A 
ATOM      9  C   UNL A   1     -27.494   1.152  30.784  0.00  0.00    +0.000 A 
ENDBRANCH   1   6
BRANCH   2  10
ATOM     10  C   UNL A   1     -24.268  -0.066  28.629  0.00  0.00    +0.074 A 
ATOM     11  C   UNL A   1     -23.946  -1.253  29.044  0.00  0.00    +0.017 A 
ATOM     12  C   UNL A   1     -23.063  -1.377  30.139  0.00  0.00    +0.001 A 
ATOM     13  C   UNL A   1     -22.619  -0.228  30.802  0.00  0.00    +0.000 A 
ATOM     14  C   UNL A   1     -23.714   1.125  29.273  0.00  0.00    +0.017 A 
ATOM     15  C   UNL A   1     -22.935   0.987  30.386  0.00  0.00    +0.001 A 
ENDBRANCH   2  10
TORSDOF 2
