MODEL 3534
MODEL 1
REMARK VINA RESULT:    -4.995      0.000      0.000
REMARK INTER + INTRA:          -5.460
REMARK INTER:                  -5.287
REMARK INTRA:                  -0.174
REMARK UNBOUND:                -0.174
REMARK  Name = No_3534-gen_results/8p0m/2024-11-26-14-13-15/
REMARK  1 active torsions:
REMARK  status: ('A' for Active; 'I' for Inactive)
REMARK    1  A    between atoms: C_6  and  C_8
REMARK                            x       y       z     vdW  Elec       q    Type
REMARK                         _______ _______ _______ _____ _____    ______ ____
ROOT
ATOM      1  C   UNL A   1     -21.853   1.408  27.777  0.00  0.00    +0.005 A 
ATOM      2  C   UNL A   1     -22.382   2.227  27.062  0.00  0.00    +0.011 A 
ATOM      3  C   UNL A   1     -23.740   2.212  26.745  0.00  0.00    +0.058 A 
ATOM      4  C   UNL A   1     -24.569   1.131  27.243  0.00  0.00    +0.011 A 
ATOM      5  C   UNL A   1     -23.881   0.208  28.063  0.00  0.00    +0.005 A 
ATOM      6  C   UNL A   1     -22.597   0.301  28.300  0.00  0.00    +0.071 A 
ATOM      7 CL   UNL A   1     -24.539   3.349  25.741  0.00  0.00    -0.082 Cl
ENDROOT
BRANCH   6   8
ATOM      8  C   UNL A   1     -21.984  -0.780  29.142  0.00  0.00    +0.419 C 
ATOM      9  F   UNL A   1     -21.993  -0.472  30.450  0.00  0.00    -0.166 F 
ATOM     10  F   UNL A   1     -22.684  -1.892  28.988  0.00  0.00    -0.166 F 
ATOM     11  F   UNL A   1     -20.706  -0.985  28.809  0.00  0.00    -0.166 F 
ENDBRANCH   6   8
TORSDOF 1
ENDMDL
ENDMDL
