MODEL 3535
MODEL 1
REMARK VINA RESULT:    -5.959      0.000      0.000
REMARK INTER + INTRA:          -7.898
REMARK INTER:                  -7.353
REMARK INTRA:                  -0.546
REMARK UNBOUND:                -0.546
REMARK  Name = No_3535-gen_results/8p0m/2024-11-26-14-13-15/
REMARK  4 active torsions:
REMARK  status: ('A' for Active; 'I' for Inactive)
REMARK    1  A    between atoms: C_3  and  C_7
REMARK    2  A    between atoms: C_7  and  C_8
REMARK    3  A    between atoms: C_9  and  C_10
REMARK    4  A    between atoms: C_10  and  C_11
REMARK                            x       y       z     vdW  Elec       q    Type
REMARK                         _______ _______ _______ _____ _____    ______ ____
ROOT
ATOM      1  C   UNL A   1     -25.581  -1.514  28.928  0.00  0.00    +0.052 C 
ENDROOT
BRANCH   1   4
ATOM      2  C   UNL A   1     -26.244  -3.854  29.652  0.00  0.00    -0.004 A 
ATOM      3  C   UNL A   1     -26.064  -4.891  29.613  0.00  0.00    -0.000 A 
ATOM      4  C   UNL A   1     -25.289  -3.019  28.981  0.00  0.00    -0.018 A 
ATOM      5  C   UNL A   1     -24.143  -3.484  28.474  0.00  0.00    -0.004 A 
ATOM      6  C   UNL A   1     -24.891  -5.611  29.139  0.00  0.00    -0.000 A 
ATOM      7  C   UNL A   1     -23.987  -4.850  28.536  0.00  0.00    -0.000 A 
ENDBRANCH   1   4
BRANCH   1   8
ATOM      8  C   UNL A   1     -24.839  -0.708  27.975  0.00  0.00    -0.026 C 
ATOM      9  C   UNL A   1     -25.409  -0.235  26.827  0.00  0.00    -0.026 C 
BRANCH   9  10
ATOM     10  C   UNL A   1     -24.625   0.485  25.883  0.00  0.00    +0.051 C 
BRANCH  10  11
ATOM     11  C   UNL A   1     -24.647   1.926  25.886  0.00  0.00    -0.026 C 
ATOM     12  C   UNL A   1     -23.492   2.625  26.234  0.00  0.00    -0.030 C 
ATOM     13  C   UNL A   1     -22.476   1.955  26.867  0.00  0.00    +0.030 C 
ENDBRANCH  10  11
ENDBRANCH   9  10
ENDBRANCH   1   8
TORSDOF 4
ENDMDL
ENDMDL
