REMARK  Name = No_3537-gen_results/8p0m/2024-11-26-14-13-15/
REMARK  7 active torsions:
REMARK  status: ('A' for Active; 'I' for Inactive)
REMARK    1  A    between atoms: C_5  and  C_11
REMARK    2  A    between atoms: C_7  and  C_18
REMARK    3  A    between atoms: C_8  and  C_14
REMARK    4  A    between atoms: C_18  and  O_20
REMARK    5  A    between atoms: O_20  and  C_21
REMARK    6  A    between atoms: C_21  and  C_32
REMARK    7  A    between atoms: C_32  and  C_33
REMARK                            x       y       z     vdW  Elec       q    Type
REMARK                         _______ _______ _______ _____ _____    ______ ____
ROOT
ATOM      1  C   UNL A   1     -28.016  -0.814  28.878  0.00  0.00    +0.005 A 
ATOM      2  C   UNL A   1     -27.064  -0.119  28.608  0.00  0.00    +0.006 A 
ATOM      3  C   UNL A   1     -25.792  -0.430  29.076  0.00  0.00    +0.000 A 
ATOM      4  C   UNL A   1     -24.546   0.349  28.823  0.00  0.00    +0.005 A 
ATOM      5  C   UNL A   1     -24.659   1.420  27.888  0.00  0.00    +0.057 A 
ATOM      6  C   UNL A   1     -25.947   1.681  27.379  0.00  0.00    +0.011 A 
ATOM      7  C   UNL A   1     -27.044   0.974  27.687  0.00  0.00    +0.076 A 
ATOM      8  C   UNL A   1     -28.024  -1.647  30.126  0.00  0.00    +0.054 A 
ATOM      9  C   UNL A   1     -26.728  -2.085  30.581  0.00  0.00    +0.004 A 
ATOM     10  C   UNL A   1     -25.591  -1.406  30.149  0.00  0.00    +0.000 A 
ENDROOT
BRANCH   8  11
ATOM     11  C   UNL A   1     -29.165  -2.466  30.539  0.00  0.00    +0.253 C 
ATOM     12  O   UNL A   1     -29.106  -3.625  30.878  0.00  0.00    -0.270 OA
ATOM     13  N   UNL A   1     -30.220  -1.723  30.958  0.00  0.00    -0.254 N 
ATOM     14  C   UNL A   1     -31.426  -2.388  31.502  0.00  0.00    +0.036 C 
ATOM     15  C   UNL A   1     -30.407  -0.284  30.759  0.00  0.00    +0.124 C 
ATOM     16  C   UNL A   1     -31.394   0.118  29.930  0.00  0.00    -0.006 A 
ATOM     17  C   UNL A   1     -31.394   1.207  29.517  0.00  0.00    -0.003 A 
ATOM     18  C   UNL A   1     -32.483   1.676  28.600  0.00  0.00    -0.000 A 
ATOM     19  C   UNL A   1     -33.429   0.743  28.248  0.00  0.00    -0.000 A 
ATOM     20  C   UNL A   1     -33.358  -0.542  28.734  0.00  0.00    -0.004 A 
ATOM     21  C   UNL A   1     -32.377  -0.844  29.555  0.00  0.00    -0.019 A 
ATOM     22  C   UNL A   1     -31.370  -3.191  32.342  0.00  0.00    +0.012 C 
ATOM     23  C   UNL A   1     -32.668  -1.768  30.917  0.00  0.00    +0.068 C 
ENDBRANCH   8  11
BRANCH   5  24
ATOM     24  C   UNL A   1     -23.450   2.179  27.529  0.00  0.00    +0.284 C 
ATOM     25  O   UNL A   1     -23.593   3.185  26.864  0.00  0.00    -0.267 OA
ATOM     26  N   UNL A   1     -22.209   1.783  27.916  0.00  0.00    -0.084 NA
ENDBRANCH   5  24
BRANCH   7  27
ATOM     27  C   UNL A   1     -28.339   1.356  27.041  0.00  0.00    +0.345 C 
ATOM     28  O   UNL A   1     -29.096   2.026  27.533  0.00  0.00    -0.244 OA
BRANCH  27  29
ATOM     29  O   UNL A   1     -28.601   0.492  25.942  0.00  0.00    -0.425 OA
BRANCH  29  30
ATOM     30  C   UNL A   1     -29.393   1.035  24.933  0.00  0.00    +0.126 C 
ATOM     31  C   UNL A   1     -29.163   2.007  24.429  0.00  0.00    +0.008 C 
ATOM     32  C   UNL A   1     -27.874   2.787  24.641  0.00  0.00    +0.034 C 
BRANCH  30  33
ATOM     33  C   UNL A   1     -30.647   0.348  24.724  0.00  0.00    +0.090 C 
BRANCH  33  34
ATOM     34  C   UNL A   1     -31.558   0.793  23.797  0.00  0.00    -0.018 C 
ATOM     35  C   UNL A   1     -31.251   1.972  23.125  0.00  0.00    -0.004 C 
ENDBRANCH  33  34
ENDBRANCH  30  33
ENDBRANCH  29  30
ENDBRANCH  27  29
ENDBRANCH   7  27
TORSDOF 7
