MODEL 3538
MODEL 1
REMARK VINA RESULT:    -5.872      0.000      0.000
REMARK INTER + INTRA:         -10.938
REMARK INTER:                  -8.618
REMARK INTRA:                  -2.320
REMARK UNBOUND:                -2.320
REMARK  Name = No_3538-gen_results/8p0m/2024-11-26-14-13-15/
REMARK  8 active torsions:
REMARK  status: ('A' for Active; 'I' for Inactive)
REMARK    1  A    between atoms: C_3  and  C_8
REMARK    2  A    between atoms: C_6  and  O_7
REMARK    3  A    between atoms: O_7  and  C_14
REMARK    4  A    between atoms: C_14  and  P_15
REMARK    5  A    between atoms: C_14  and  N_19
REMARK    6  A    between atoms: N_19  and  C_20
REMARK    7  A    between atoms: C_21  and  C_22
REMARK    8  A    between atoms: C_23  and  C_24
REMARK                            x       y       z     vdW  Elec       q    Type
REMARK                         _______ _______ _______ _____ _____    ______ ____
ROOT
ATOM      1  O   UNL A   1      -9.958   2.394  33.579  0.00  0.00    -0.453 OA
ENDROOT
BRANCH   1   7
ATOM      2  C   UNL A   1     -12.301   1.803  34.050  0.00  0.00    +0.037 A 
ATOM      3  C   UNL A   1     -13.298   1.925  34.722  0.00  0.00    +0.003 A 
ATOM      4  C   UNL A   1     -13.374   2.882  35.729  0.00  0.00    +0.000 A 
ATOM      5  C   UNL A   1     -12.248   3.726  36.034  0.00  0.00    +0.003 A 
ATOM      6  C   UNL A   1     -11.127   3.502  35.225  0.00  0.00    +0.037 A 
ATOM      7  C   UNL A   1     -11.101   2.573  34.296  0.00  0.00    +0.141 A 
BRANCH   4   8
ATOM      8  C   UNL A   1     -14.562   3.138  36.624  0.00  0.00    +0.000 A 
ATOM      9  C   UNL A   1     -15.675   3.647  36.127  0.00  0.00    +0.000 A 
ATOM     10  C   UNL A   1     -16.781   3.959  37.001  0.00  0.00    +0.000 A 
ATOM     11  C   UNL A   1     -16.669   3.844  38.398  0.00  0.00    +0.000 A 
ATOM     12  C   UNL A   1     -14.438   3.046  38.045  0.00  0.00    +0.000 A 
ATOM     13  C   UNL A   1     -15.537   3.377  38.903  0.00  0.00    +0.000 A 
ENDBRANCH   4   8
ENDBRANCH   1   7
BRANCH   1  14
ATOM     14  C   UNL A   1      -8.751   2.364  34.174  0.00  0.00    +0.312 C 
BRANCH  14  15
ATOM     15  P   UNL A   1      -7.634   3.339  33.444  0.00  0.00    +0.180 P 
ATOM     16  O   UNL A   1      -6.543   3.012  33.472  0.00  0.00    -0.353 OA
ATOM     17  O   UNL A   1      -7.875   4.707  34.149  0.00  0.00    -0.353 OA
ATOM     18  O   UNL A   1      -8.331   3.431  32.005  0.00  0.00    -0.455 OA
ENDBRANCH  14  15
BRANCH  14  19
ATOM     19  N   UNL A   1      -8.346   0.968  34.261  0.00  0.00    -0.192 NA
BRANCH  19  20
ATOM     20  C   UNL A   1      -8.274   0.193  35.006  0.00  0.00    +0.084 C 
ATOM     21  C   UNL A   1      -9.076   0.238  36.208  0.00  0.00    +0.018 C 
BRANCH  21  22
ATOM     22  C   UNL A   1      -9.649  -0.760  36.793  0.00  0.00    +0.001 C 
ATOM     23  C   UNL A   1     -10.825  -0.655  37.550  0.00  0.00    +0.000 C 
BRANCH  23  24
ATOM     24  C   UNL A   1     -11.467   0.575  37.716  0.00  0.00    +0.000 C 
ATOM     25  C   UNL A   1     -11.518   1.085  38.964  0.00  0.00    +0.000 C 
ENDBRANCH  23  24
ENDBRANCH  21  22
ENDBRANCH  19  20
ENDBRANCH  14  19
ENDBRANCH   1  14
TORSDOF 8
ENDMDL
ENDMDL
