REMARK  Name = No_3538-gen_results/8p0m/2024-11-26-14-13-15/
REMARK  8 active torsions:
REMARK  status: ('A' for Active; 'I' for Inactive)
REMARK    1  A    between atoms: C_3  and  C_8
REMARK    2  A    between atoms: C_6  and  O_7
REMARK    3  A    between atoms: O_7  and  C_14
REMARK    4  A    between atoms: C_14  and  P_15
REMARK    5  A    between atoms: C_14  and  N_19
REMARK    6  A    between atoms: N_19  and  C_20
REMARK    7  A    between atoms: C_21  and  C_22
REMARK    8  A    between atoms: C_23  and  C_24
REMARK                            x       y       z     vdW  Elec       q    Type
REMARK                         _______ _______ _______ _____ _____    ______ ____
ROOT
ATOM      1  O   UNL A   1     -29.000  -2.701  30.115  0.00  0.00    -0.453 OA
ENDROOT
BRANCH   1   7
ATOM      2  C   UNL A   1     -28.016  -0.814  28.878  0.00  0.00    +0.037 A 
ATOM      3  C   UNL A   1     -27.064  -0.119  28.608  0.00  0.00    +0.003 A 
ATOM      4  C   UNL A   1     -25.792  -0.430  29.076  0.00  0.00    +0.000 A 
ATOM      5  C   UNL A   1     -25.576  -1.565  29.936  0.00  0.00    +0.003 A 
ATOM      6  C   UNL A   1     -26.735  -2.300  30.217  0.00  0.00    +0.037 A 
ATOM      7  C   UNL A   1     -27.918  -1.954  29.763  0.00  0.00    +0.141 A 
BRANCH   4   8
ATOM      8  C   UNL A   1     -24.529   0.349  28.800  0.00  0.00    +0.000 A 
ATOM      9  C   UNL A   1     -24.481   1.211  27.800  0.00  0.00    +0.000 A 
ATOM     10  C   UNL A   1     -23.248   1.897  27.495  0.00  0.00    +0.000 A 
ATOM     11  C   UNL A   1     -22.050   1.589  28.164  0.00  0.00    +0.000 A 
ATOM     12  C   UNL A   1     -23.307   0.015  29.462  0.00  0.00    +0.000 A 
ATOM     13  C   UNL A   1     -22.085   0.690  29.137  0.00  0.00    +0.000 A 
ENDBRANCH   4   8
ENDBRANCH   1   7
BRANCH   1  14
ATOM     14  C   UNL A   1     -30.127  -2.132  30.581  0.00  0.00    +0.312 C 
BRANCH  14  15
ATOM     15  P   UNL A   1     -30.798  -2.947  31.853  0.00  0.00    +0.180 P 
ATOM     16  O   UNL A   1     -31.725  -2.501  32.341  0.00  0.00    -0.353 OA
ATOM     17  O   UNL A   1     -29.597  -3.074  32.837  0.00  0.00    -0.353 OA
ATOM     18  O   UNL A   1     -30.962  -4.371  31.138  0.00  0.00    -0.455 OA
ENDBRANCH  14  15
BRANCH  14  19
ATOM     19  N   UNL A   1     -31.027  -1.965  29.449  0.00  0.00    -0.192 NA
BRANCH  19  20
ATOM     20  C   UNL A   1     -31.830  -2.500  28.970  0.00  0.00    +0.084 C 
ATOM     21  C   UNL A   1     -32.388  -2.042  27.717  0.00  0.00    +0.018 C 
BRANCH  21  22
ATOM     22  C   UNL A   1     -32.759  -2.775  26.722  0.00  0.00    +0.001 C 
ATOM     23  C   UNL A   1     -32.889  -2.305  25.407  0.00  0.00    +0.000 C 
BRANCH  23  24
ATOM     24  C   UNL A   1     -32.609  -0.974  25.087  0.00  0.00    +0.000 C 
ATOM     25  C   UNL A   1     -32.203  -0.167  26.089  0.00  0.00    +0.000 C 
ENDBRANCH  23  24
ENDBRANCH  21  22
ENDBRANCH  19  20
ENDBRANCH  14  19
ENDBRANCH   1  14
TORSDOF 8
