MODEL 3539
MODEL 1
REMARK VINA RESULT:    -5.484      0.000      0.000
REMARK INTER + INTRA:          -6.371
REMARK INTER:                  -6.125
REMARK INTRA:                  -0.245
REMARK UNBOUND:                -0.245
REMARK  Name = No_3539-gen_results/8p0m/2024-11-26-14-13-15/
REMARK  2 active torsions:
REMARK  status: ('A' for Active; 'I' for Inactive)
REMARK    1  A    between atoms: C_3  and  C_4
REMARK    2  A    between atoms: C_4  and  C_8
REMARK                            x       y       z     vdW  Elec       q    Type
REMARK                         _______ _______ _______ _____ _____    ______ ____
ROOT
ATOM      1  C   UNL A   1     -26.400  -3.415  29.921  0.00  0.00    -0.000 A 
ATOM      2  C   UNL A   1     -25.530  -2.582  29.820  0.00  0.00    -0.004 A 
ATOM      3  C   UNL A   1     -24.311  -2.885  29.223  0.00  0.00    -0.018 A 
ATOM      4  C   UNL A   1     -26.108  -4.820  29.633  0.00  0.00    -0.000 A 
ATOM      5  C   UNL A   1     -24.975  -5.196  28.956  0.00  0.00    -0.000 A 
ATOM      6  C   UNL A   1     -24.007  -4.213  28.738  0.00  0.00    -0.004 A 
ENDROOT
BRANCH   3   7
ATOM      7  C   UNL A   1     -23.285  -1.927  29.015  0.00  0.00    +0.052 C 
BRANCH   7   8
ATOM      8  C   UNL A   1     -23.514  -0.606  28.818  0.00  0.00    -0.026 C 
ATOM      9  C   UNL A   1     -22.445   0.314  28.658  0.00  0.00    -0.030 C 
ATOM     10  C   UNL A   1     -21.119  -0.071  28.638  0.00  0.00    +0.030 C 
ENDBRANCH   7   8
ENDBRANCH   3   7
TORSDOF 2
ENDMDL
ENDMDL
