MODEL 353
MODEL 1
REMARK VINA RESULT:    -4.485      0.000      0.000
REMARK INTER + INTRA:          -4.485
REMARK INTER:                  -4.485
REMARK INTRA:                   0.000
REMARK UNBOUND:                 0.000
REMARK  Name = No_353-gen_results/8p0m/2024-11-26-14-13-15/
REMARK  0 active torsions:
REMARK  status: ('A' for Active; 'I' for Inactive)
REMARK                            x       y       z     vdW  Elec       q    Type
REMARK                         _______ _______ _______ _____ _____    ______ ____
ROOT
ATOM      1  C   UNL A   1     -26.317  -3.419  29.935  0.00  0.00    +0.002 A 
ATOM      2  C   UNL A   1     -26.215  -4.584  29.626  0.00  0.00    +0.030 A 
ATOM      3  C   UNL A   1     -25.086  -5.122  29.009  0.00  0.00    +0.140 A 
ATOM      4  C   UNL A   1     -23.987  -4.243  28.658  0.00  0.00    +0.030 A 
ATOM      5  C   UNL A   1     -24.181  -2.897  29.041  0.00  0.00    +0.002 A 
ATOM      6  C   UNL A   1     -25.283  -2.482  29.613  0.00  0.00    +0.000 A 
ATOM      7  F   UNL A   1     -24.946  -6.391  28.639  0.00  0.00    -0.204 F 
ENDROOT
TORSDOF 0
ENDMDL
ENDMDL
