REMARK  Name = No_354-gen_results/8p0m/2024-11-26-14-13-15/
REMARK  2 active torsions:
REMARK  status: ('A' for Active; 'I' for Inactive)
REMARK    1  A    between atoms: C_3  and  C_4
REMARK    2  A    between atoms: C_5  and  C_6
REMARK                            x       y       z     vdW  Elec       q    Type
REMARK                         _______ _______ _______ _____ _____    ______ ____
ROOT
ATOM      1  C   UNL A   1     -25.905  -1.367  30.620  0.00  0.00    -0.003 C 
ATOM      2  C   UNL A   1     -27.101  -2.160  30.565  0.00  0.00    -0.014 C 
ENDROOT
BRANCH   1   5
ATOM      3 CL   UNL A   1     -28.149  -0.820  28.908  0.00  0.00    -0.081 Cl
ATOM      4  C   UNL A   1     -26.912  -0.080  28.945  0.00  0.00    +0.068 C 
ATOM      5  C   UNL A   1     -25.966  -0.212  29.623  0.00  0.00    +0.012 C 
ENDBRANCH   1   5
BRANCH   2   6
ATOM      6  C   UNL A   1     -28.117  -1.922  29.850  0.00  0.00    +0.093 C 
ATOM      7 BR   UNL A   1     -29.684  -2.905  29.938  0.00  0.00    -0.076 Br
ENDBRANCH   2   6
TORSDOF 2
