REMARK  Name = No_3540-gen_results/8p0m/2024-11-26-14-13-15/
REMARK  2 active torsions:
REMARK  status: ('A' for Active; 'I' for Inactive)
REMARK    1  A    between atoms: C_5  and  C_14
REMARK    2  A    between atoms: C_7  and  C_8
REMARK                            x       y       z     vdW  Elec       q    Type
REMARK                         _______ _______ _______ _____ _____    ______ ____
ROOT
ATOM      1  F   UNL A   1     -28.073  -1.254  28.532  0.00  0.00    -0.204 F 
ATOM      2  C   UNL A   1     -27.359  -0.379  28.722  0.00  0.00    +0.140 A 
ATOM      3  C   UNL A   1     -26.332  -0.644  29.452  0.00  0.00    +0.030 A 
ATOM      4  C   UNL A   1     -25.256   0.320  29.782  0.00  0.00    +0.009 A 
ATOM      5  C   UNL A   1     -25.424   1.627  29.203  0.00  0.00    +0.080 A 
ATOM      6  C   UNL A   1     -26.526   1.825  28.403  0.00  0.00    +0.009 A 
ATOM      7  C   UNL A   1     -27.451   0.860  28.136  0.00  0.00    +0.028 A 
ENDROOT
BRANCH   7   8
ATOM      8  C   UNL A   1     -28.536   1.200  27.252  0.00  0.00    +0.002 A 
ATOM      9  C   UNL A   1     -28.374   1.847  26.153  0.00  0.00    +0.000 A 
ATOM     10  C   UNL A   1     -29.453   2.173  25.192  0.00  0.00    +0.000 A 
ATOM     11  C   UNL A   1     -30.681   1.609  25.451  0.00  0.00    +0.000 A 
ATOM     12  C   UNL A   1     -30.832   0.813  26.579  0.00  0.00    +0.000 A 
ATOM     13  C   UNL A   1     -29.810   0.592  27.451  0.00  0.00    +0.000 A 
ENDBRANCH   7   8
BRANCH   5  14
ATOM     14  C   UNL A   1     -24.431   2.634  29.510  0.00  0.00    +0.388 C 
ATOM     15  O   UNL A   1     -23.802   2.533  30.516  0.00  0.00    -0.241 OA
ATOM     16  O   UNL A   1     -24.113   3.476  28.559  0.00  0.00    -0.241 OA
ENDBRANCH   5  14
TORSDOF 2
