MODEL 3540
MODEL 1
REMARK VINA RESULT:    -6.828      0.000      0.000
REMARK INTER + INTRA:          -8.191
REMARK INTER:                  -7.626
REMARK INTRA:                  -0.565
REMARK UNBOUND:                -0.565
REMARK  Name = No_3540-gen_results/8p0m/2024-11-26-14-13-15/
REMARK  2 active torsions:
REMARK  status: ('A' for Active; 'I' for Inactive)
REMARK    1  A    between atoms: C_5  and  C_14
REMARK    2  A    between atoms: C_7  and  C_8
REMARK                            x       y       z     vdW  Elec       q    Type
REMARK                         _______ _______ _______ _____ _____    ______ ____
ROOT
ATOM      1  F   UNL A   1     -22.503  -1.106  30.425  0.00  0.00    -0.204 F 
ATOM      2  C   UNL A   1     -22.942  -0.634  29.479  0.00  0.00    +0.140 A 
ATOM      3  C   UNL A   1     -22.356   0.435  29.064  0.00  0.00    +0.030 A 
ATOM      4  C   UNL A   1     -22.723   1.180  27.836  0.00  0.00    +0.009 A 
ATOM      5  C   UNL A   1     -23.814   0.608  27.092  0.00  0.00    +0.080 A 
ATOM      6  C   UNL A   1     -24.365  -0.556  27.576  0.00  0.00    +0.009 A 
ATOM      7  C   UNL A   1     -23.936  -1.184  28.707  0.00  0.00    +0.028 A 
ENDROOT
BRANCH   7   8
ATOM      8  C   UNL A   1     -24.585  -2.416  29.075  0.00  0.00    +0.002 A 
ATOM      9  C   UNL A   1     -25.789  -2.472  29.524  0.00  0.00    +0.000 A 
ATOM     10  C   UNL A   1     -26.510  -3.720  29.866  0.00  0.00    +0.000 A 
ATOM     11  C   UNL A   1     -25.873  -4.894  29.538  0.00  0.00    +0.000 A 
ATOM     12  C   UNL A   1     -24.618  -4.836  28.946  0.00  0.00    +0.000 A 
ATOM     13  C   UNL A   1     -23.986  -3.655  28.702  0.00  0.00    +0.000 A 
ENDBRANCH   7   8
BRANCH   5  14
ATOM     14  C   UNL A   1     -24.253   1.300  25.899  0.00  0.00    +0.388 C 
ATOM     15  O   UNL A   1     -25.293   0.993  25.407  0.00  0.00    -0.241 OA
ATOM     16  O   UNL A   1     -23.599   2.380  25.554  0.00  0.00    -0.241 OA
ENDBRANCH   5  14
TORSDOF 2
ENDMDL
ENDMDL
