MODEL 3541
MODEL 1
REMARK VINA RESULT:    -4.704      0.000      0.000
REMARK INTER + INTRA:          -5.032
REMARK INTER:                  -4.979
REMARK INTRA:                  -0.053
REMARK UNBOUND:                -0.053
REMARK  Name = No_3541-gen_results/8p0m/2024-11-26-14-13-15/
REMARK  1 active torsions:
REMARK  status: ('A' for Active; 'I' for Inactive)
REMARK    1  A    between atoms: C_1  and  C_8
REMARK                            x       y       z     vdW  Elec       q    Type
REMARK                         _______ _______ _______ _____ _____    ______ ____
ROOT
ATOM      1  C   UNL A   1     -23.667  -1.642  28.866  0.00  0.00    +0.014 C 
ATOM      2  C   UNL A   1     -24.384  -2.579  29.131  0.00  0.00    -0.043 C 
ATOM      3  C   UNL A   1     -25.704  -2.443  29.559  0.00  0.00    +0.022 C 
ATOM      4  C   UNL A   1     -26.642  -3.525  29.914  0.00  0.00    +0.004 C 
ATOM      5  C   UNL A   1     -26.213  -4.849  29.594  0.00  0.00    +0.001 C 
ATOM      6  C   UNL A   1     -24.910  -5.027  29.119  0.00  0.00    +0.004 C 
ATOM      7  C   UNL A   1     -24.060  -4.002  28.887  0.00  0.00    +0.022 C 
ENDROOT
BRANCH   1   8
ATOM      8  C   UNL A   1     -22.999  -1.067  30.098  0.00  0.00    +0.121 C 
ATOM      9  N   UNL A   1     -22.916  -0.022  30.341  0.00  0.00    -0.146 NA
ENDBRANCH   1   8
TORSDOF 1
ENDMDL
ENDMDL
