REMARK  Name = No_3542-gen_results/8p0m/2024-11-26-14-13-15/
REMARK  3 active torsions:
REMARK  status: ('A' for Active; 'I' for Inactive)
REMARK    1  A    between atoms: C_1  and  C_2
REMARK    2  A    between atoms: C_14  and  N_15
REMARK    3  A    between atoms: C_22  and  C_25
REMARK                            x       y       z     vdW  Elec       q    Type
REMARK                         _______ _______ _______ _____ _____    ______ ____
ROOT
ATOM      1  C   UNL A   1     -27.064  -0.119  28.608  0.00  0.00    +0.071 A 
ATOM      2  C   UNL A   1     -27.001   0.691  27.491  0.00  0.00    +0.004 A 
ATOM      3  C   UNL A   1     -25.777   1.021  26.913  0.00  0.00    +0.004 A 
ATOM      4  C   UNL A   1     -24.509   0.736  27.569  0.00  0.00    +0.003 A 
ATOM      5  C   UNL A   1     -24.510   0.513  28.585  0.00  0.00    +0.013 A 
ATOM      6  C   UNL A   1     -25.748  -0.320  29.284  0.00  0.00    +0.003 A 
ATOM      7  C   UNL A   1     -23.314   1.510  27.005  0.00  0.00    +0.055 A 
ATOM      8  C   UNL A   1     -23.293   2.078  25.784  0.00  0.00    +0.004 A 
ATOM      9  C   UNL A   1     -22.076   1.487  27.762  0.00  0.00    +0.266 C 
ATOM     10  N   UNL A   1     -22.009   1.077  28.988  0.00  0.00    -0.182 NA
ATOM     11  C   UNL A   1     -23.214   0.373  29.488  0.00  0.00    +0.178 C 
ATOM     12  C   UNL A   1     -25.881   1.694  25.558  0.00  0.00    +0.071 A 
ATOM     13  C   UNL A   1     -24.577   2.151  25.060  0.00  0.00    +0.004 A 
ATOM     14  O   UNL A   1     -21.027   2.008  27.315  0.00  0.00    -0.268 OA
ENDROOT
BRANCH  11  15
ATOM     15  N   UNL A   1     -23.108  -0.143  30.711  0.00  0.00    -0.254 NA
ATOM     16  C   UNL A   1     -22.679  -1.393  30.862  0.00  0.00    +0.074 C 
ATOM     17  C   UNL A   1     -23.343   0.485  31.728  0.00  0.00    +0.074 C 
ATOM     18  C   UNL A   1     -23.732  -0.335  32.884  0.00  0.00    +0.017 C 
ATOM     19  C   UNL A   1     -24.261  -1.407  32.973  0.00  0.00    +0.003 C 
ATOM     20  C   UNL A   1     -23.452  -2.138  31.843  0.00  0.00    +0.017 C 
ENDBRANCH  11  15
BRANCH   1  21
ATOM     21  C   UNL A   1     -28.016  -0.814  28.878  0.00  0.00    +0.419 C 
ATOM     22  F   UNL A   1     -27.800  -1.966  29.442  0.00  0.00    -0.166 F 
ATOM     23  F   UNL A   1     -28.813  -0.122  29.861  0.00  0.00    -0.166 F 
ATOM     24  F   UNL A   1     -28.907  -0.881  27.890  0.00  0.00    -0.166 F 
ENDBRANCH   1  21
BRANCH  12  25
ATOM     25  C   UNL A   1     -26.968   1.758  24.810  0.00  0.00    +0.419 C 
ATOM     26  F   UNL A   1     -27.455   2.889  24.537  0.00  0.00    -0.166 F 
ATOM     27  F   UNL A   1     -26.855   1.014  23.679  0.00  0.00    -0.166 F 
ATOM     28  F   UNL A   1     -28.114   1.169  25.372  0.00  0.00    -0.166 F 
ENDBRANCH  12  25
TORSDOF 3
