MODEL 3542
MODEL 1
REMARK VINA RESULT:    -7.779      0.000      0.000
REMARK INTER + INTRA:          -9.718
REMARK INTER:                  -9.143
REMARK INTRA:                  -0.575
REMARK UNBOUND:                -0.575
REMARK  Name = No_3542-gen_results/8p0m/2024-11-26-14-13-15/
REMARK  3 active torsions:
REMARK  status: ('A' for Active; 'I' for Inactive)
REMARK    1  A    between atoms: C_1  and  C_2
REMARK    2  A    between atoms: C_14  and  N_15
REMARK    3  A    between atoms: C_22  and  C_25
REMARK                            x       y       z     vdW  Elec       q    Type
REMARK                         _______ _______ _______ _____ _____    ______ ____
ROOT
ATOM      1  C   UNL A   1     -10.806  -0.307  37.699  0.00  0.00    +0.071 A 
ATOM      2  C   UNL A   1     -11.464   0.898  37.547  0.00  0.00    +0.004 A 
ATOM      3  C   UNL A   1     -11.247   1.697  36.427  0.00  0.00    +0.004 A 
ATOM      4  C   UNL A   1     -10.167   1.435  35.486  0.00  0.00    +0.003 A 
ATOM      5  C   UNL A   1      -9.394   0.802  35.775  0.00  0.00    +0.013 A 
ATOM      6  C   UNL A   1      -9.662  -0.494  36.757  0.00  0.00    +0.003 A 
ATOM      7  C   UNL A   1      -9.826   2.611  34.566  0.00  0.00    +0.055 A 
ATOM      8  C   UNL A   1     -10.660   3.640  34.318  0.00  0.00    +0.004 A 
ATOM      9  C   UNL A   1      -8.603   2.529  33.789  0.00  0.00    +0.266 C 
ATOM     10  N   UNL A   1      -7.677   1.655  34.026  0.00  0.00    -0.182 NA
ATOM     11  C   UNL A   1      -8.056   0.566  34.957  0.00  0.00    +0.178 C 
ATOM     12  C   UNL A   1     -12.222   2.849  36.275  0.00  0.00    +0.071 A 
ATOM     13  C   UNL A   1     -11.864   3.742  35.166  0.00  0.00    +0.004 A 
ATOM     14  O   UNL A   1      -8.309   3.402  32.939  0.00  0.00    -0.268 OA
ENDROOT
BRANCH  11  15
ATOM     15  N   UNL A   1      -7.144  -0.391  35.119  0.00  0.00    -0.254 NA
ATOM     16  C   UNL A   1      -6.026  -0.126  35.789  0.00  0.00    +0.074 C 
ATOM     17  C   UNL A   1      -7.290  -1.532  34.720  0.00  0.00    +0.074 C 
ATOM     18  C   UNL A   1      -6.040  -2.261  34.462  0.00  0.00    +0.017 C 
ATOM     19  C   UNL A   1      -4.939  -1.895  34.162  0.00  0.00    +0.003 C 
ATOM     20  C   UNL A   1      -4.842  -0.676  35.147  0.00  0.00    +0.017 C 
ENDBRANCH  11  15
BRANCH   1  21
ATOM     21  C   UNL A   1     -11.248  -1.235  38.335  0.00  0.00    +0.419 C 
ATOM     22  F   UNL A   1     -11.476  -2.356  37.715  0.00  0.00    -0.166 F 
ATOM     23  F   UNL A   1     -10.266  -1.611  39.322  0.00  0.00    -0.166 F 
ATOM     24  F   UNL A   1     -12.242  -0.882  39.148  0.00  0.00    -0.166 F 
ENDBRANCH   1  21
BRANCH  12  25
ATOM     25  C   UNL A   1     -13.352   2.996  36.944  0.00  0.00    +0.419 C 
ATOM     26  F   UNL A   1     -13.412   2.590  38.137  0.00  0.00    -0.166 F 
ATOM     27  F   UNL A   1     -13.837   4.261  36.857  0.00  0.00    -0.166 F 
ATOM     28  F   UNL A   1     -14.447   2.282  36.427  0.00  0.00    -0.166 F 
ENDBRANCH  12  25
TORSDOF 3
ENDMDL
ENDMDL
