REMARK  Name = No_3544-gen_results/8p0m/2024-11-26-14-13-15/
REMARK  13 active torsions:
REMARK  status: ('A' for Active; 'I' for Inactive)
REMARK    1  A    between atoms: C_6  and  O_7
REMARK    2  A    between atoms: O_7  and  C_9
REMARK    3  A    between atoms: C_9  and  C_10
REMARK    4  A    between atoms: C_10  and  C_11
REMARK    5  A    between atoms: C_10  and  N_14
REMARK    6  A    between atoms: N_14  and  C_15
REMARK    7  A    between atoms: C_15  and  N_16
REMARK    8  A    between atoms: C_22  and  C_23
REMARK    9  A    between atoms: C_22  and  C_33
REMARK   10  A    between atoms: C_24  and  C_25
REMARK   11  A    between atoms: C_26  and  C_28
REMARK   12  A    between atoms: N_29  and  C_31
REMARK   13  A    between atoms: C_33  and  C_34
REMARK                            x       y       z     vdW  Elec       q    Type
REMARK                         _______ _______ _______ _____ _____    ______ ____
ROOT
ATOM      1  N   UNL A   1     -31.540  -5.868  29.028  0.00  0.00    -0.258 NA
ATOM      2  C   UNL A   1     -31.330  -6.523  27.880  0.00  0.00    +0.073 C 
ATOM      3  C   UNL A   1     -31.994  -7.641  27.610  0.00  0.00    +0.018 C 
ATOM      4  C   UNL A   1     -32.397  -8.304  28.596  0.00  0.00    +0.007 C 
ATOM      5  C   UNL A   1     -32.756  -6.288  29.473  0.00  0.00    +0.077 C 
ATOM      6  C   UNL A   1     -32.978  -7.634  29.629  0.00  0.00    +0.033 C 
ENDROOT
BRANCH   6   7
ATOM      7  C   UNL A   1     -34.358  -8.079  29.940  0.00  0.00    -0.025 C 
ATOM      8  C   UNL A   1     -34.967  -7.793  30.860  0.00  0.00    -0.005 C 
BRANCH   8   9
ATOM      9  C   UNL A   1     -35.752  -7.736  31.516  0.00  0.00    -0.000 C 
ATOM     10  C   UNL A   1     -36.698  -7.594  32.488  0.00  0.00    +0.034 C 
ATOM     11  C   UNL A   1     -37.691  -8.367  32.583  0.00  0.00    +0.036 C 
BRANCH  10  12
ATOM     12  C   UNL A   1     -36.552  -6.439  33.422  0.00  0.00    +0.265 C 
ATOM     13  N   UNL A   1     -35.675  -5.697  33.560  0.00  0.00    -0.174 NA
ATOM     14  O   UNL A   1     -37.511  -6.293  34.302  0.00  0.00    -0.268 OA
BRANCH  13  15
ATOM     15  C   UNL A   1     -35.158  -4.849  33.710  0.00  0.00    +0.089 C 
ATOM     16  C   UNL A   1     -34.072  -4.225  32.941  0.00  0.00    +0.019 C 
ENDBRANCH  13  15
ENDBRANCH  10  12
ENDBRANCH   8   9
ENDBRANCH   6   7
BRANCH   1  17
ATOM     17  C   UNL A   1     -30.531  -5.533  29.840  0.00  0.00    +0.164 C 
BRANCH  17  18
ATOM     18  N   UNL A   1     -30.756  -4.706  30.890  0.00  0.00    -0.190 NA
BRANCH  18  19
ATOM     19  C   UNL A   1     -29.752  -4.139  31.740  0.00  0.00    +0.213 C 
BRANCH  19  20
ATOM     20  C   UNL A   1     -30.009  -4.398  33.061  0.00  0.00    +0.415 C 
ATOM     21  F   UNL A   1     -31.065  -3.973  33.505  0.00  0.00    -0.168 F 
ATOM     22  F   UNL A   1     -28.973  -3.865  33.805  0.00  0.00    -0.168 F 
ATOM     23  F   UNL A   1     -29.937  -5.802  33.260  0.00  0.00    -0.168 F 
ENDBRANCH  19  20
BRANCH  19  24
ATOM     24  C   UNL A   1     -29.369  -2.830  31.445  0.00  0.00    +0.231 C 
BRANCH  24  25
ATOM     25  O   UNL A   1     -29.000  -2.701  30.115  0.00  0.00    -0.474 OA
BRANCH  25  31
ATOM     26  C   UNL A   1     -28.016  -0.814  28.878  0.00  0.00    +0.039 A 
ATOM     27  C   UNL A   1     -27.064  -0.119  28.608  0.00  0.00    +0.033 A 
ATOM     28  C   UNL A   1     -25.792  -0.430  29.076  0.00  0.00    +0.140 A 
ATOM     29  C   UNL A   1     -25.576  -1.565  29.936  0.00  0.00    +0.033 A 
ATOM     30  C   UNL A   1     -26.735  -2.300  30.217  0.00  0.00    +0.039 A 
ATOM     31  C   UNL A   1     -27.918  -1.954  29.763  0.00  0.00    +0.139 A 
ATOM     32  F   UNL A   1     -24.680   0.296  28.838  0.00  0.00    -0.204 F 
ENDBRANCH  25  31
ENDBRANCH  24  25
ENDBRANCH  19  24
ENDBRANCH  18  19
ENDBRANCH  17  18
ENDBRANCH   1  17
BRANCH   6  33
ATOM     33  C   UNL A   1     -32.086  -8.025  30.977  0.00  0.00    +0.005 C 
BRANCH  33  34
ATOM     34  C   UNL A   1     -31.644  -9.299  31.083  0.00  0.00    +0.000 C 
ATOM     35  C   UNL A   1     -30.752  -9.446  32.236  0.00  0.00    +0.000 C 
ENDBRANCH  33  34
ENDBRANCH   6  33
TORSDOF 13
