MODEL 3544
MODEL 1
REMARK VINA RESULT:    -6.878      0.000      0.000
REMARK INTER + INTRA:         -14.877
REMARK INTER:                 -12.104
REMARK INTRA:                  -2.773
REMARK UNBOUND:                -2.773
REMARK  Name = No_3544-gen_results/8p0m/2024-11-26-14-13-15/
REMARK  13 active torsions:
REMARK  status: ('A' for Active; 'I' for Inactive)
REMARK    1  A    between atoms: C_6  and  O_7
REMARK    2  A    between atoms: O_7  and  C_9
REMARK    3  A    between atoms: C_9  and  C_10
REMARK    4  A    between atoms: C_10  and  C_11
REMARK    5  A    between atoms: C_10  and  N_14
REMARK    6  A    between atoms: N_14  and  C_15
REMARK    7  A    between atoms: C_15  and  N_16
REMARK    8  A    between atoms: C_22  and  C_23
REMARK    9  A    between atoms: C_22  and  C_33
REMARK   10  A    between atoms: C_24  and  C_25
REMARK   11  A    between atoms: C_26  and  C_28
REMARK   12  A    between atoms: N_29  and  C_31
REMARK   13  A    between atoms: C_33  and  C_34
REMARK                            x       y       z     vdW  Elec       q    Type
REMARK                         _______ _______ _______ _____ _____    ______ ____
ROOT
ATOM      1  N   UNL A   1     -25.366   1.746  26.119  0.00  0.00    -0.258 NA
ATOM      2  C   UNL A   1     -25.083   0.614  25.465  0.00  0.00    +0.073 C 
ATOM      3  C   UNL A   1     -25.924   0.131  24.558  0.00  0.00    +0.018 C 
ATOM      4  C   UNL A   1     -27.132   0.441  24.694  0.00  0.00    +0.007 C 
ATOM      5  C   UNL A   1     -26.286   2.393  25.353  0.00  0.00    +0.077 C 
ATOM      6  C   UNL A   1     -27.436   1.733  24.995  0.00  0.00    +0.033 C 
ENDROOT
BRANCH   6   7
ATOM      7  C   UNL A   1     -28.337   2.388  24.016  0.00  0.00    -0.025 C 
ATOM      8  C   UNL A   1     -29.321   1.970  23.621  0.00  0.00    -0.005 C 
BRANCH   8   9
ATOM      9  C   UNL A   1     -30.200   1.906  23.100  0.00  0.00    -0.000 C 
ATOM     10  C   UNL A   1     -31.394   1.688  22.478  0.00  0.00    +0.034 C 
ATOM     11  C   UNL A   1     -31.656   2.154  21.335  0.00  0.00    +0.036 C 
BRANCH  10  12
ATOM     12  C   UNL A   1     -32.425   0.913  23.229  0.00  0.00    +0.265 C 
ATOM     13  N   UNL A   1     -32.510  -0.225  23.422  0.00  0.00    -0.174 NA
ATOM     14  O   UNL A   1     -33.458   1.599  23.652  0.00  0.00    -0.268 OA
BRANCH  13  15
ATOM     15  C   UNL A   1     -32.677  -1.105  23.875  0.00  0.00    +0.089 C 
ATOM     16  C   UNL A   1     -31.753  -2.153  24.331  0.00  0.00    +0.019 C 
ENDBRANCH  13  15
ENDBRANCH  10  12
ENDBRANCH   8   9
ENDBRANCH   6   7
BRANCH   1  17
ATOM     17  C   UNL A   1     -25.341   1.810  27.455  0.00  0.00    +0.164 C 
BRANCH  17  18
ATOM     18  N   UNL A   1     -25.063   0.698  28.179  0.00  0.00    -0.190 NA
BRANCH  18  19
ATOM     19  C   UNL A   1     -24.048   0.583  29.183  0.00  0.00    +0.213 C 
BRANCH  19  20
ATOM     20  C   UNL A   1     -22.795   0.558  28.628  0.00  0.00    +0.415 C 
ATOM     21  F   UNL A   1     -22.676  -0.052  27.576  0.00  0.00    -0.168 F 
ATOM     22  F   UNL A   1     -21.933   0.006  29.557  0.00  0.00    -0.168 F 
ATOM     23  F   UNL A   1     -22.359   1.898  28.455  0.00  0.00    -0.168 F 
ENDBRANCH  19  20
BRANCH  19  24
ATOM     24  C   UNL A   1     -24.283  -0.358  30.186  0.00  0.00    +0.231 C 
BRANCH  24  25
ATOM     25  O   UNL A   1     -25.395  -1.134  29.897  0.00  0.00    -0.474 OA
BRANCH  25  31
ATOM     26  C   UNL A   1     -24.118  -2.969  28.866  0.00  0.00    +0.039 A 
ATOM     27  C   UNL A   1     -23.974  -4.148  28.637  0.00  0.00    +0.033 A 
ATOM     28  C   UNL A   1     -24.951  -5.072  28.990  0.00  0.00    +0.140 A 
ATOM     29  C   UNL A   1     -26.146  -4.661  29.681  0.00  0.00    +0.033 A 
ATOM     30  C   UNL A   1     -26.220  -3.283  29.927  0.00  0.00    +0.039 A 
ATOM     31  C   UNL A   1     -25.261  -2.453  29.587  0.00  0.00    +0.139 A 
ATOM     32  F   UNL A   1     -24.866  -6.404  28.789  0.00  0.00    -0.204 F 
ENDBRANCH  25  31
ENDBRANCH  24  25
ENDBRANCH  19  24
ENDBRANCH  18  19
ENDBRANCH  17  18
ENDBRANCH   1  17
BRANCH   6  33
ATOM     33  C   UNL A   1     -28.309   1.672  26.409  0.00  0.00    +0.005 C 
BRANCH  33  34
ATOM     34  C   UNL A   1     -28.744   0.459  26.821  0.00  0.00    +0.000 C 
ATOM     35  C   UNL A   1     -30.203   0.370  26.725  0.00  0.00    +0.000 C 
ENDBRANCH  33  34
ENDBRANCH   6  33
TORSDOF 13
ENDMDL
ENDMDL
