MODEL 3545
MODEL 1
REMARK VINA RESULT:    -6.992      0.000      0.000
REMARK INTER + INTRA:          -8.746
REMARK INTER:                  -8.218
REMARK INTRA:                  -0.528
REMARK UNBOUND:                -0.528
REMARK  Name = No_3545-gen_results/8p0m/2024-11-26-14-13-15/
REMARK  3 active torsions:
REMARK  status: ('A' for Active; 'I' for Inactive)
REMARK    1  A    between atoms: C_2  and  C_12
REMARK    2  A    between atoms: C_4  and  C_7
REMARK    3  A    between atoms: N_14  and  C_15
REMARK                            x       y       z     vdW  Elec       q    Type
REMARK                         _______ _______ _______ _____ _____    ______ ____
ROOT
ATOM      1  C   UNL A   1     -10.515   1.264  36.462  0.00  0.00    +0.005 A 
ATOM      2  C   UNL A   1     -10.306   1.281  35.430  0.00  0.00    +0.055 A 
ATOM      3  C   UNL A   1     -11.825   1.789  36.879  0.00  0.00    -0.000 A 
ATOM      4  C   UNL A   1     -12.798   2.163  35.906  0.00  0.00    -0.004 A 
ATOM      5  C   UNL A   1     -11.145   1.558  34.232  0.00  0.00    +0.005 A 
ATOM      6  C   UNL A   1     -12.365   2.057  34.577  0.00  0.00    -0.000 A 
ENDROOT
BRANCH   4   7
ATOM      7  C   UNL A   1     -14.085   2.667  36.255  0.00  0.00    -0.018 C 
ATOM      8  C   UNL A   1     -14.760   3.158  35.664  0.00  0.00    -0.004 C 
ATOM      9  C   UNL A   1     -16.075   3.842  36.016  0.00  0.00    -0.004 C 
ATOM     10  C   UNL A   1     -16.025   3.974  37.398  0.00  0.00    -0.021 C 
ATOM     11  C   UNL A   1     -14.470   3.091  37.730  0.00  0.00    +0.052 C 
ENDBRANCH   4   7
BRANCH   2  12
ATOM     12  C   UNL A   1      -8.846   0.728  34.956  0.00  0.00    +0.269 C 
ATOM     13  O   UNL A   1      -8.609   1.012  33.878  0.00  0.00    -0.268 OA
ATOM     14  N   UNL A   1      -8.065   0.011  35.786  0.00  0.00    -0.175 NA
BRANCH  14  15
ATOM     15  C   UNL A   1      -6.779  -0.439  35.321  0.00  0.00    +0.074 A 
ATOM     16  C   UNL A   1      -5.867   0.109  35.422  0.00  0.00    +0.017 A 
ATOM     17  C   UNL A   1      -4.543  -0.315  34.977  0.00  0.00    +0.001 A 
ATOM     18  C   UNL A   1      -4.525  -1.578  34.328  0.00  0.00    +0.000 A 
ATOM     19  C   UNL A   1      -5.703  -2.255  34.177  0.00  0.00    +0.001 A 
ATOM     20  C   UNL A   1      -6.859  -1.781  34.662  0.00  0.00    +0.017 A 
ENDBRANCH  14  15
ENDBRANCH   2  12
TORSDOF 3
ENDMDL
ENDMDL
