REMARK  Name = No_3545-gen_results/8p0m/2024-11-26-14-13-15/
REMARK  3 active torsions:
REMARK  status: ('A' for Active; 'I' for Inactive)
REMARK    1  A    between atoms: C_2  and  C_12
REMARK    2  A    between atoms: C_4  and  C_7
REMARK    3  A    between atoms: N_14  and  C_15
REMARK                            x       y       z     vdW  Elec       q    Type
REMARK                         _______ _______ _______ _____ _____    ______ ____
ROOT
ATOM      1  C   UNL A   1     -28.016  -0.814  28.878  0.00  0.00    +0.005 A 
ATOM      2  C   UNL A   1     -28.469  -0.785  29.829  0.00  0.00    +0.055 A 
ATOM      3  C   UNL A   1     -26.546  -0.876  28.850  0.00  0.00    -0.000 A 
ATOM      4  C   UNL A   1     -25.804  -1.032  30.057  0.00  0.00    -0.004 A 
ATOM      5  C   UNL A   1     -27.944  -0.987  31.207  0.00  0.00    +0.005 A 
ATOM      6  C   UNL A   1     -26.582  -1.039  31.223  0.00  0.00    -0.000 A 
ENDROOT
BRANCH   4   7
ATOM      7  C   UNL A   1     -24.381  -1.108  30.085  0.00  0.00    -0.018 C 
ATOM      8  C   UNL A   1     -23.759  -1.132  30.896  0.00  0.00    -0.004 C 
ATOM      9  C   UNL A   1     -22.239  -1.066  30.985  0.00  0.00    -0.004 C 
ATOM     10  C   UNL A   1     -21.850  -0.610  29.731  0.00  0.00    -0.021 C 
ATOM     11  C   UNL A   1     -23.470  -0.579  28.904  0.00  0.00    +0.052 C 
ENDBRANCH   4   7
BRANCH   2  12
ATOM     12  C   UNL A   1     -30.097  -0.687  29.875  0.00  0.00    +0.269 C 
ATOM     13  O   UNL A   1     -30.522  -0.180  28.947  0.00  0.00    -0.268 OA
ATOM     14  N   UNL A   1     -30.798  -1.154  30.925  0.00  0.00    -0.175 NA
BRANCH  14  15
ATOM     15  C   UNL A   1     -32.234  -1.055  30.906  0.00  0.00    +0.074 A 
ATOM     16  C   UNL A   1     -32.884  -1.454  31.655  0.00  0.00    +0.017 A 
ATOM     17  C   UNL A   1     -34.341  -1.365  31.681  0.00  0.00    +0.001 A 
ATOM     18  C   UNL A   1     -34.902  -0.694  30.562  0.00  0.00    +0.000 A 
ATOM     19  C   UNL A   1     -34.062  -0.215  29.595  0.00  0.00    +0.001 A 
ATOM     20  C   UNL A   1     -32.730  -0.323  29.697  0.00  0.00    +0.017 A 
ENDBRANCH  14  15
ENDBRANCH   2  12
TORSDOF 3
