REMARK  Name = No_3546-gen_results/8p0m/2024-11-26-14-13-15/
REMARK  2 active torsions:
REMARK  status: ('A' for Active; 'I' for Inactive)
REMARK    1  A    between atoms: C_2  and  C_5
REMARK    2  A    between atoms: C_10  and  C_14
REMARK                            x       y       z     vdW  Elec       q    Type
REMARK                         _______ _______ _______ _____ _____    ______ ____
ROOT
ATOM      1  C   UNL A   1     -28.016  -0.814  28.878  0.00  0.00    +0.002 A 
ATOM      2  C   UNL A   1     -28.469  -0.785  29.829  0.00  0.00    +0.080 A 
ATOM      3  C   UNL A   1     -27.136   0.236  28.535  0.00  0.00    -0.019 A 
ATOM      4  C   UNL A   1     -26.335   0.290  27.284  0.00  0.00    +0.027 C 
ATOM      5  C   UNL A   1     -28.230   0.301  30.904  0.00  0.00    +0.007 A 
ATOM      6  C   UNL A   1     -25.380   1.274  27.067  0.00  0.00    +0.021 C 
ATOM      7  C   UNL A   1     -27.415   1.311  30.614  0.00  0.00    +0.003 A 
ATOM      8  C   UNL A   1     -26.745   1.318  29.404  0.00  0.00    +0.031 A 
ATOM      9  C   UNL A   1     -25.164   2.320  27.982  0.00  0.00    +0.157 C 
ATOM     10  C   UNL A   1     -25.810   2.345  29.104  0.00  0.00    +0.181 C 
ATOM     11  O   UNL A   1     -25.613   3.317  30.069  0.00  0.00    -0.291 OA
ENDROOT
BRANCH   9  12
ATOM     12  C   UNL A   1     -24.134   3.338  27.540  0.00  0.00    +0.404 C 
ATOM     13  F   UNL A   1     -23.401   3.103  26.564  0.00  0.00    -0.170 F 
ATOM     14  F   UNL A   1     -23.234   3.703  28.413  0.00  0.00    -0.170 F 
ATOM     15  F   UNL A   1     -24.803   4.567  27.414  0.00  0.00    -0.170 F 
ENDBRANCH   9  12
BRANCH   2  16
ATOM     16  C   UNL A   1     -29.381  -1.913  30.355  0.00  0.00    +0.388 C 
ATOM     17  O   UNL A   1     -30.470  -2.058  30.070  0.00  0.00    -0.241 OA
ATOM     18  O   UNL A   1     -28.798  -2.883  31.165  0.00  0.00    -0.241 OA
ENDBRANCH   2  16
TORSDOF 2
