MODEL 3546
MODEL 1
REMARK VINA RESULT:    -7.040      0.000      0.000
REMARK INTER + INTRA:          -8.194
REMARK INTER:                  -7.864
REMARK INTRA:                  -0.331
REMARK UNBOUND:                -0.331
REMARK  Name = No_3546-gen_results/8p0m/2024-11-26-14-13-15/
REMARK  2 active torsions:
REMARK  status: ('A' for Active; 'I' for Inactive)
REMARK    1  A    between atoms: C_2  and  C_5
REMARK    2  A    between atoms: C_10  and  C_14
REMARK                            x       y       z     vdW  Elec       q    Type
REMARK                         _______ _______ _______ _____ _____    ______ ____
ROOT
ATOM      1  C   UNL A   1     -28.024 -11.939  31.676  0.00  0.00    +0.002 A 
ATOM      2  C   UNL A   1     -28.096 -11.444  32.604  0.00  0.00    +0.080 A 
ATOM      3  C   UNL A   1     -28.864 -11.501  30.628  0.00  0.00    -0.019 A 
ATOM      4  C   UNL A   1     -28.811 -12.015  29.235  0.00  0.00    +0.027 C 
ATOM      5  C   UNL A   1     -29.028 -10.249  32.913  0.00  0.00    +0.007 A 
ATOM      6  C   UNL A   1     -29.561 -11.446  28.214  0.00  0.00    +0.021 C 
ATOM      7  C   UNL A   1     -29.840  -9.814  31.954  0.00  0.00    +0.003 A 
ATOM      8  C   UNL A   1     -29.769 -10.381  30.694  0.00  0.00    +0.031 A 
ATOM      9  C   UNL A   1     -30.469 -10.398  28.450  0.00  0.00    +0.157 C 
ATOM     10  C   UNL A   1     -30.571  -9.881  29.633  0.00  0.00    +0.181 C 
ATOM     11  O   UNL A   1     -31.408  -8.818  29.924  0.00  0.00    -0.291 OA
ENDROOT
BRANCH   9  12
ATOM     12  C   UNL A   1     -31.249  -9.957  27.230  0.00  0.00    +0.404 C 
ATOM     13  F   UNL A   1     -31.177  -8.782  26.832  0.00  0.00    -0.170 F 
ATOM     14  F   UNL A   1     -32.546 -10.104  27.258  0.00  0.00    -0.170 F 
ATOM     15  F   UNL A   1     -30.964 -10.878  26.208  0.00  0.00    -0.170 F 
ENDBRANCH   9  12
BRANCH   2  16
ATOM     16  C   UNL A   1     -27.177 -11.771  33.799  0.00  0.00    +0.388 C 
ATOM     17  O   UNL A   1     -26.750 -12.796  34.032  0.00  0.00    -0.241 OA
ATOM     18  O   UNL A   1     -26.762 -10.709  34.597  0.00  0.00    -0.241 OA
ENDBRANCH   2  16
TORSDOF 2
ENDMDL
ENDMDL
