MODEL 3547
MODEL 1
REMARK VINA RESULT:    -4.484      0.000      0.000
REMARK INTER + INTRA:          -4.484
REMARK INTER:                  -4.484
REMARK INTRA:                   0.000
REMARK UNBOUND:                 0.000
REMARK  Name = No_3547-gen_results/8p0m/2024-11-26-14-13-15/
REMARK  0 active torsions:
REMARK  status: ('A' for Active; 'I' for Inactive)
REMARK                            x       y       z     vdW  Elec       q    Type
REMARK                         _______ _______ _______ _____ _____    ______ ____
ROOT
ATOM      1  C   UNL A   1      -9.213  -9.222  20.049  0.00  0.00    +0.011 A 
ATOM      2  C   UNL A   1      -8.352  -9.785  19.820  0.00  0.00    +0.058 A 
ATOM      3  C   UNL A   1     -10.301  -9.248  19.058  0.00  0.00    +0.001 A 
ATOM      4  C   UNL A   1     -10.229 -10.110  17.925  0.00  0.00    +0.000 A 
ATOM      5  C   UNL A   1      -8.052 -10.790  18.763  0.00  0.00    +0.011 A 
ATOM      6  C   UNL A   1      -9.034 -10.835  17.819  0.00  0.00    +0.001 A 
ATOM      7 CL   UNL A   1      -6.976  -9.894  21.040  0.00  0.00    -0.082 Cl
ENDROOT
TORSDOF 0
ENDMDL
ENDMDL
