MODEL 3548
MODEL 1
REMARK VINA RESULT:    -7.074      0.000      0.000
REMARK INTER + INTRA:          -8.438
REMARK INTER:                  -7.902
REMARK INTRA:                  -0.536
REMARK UNBOUND:                -0.536
REMARK  Name = No_3548-gen_results/8p0m/2024-11-26-14-13-15/
REMARK  2 active torsions:
REMARK  status: ('A' for Active; 'I' for Inactive)
REMARK    1  A    between atoms: C_4  and  C_7
REMARK    2  A    between atoms: C_7  and  C_8
REMARK                            x       y       z     vdW  Elec       q    Type
REMARK                         _______ _______ _______ _____ _____    ______ ____
ROOT
ATOM      1  C   UNL A   1     -24.393  -1.017  29.681  0.00  0.00    +0.036 C 
ENDROOT
BRANCH   1   5
ATOM      2  C   UNL A   1     -26.270  -4.372  29.693  0.00  0.00    +0.011 A 
ATOM      3  C   UNL A   1     -25.514  -4.960  29.255  0.00  0.00    +0.001 A 
ATOM      4  C   UNL A   1     -25.946  -2.957  29.937  0.00  0.00    +0.054 A 
ATOM      5  C   UNL A   1     -24.719  -2.403  29.468  0.00  0.00    -0.011 A 
ATOM      6  C   UNL A   1     -23.857  -3.281  28.860  0.00  0.00    -0.003 A 
ATOM      7  C   UNL A   1     -24.195  -4.576  28.684  0.00  0.00    -0.000 A 
ATOM      8 CL   UNL A   1     -26.992  -1.915  30.875  0.00  0.00    -0.083 Cl
ENDBRANCH   1   5
BRANCH   1   9
ATOM      9  C   UNL A   1     -23.757  -0.372  28.600  0.00  0.00    +0.048 C 
ATOM     10  C   UNL A   1     -22.520   0.034  28.501  0.00  0.00    -0.022 C 
ATOM     11  C   UNL A   1     -24.609  -0.114  27.383  0.00  0.00    -0.022 C 
ATOM     12  C   UNL A   1     -24.325   0.877  26.465  0.00  0.00    -0.004 C 
ATOM     13  C   UNL A   1     -22.069   0.903  28.187  0.00  0.00    -0.004 C 
ATOM     14  C   UNL A   1     -23.514   1.914  26.842  0.00  0.00    -0.000 C 
ATOM     15  C   UNL A   1     -22.297   1.838  27.182  0.00  0.00    -0.000 C 
ENDBRANCH   1   9
TORSDOF 2
ENDMDL
ENDMDL
