REMARK  Name = No_3548-gen_results/8p0m/2024-11-26-14-13-15/
REMARK  2 active torsions:
REMARK  status: ('A' for Active; 'I' for Inactive)
REMARK    1  A    between atoms: C_4  and  C_7
REMARK    2  A    between atoms: C_7  and  C_8
REMARK                            x       y       z     vdW  Elec       q    Type
REMARK                         _______ _______ _______ _____ _____    ______ ____
ROOT
ATOM      1  C   UNL A   1     -24.366  -1.113  30.048  0.00  0.00    +0.036 C 
ENDROOT
BRANCH   1   5
ATOM      2  C   UNL A   1     -28.016  -0.814  28.878  0.00  0.00    +0.011 A 
ATOM      3  C   UNL A   1     -28.469  -0.785  29.829  0.00  0.00    +0.001 A 
ATOM      4  C   UNL A   1     -26.546  -0.876  28.850  0.00  0.00    +0.054 A 
ATOM      5  C   UNL A   1     -25.804  -1.032  30.057  0.00  0.00    -0.011 A 
ATOM      6  C   UNL A   1     -26.537  -1.039  31.217  0.00  0.00    -0.003 A 
ATOM      7  C   UNL A   1     -27.884  -0.953  31.186  0.00  0.00    -0.000 A 
ATOM      8 CL   UNL A   1     -25.638  -0.681  27.368  0.00  0.00    -0.083 Cl
ENDBRANCH   1   5
BRANCH   1   9
ATOM      9  C   UNL A   1     -23.692   0.119  29.919  0.00  0.00    +0.048 C 
ATOM     10  C   UNL A   1     -23.986   1.274  30.452  0.00  0.00    -0.022 C 
ATOM     11  C   UNL A   1     -22.457   0.116  29.053  0.00  0.00    -0.022 C 
ATOM     12  C   UNL A   1     -21.964   1.253  28.446  0.00  0.00    -0.004 C 
ATOM     13  C   UNL A   1     -24.053   2.237  30.096  0.00  0.00    -0.004 C 
ATOM     14  C   UNL A   1     -22.800   2.323  28.268  0.00  0.00    -0.000 C 
ATOM     15  C   UNL A   1     -23.353   3.011  29.176  0.00  0.00    -0.000 C 
ENDBRANCH   1   9
TORSDOF 2
