REMARK  Name = No_3549-gen_results/8p0m/2024-11-26-14-13-15/
REMARK  3 active torsions:
REMARK  status: ('A' for Active; 'I' for Inactive)
REMARK    1  A    between atoms: C_3  and  C_7
REMARK    2  A    between atoms: C_7  and  C_15
REMARK    3  A    between atoms: C_8  and  C_9
REMARK                            x       y       z     vdW  Elec       q    Type
REMARK                         _______ _______ _______ _____ _____    ______ ____
ROOT
ATOM      1  C   UNL A   1     -26.399   0.295  27.228  0.00  0.00    -0.004 C 
ATOM      2  C   UNL A   1     -26.902   0.728  26.213  0.00  0.00    -0.022 C 
ATOM      3  C   UNL A   1     -26.522  -0.028  24.953  0.00  0.00    +0.031 C 
ENDROOT
BRANCH   1   6
ATOM      4  C   UNL A   1     -28.016  -0.814  28.878  0.00  0.00    -0.000 A 
ATOM      5  C   UNL A   1     -28.469  -0.785  29.829  0.00  0.00    -0.000 A 
ATOM      6  C   UNL A   1     -27.136   0.236  28.535  0.00  0.00    -0.000 A 
ATOM      7  C   UNL A   1     -26.875   1.282  29.398  0.00  0.00    -0.000 A 
ATOM      8  C   UNL A   1     -28.361   0.199  30.924  0.00  0.00    -0.000 A 
ATOM      9  C   UNL A   1     -27.528   1.223  30.636  0.00  0.00    -0.000 A 
ENDBRANCH   1   6
BRANCH   2  10
ATOM     10  C   UNL A   1     -28.229   1.259  26.197  0.00  0.00    -0.004 A 
ATOM     11  C   UNL A   1     -28.863   1.643  27.229  0.00  0.00    -0.000 A 
ATOM     12  C   UNL A   1     -30.185   2.371  26.960  0.00  0.00    -0.000 A 
ATOM     13  C   UNL A   1     -30.597   2.477  25.652  0.00  0.00    -0.000 A 
ATOM     14  C   UNL A   1     -28.657   1.690  24.854  0.00  0.00    -0.000 A 
ATOM     15  C   UNL A   1     -29.841   2.229  24.617  0.00  0.00    -0.000 A 
ENDBRANCH   2  10
BRANCH   1  16
ATOM     16  C   UNL A   1     -25.088  -0.338  27.389  0.00  0.00    -0.000 A 
ATOM     17  C   UNL A   1     -24.725  -1.158  28.401  0.00  0.00    -0.000 A 
ATOM     18  C   UNL A   1     -23.576  -1.106  29.159  0.00  0.00    -0.000 A 
ATOM     19  C   UNL A   1     -22.601  -0.180  28.597  0.00  0.00    -0.000 A 
ATOM     20  C   UNL A   1     -22.884   0.722  27.598  0.00  0.00    -0.000 A 
ATOM     21  C   UNL A   1     -24.119   0.780  27.050  0.00  0.00    -0.000 A 
ENDBRANCH   1  16
TORSDOF 3
