MODEL 3549
MODEL 1
REMARK VINA RESULT:    -7.867      0.000      0.000
REMARK INTER + INTRA:         -10.398
REMARK INTER:                  -9.246
REMARK INTRA:                  -1.151
REMARK UNBOUND:                -1.151
REMARK  Name = No_3549-gen_results/8p0m/2024-11-26-14-13-15/
REMARK  3 active torsions:
REMARK  status: ('A' for Active; 'I' for Inactive)
REMARK    1  A    between atoms: C_3  and  C_7
REMARK    2  A    between atoms: C_7  and  C_15
REMARK    3  A    between atoms: C_8  and  C_9
REMARK                            x       y       z     vdW  Elec       q    Type
REMARK                         _______ _______ _______ _____ _____    ______ ____
ROOT
ATOM      1  C   UNL A   1     -23.601  -0.405  29.568  0.00  0.00    -0.004 C 
ATOM      2  C   UNL A   1     -23.449   0.211  30.602  0.00  0.00    -0.022 C 
ATOM      3  C   UNL A   1     -23.579   1.716  30.460  0.00  0.00    +0.031 C 
ENDROOT
BRANCH   1   6
ATOM      4  C   UNL A   1     -25.661  -1.889  29.912  0.00  0.00    -0.000 A 
ATOM      5  C   UNL A   1     -26.090  -2.846  29.810  0.00  0.00    -0.000 A 
ATOM      6  C   UNL A   1     -24.318  -1.723  29.509  0.00  0.00    -0.000 A 
ATOM      7  C   UNL A   1     -23.571  -2.770  29.008  0.00  0.00    -0.000 A 
ATOM      8  C   UNL A   1     -25.524  -4.114  29.309  0.00  0.00    -0.000 A 
ATOM      9  C   UNL A   1     -24.237  -3.999  28.913  0.00  0.00    -0.000 A 
ENDBRANCH   1   6
BRANCH   2  10
ATOM     10  C   UNL A   1     -23.906  -0.299  31.856  0.00  0.00    -0.004 A 
ATOM     11  C   UNL A   1     -23.263  -1.128  32.574  0.00  0.00    -0.000 A 
ATOM     12  C   UNL A   1     -23.839  -1.377  33.973  0.00  0.00    -0.000 A 
ATOM     13  C   UNL A   1     -25.019  -0.748  34.295  0.00  0.00    -0.000 A 
ATOM     14  C   UNL A   1     -24.995   0.506  32.439  0.00  0.00    -0.000 A 
ATOM     15  C   UNL A   1     -25.551   0.223  33.605  0.00  0.00    -0.000 A 
ENDBRANCH   2  10
BRANCH   1  16
ATOM     16  C   UNL A   1     -23.252   0.011  28.208  0.00  0.00    -0.000 A 
ATOM     17  C   UNL A   1     -22.175   0.750  27.859  0.00  0.00    -0.000 A 
ATOM     18  C   UNL A   1     -22.138   1.852  27.032  0.00  0.00    -0.000 A 
ATOM     19  C   UNL A   1     -23.398   2.035  26.323  0.00  0.00    -0.000 A 
ATOM     20  C   UNL A   1     -24.559   1.365  26.631  0.00  0.00    -0.000 A 
ATOM     21  C   UNL A   1     -24.584   0.450  27.627  0.00  0.00    -0.000 A 
ENDBRANCH   1  16
TORSDOF 3
ENDMDL
ENDMDL
