MODEL 354
MODEL 1
REMARK VINA RESULT:    -3.639      0.000      0.000
REMARK INTER + INTRA:          -4.224
REMARK INTER:                  -4.065
REMARK INTRA:                  -0.159
REMARK UNBOUND:                -0.159
REMARK  Name = No_354-gen_results/8p0m/2024-11-26-14-13-15/
REMARK  2 active torsions:
REMARK  status: ('A' for Active; 'I' for Inactive)
REMARK    1  A    between atoms: C_3  and  C_4
REMARK    2  A    between atoms: C_5  and  C_6
REMARK                            x       y       z     vdW  Elec       q    Type
REMARK                         _______ _______ _______ _____ _____    ______ ____
ROOT
ATOM      1  C   UNL A   1     -25.563  -2.965  29.794  0.00  0.00    -0.003 C 
ATOM      2  C   UNL A   1     -25.320  -1.847  30.662  0.00  0.00    -0.014 C 
ENDROOT
BRANCH   1   5
ATOM      3 CL   UNL A   1     -24.842  -5.599  28.894  0.00  0.00    -0.081 Cl
ATOM      4  C   UNL A   1     -24.101  -4.387  28.646  0.00  0.00    +0.068 C 
ATOM      5  C   UNL A   1     -24.332  -3.278  28.945  0.00  0.00    +0.012 C 
ENDBRANCH   1   5
BRANCH   2   6
ATOM      6  C   UNL A   1     -24.224  -1.227  30.784  0.00  0.00    +0.093 C 
ATOM      7 BR   UNL A   1     -23.253  -1.164  32.360  0.00  0.00    -0.076 Br
ENDBRANCH   2   6
TORSDOF 2
ENDMDL
ENDMDL
