MODEL 3550
MODEL 1
REMARK VINA RESULT:    -6.912      0.000      0.000
REMARK INTER + INTRA:          -9.269
REMARK INTER:                  -8.528
REMARK INTRA:                  -0.741
REMARK UNBOUND:                -0.741
REMARK  Name = No_3550-gen_results/8p0m/2024-11-26-14-13-15/
REMARK  4 active torsions:
REMARK  status: ('A' for Active; 'I' for Inactive)
REMARK    1  A    between atoms: C_3  and  C_7
REMARK    2  A    between atoms: C_6  and  O_13
REMARK    3  A    between atoms: O_13  and  C_14
REMARK    4  A    between atoms: C_14  and  C_15
REMARK                            x       y       z     vdW  Elec       q    Type
REMARK                         _______ _______ _______ _____ _____    ______ ____
ROOT
ATOM      1  C   UNL A   1     -26.064   2.301  25.671  0.00  0.00    +0.038 A 
ATOM      2  C   UNL A   1     -27.117   1.937  25.200  0.00  0.00    +0.003 A 
ATOM      3  C   UNL A   1     -27.302   0.694  24.596  0.00  0.00    +0.000 A 
ATOM      4  C   UNL A   1     -26.170  -0.203  24.464  0.00  0.00    +0.003 A 
ATOM      5  C   UNL A   1     -24.973   0.294  25.028  0.00  0.00    +0.038 A 
ATOM      6  C   UNL A   1     -24.894   1.482  25.571  0.00  0.00    +0.149 A 
ENDROOT
BRANCH   3   7
ATOM      7  C   UNL A   1     -28.565   0.176  24.009  0.00  0.00    +0.000 A 
ATOM      8  C   UNL A   1     -28.924  -1.086  24.037  0.00  0.00    +0.000 A 
ATOM      9  C   UNL A   1     -30.162  -1.523  23.499  0.00  0.00    +0.000 A 
ATOM     10  C   UNL A   1     -31.163  -0.535  23.253  0.00  0.00    +0.000 A 
ATOM     11  C   UNL A   1     -29.624   1.092  23.692  0.00  0.00    +0.000 A 
ATOM     12  C   UNL A   1     -30.841   0.723  23.284  0.00  0.00    +0.000 A 
ENDBRANCH   3   7
BRANCH   6  13
ATOM     13  O   UNL A   1     -23.683   1.926  26.038  0.00  0.00    -0.421 OA
BRANCH  13  14
ATOM     14  C   UNL A   1     -23.512   2.261  27.357  0.00  0.00    +0.347 C 
ATOM     15  O   UNL A   1     -23.925   3.360  27.769  0.00  0.00    -0.244 OA
BRANCH  14  16
ATOM     16  C   UNL A   1     -22.650   1.314  28.034  0.00  0.00    +0.095 A 
ATOM     17  C   UNL A   1     -21.451   1.327  27.754  0.00  0.00    +0.105 A 
ATOM     18  N   UNL A   1     -20.719   0.309  28.198  0.00  0.00    -0.242 NA
ATOM     19  C   UNL A   1     -21.214  -0.633  28.943  0.00  0.00    +0.099 A 
ATOM     20  C   UNL A   1     -23.190   0.139  28.677  0.00  0.00    +0.010 A 
ATOM     21  C   UNL A   1     -22.471  -0.786  29.201  0.00  0.00    +0.021 A 
ENDBRANCH  14  16
ENDBRANCH  13  14
ENDBRANCH   6  13
TORSDOF 4
ENDMDL
ENDMDL
