REMARK  Name = No_3550-gen_results/8p0m/2024-11-26-14-13-15/
REMARK  4 active torsions:
REMARK  status: ('A' for Active; 'I' for Inactive)
REMARK    1  A    between atoms: C_3  and  C_7
REMARK    2  A    between atoms: C_6  and  O_13
REMARK    3  A    between atoms: O_13  and  C_14
REMARK    4  A    between atoms: C_14  and  C_15
REMARK                            x       y       z     vdW  Elec       q    Type
REMARK                         _______ _______ _______ _____ _____    ______ ____
ROOT
ATOM      1  C   UNL A   1     -28.016  -0.814  28.878  0.00  0.00    +0.038 A 
ATOM      2  C   UNL A   1     -27.064  -0.119  28.608  0.00  0.00    +0.003 A 
ATOM      3  C   UNL A   1     -25.765  -0.390  29.036  0.00  0.00    +0.000 A 
ATOM      4  C   UNL A   1     -25.530  -1.530  29.901  0.00  0.00    +0.003 A 
ATOM      5  C   UNL A   1     -26.689  -2.289  30.181  0.00  0.00    +0.038 A 
ATOM      6  C   UNL A   1     -27.873  -1.951  29.737  0.00  0.00    +0.149 A 
ENDROOT
BRANCH   3   7
ATOM      7  C   UNL A   1     -24.549   0.410  28.734  0.00  0.00    +0.000 A 
ATOM      8  C   UNL A   1     -23.331   0.044  29.057  0.00  0.00    +0.000 A 
ATOM      9  C   UNL A   1     -22.199   0.824  28.707  0.00  0.00    +0.000 A 
ATOM     10  C   UNL A   1     -22.366   1.818  27.696  0.00  0.00    +0.000 A 
ATOM     11  C   UNL A   1     -24.619   1.458  27.756  0.00  0.00    +0.000 A 
ATOM     12  C   UNL A   1     -23.564   2.149  27.316  0.00  0.00    +0.000 A 
ENDBRANCH   3   7
BRANCH   6  13
ATOM     13  O   UNL A   1     -28.964  -2.696  30.105  0.00  0.00    -0.421 OA
BRANCH  13  14
ATOM     14  C   UNL A   1     -28.817  -3.950  30.643  0.00  0.00    +0.347 C 
ATOM     15  O   UNL A   1     -28.020  -4.751  30.122  0.00  0.00    -0.244 OA
BRANCH  14  16
ATOM     16  C   UNL A   1     -29.820  -4.210  31.655  0.00  0.00    +0.095 A 
ATOM     17  C   UNL A   1     -30.205  -3.261  32.339  0.00  0.00    +0.105 A 
ATOM     18  N   UNL A   1     -30.940  -3.551  33.409  0.00  0.00    -0.242 NA
ATOM     19  C   UNL A   1     -31.295  -4.765  33.703  0.00  0.00    +0.099 A 
ATOM     20  C   UNL A   1     -30.059  -5.548  32.144  0.00  0.00    +0.010 A 
ATOM     21  C   UNL A   1     -30.858  -5.826  33.109  0.00  0.00    +0.021 A 
ENDBRANCH  14  16
ENDBRANCH  13  14
ENDBRANCH   6  13
TORSDOF 4
