REMARK  Name = No_3551-gen_results/8p0m/2024-11-26-14-13-15/
REMARK  8 active torsions:
REMARK  status: ('A' for Active; 'I' for Inactive)
REMARK    1  A    between atoms: C_2  and  C_7
REMARK    2  A    between atoms: C_4  and  C_20
REMARK    3  A    between atoms: C_7  and  C_8
REMARK    4  A    between atoms: C_7  and  C_9
REMARK    5  A    between atoms: C_9  and  C_10
REMARK    6  A    between atoms: N_22  and  C_23
REMARK    7  A    between atoms: C_24  and  C_25
REMARK    8  A    between atoms: C_25  and  C_26
REMARK                            x       y       z     vdW  Elec       q    Type
REMARK                         _______ _______ _______ _____ _____    ______ ____
ROOT
ATOM      1  C   UNL A   1     -28.016  -0.814  28.878  0.00  0.00    -0.004 A 
ATOM      2  C   UNL A   1     -27.064  -0.119  28.608  0.00  0.00    -0.018 A 
ATOM      3  C   UNL A   1     -26.929   1.171  29.008  0.00  0.00    +0.001 A 
ATOM      4  C   UNL A   1     -27.956   1.741  29.784  0.00  0.00    +0.055 A 
ATOM      5  C   UNL A   1     -29.057  -0.327  29.747  0.00  0.00    -0.000 A 
ATOM      6  C   UNL A   1     -28.983   0.972  30.152  0.00  0.00    +0.005 A 
ENDROOT
BRANCH   4   7
ATOM      7  C   UNL A   1     -27.827   3.199  30.195  0.00  0.00    +0.269 C 
ATOM      8  O   UNL A   1     -28.346   3.796  30.917  0.00  0.00    -0.268 OA
ATOM      9  N   UNL A   1     -26.558   3.736  29.736  0.00  0.00    -0.174 NA
BRANCH   9  10
ATOM     10  C   UNL A   1     -26.226   5.086  30.081  0.00  0.00    +0.085 C 
ATOM     11  C   UNL A   1     -25.854   5.475  31.118  0.00  0.00    -0.004 C 
BRANCH  11  12
ATOM     12  C   UNL A   1     -25.313   6.823  31.359  0.00  0.00    +0.053 C 
BRANCH  12  13
ATOM     13  C   UNL A   1     -24.810   7.299  32.622  0.00  0.00    -0.026 C 
ATOM     14  C   UNL A   1     -24.793   6.405  33.710  0.00  0.00    -0.030 C 
ATOM     15  C   UNL A   1     -25.248   5.087  33.524  0.00  0.00    +0.030 C 
ENDBRANCH  12  13
ENDBRANCH  11  12
ENDBRANCH   9  10
ENDBRANCH   4   7
BRANCH   2  16
ATOM     16  C   UNL A   1     -25.881  -0.626  27.794  0.00  0.00    +0.045 C 
BRANCH  16  17
ATOM     17  C   UNL A   1     -25.422   0.130  26.710  0.00  0.00    -0.036 C 
ATOM     18  C   UNL A   1     -26.069   1.244  26.267  0.00  0.00    -0.008 C 
ATOM     19  C   UNL A   1     -25.693   1.819  25.120  0.00  0.00    -0.005 C 
ATOM     20  C   UNL A   1     -24.472   1.368  24.617  0.00  0.00    -0.022 C 
ATOM     21  C   UNL A   1     -24.323  -0.011  25.843  0.00  0.00    +0.048 C 
ENDBRANCH  16  17
BRANCH  16  22
ATOM     22  C   UNL A   1     -25.033  -1.682  28.240  0.00  0.00    +0.035 C 
BRANCH  22  23
ATOM     23  C   UNL A   1     -23.863  -1.438  29.026  0.00  0.00    -0.021 A 
ATOM     24  C   UNL A   1     -23.225  -2.300  29.684  0.00  0.00    -0.004 A 
ATOM     25  C   UNL A   1     -23.084  -0.183  28.618  0.00  0.00    -0.004 A 
ATOM     26  C   UNL A   1     -21.765   0.026  29.234  0.00  0.00    -0.000 A 
ATOM     27  C   UNL A   1     -22.035  -1.896  30.425  0.00  0.00    -0.000 A 
ATOM     28  C   UNL A   1     -21.332  -0.734  30.181  0.00  0.00    -0.000 A 
ENDBRANCH  22  23
ENDBRANCH  16  22
ENDBRANCH   2  16
TORSDOF 8
