MODEL 3551
MODEL 1
REMARK VINA RESULT:    -7.637      0.000      0.000
REMARK INTER + INTRA:         -13.096
REMARK INTER:                 -11.208
REMARK INTRA:                  -1.888
REMARK UNBOUND:                -1.888
REMARK  Name = No_3551-gen_results/8p0m/2024-11-26-14-13-15/
REMARK  8 active torsions:
REMARK  status: ('A' for Active; 'I' for Inactive)
REMARK    1  A    between atoms: C_2  and  C_7
REMARK    2  A    between atoms: C_4  and  C_20
REMARK    3  A    between atoms: C_7  and  C_8
REMARK    4  A    between atoms: C_7  and  C_9
REMARK    5  A    between atoms: C_9  and  C_10
REMARK    6  A    between atoms: N_22  and  C_23
REMARK    7  A    between atoms: C_24  and  C_25
REMARK    8  A    between atoms: C_25  and  C_26
REMARK                            x       y       z     vdW  Elec       q    Type
REMARK                         _______ _______ _______ _____ _____    ______ ____
ROOT
ATOM      1  C   UNL A   1     -22.235   0.110  28.719  0.00  0.00    -0.004 A 
ATOM      2  C   UNL A   1     -23.419   0.343  28.785  0.00  0.00    -0.018 A 
ATOM      3  C   UNL A   1     -24.025   1.382  28.157  0.00  0.00    +0.001 A 
ATOM      4  C   UNL A   1     -23.231   2.247  27.380  0.00  0.00    +0.055 A 
ATOM      5  C   UNL A   1     -21.380   0.895  27.865  0.00  0.00    -0.000 A 
ATOM      6  C   UNL A   1     -21.933   1.969  27.236  0.00  0.00    +0.005 A 
ENDROOT
BRANCH   4   7
ATOM      7  C   UNL A   1     -23.900   3.437  26.712  0.00  0.00    +0.269 C 
ATOM      8  O   UNL A   1     -24.167   3.641  25.695  0.00  0.00    -0.268 OA
ATOM      9  N   UNL A   1     -24.561   4.262  27.708  0.00  0.00    -0.174 NA
BRANCH   9  10
ATOM     10  C   UNL A   1     -25.302   5.404  27.264  0.00  0.00    +0.085 C 
ATOM     11  C   UNL A   1     -24.903   6.495  27.139  0.00  0.00    -0.004 C 
BRANCH  11  12
ATOM     12  C   UNL A   1     -25.637   7.581  26.468  0.00  0.00    +0.053 C 
BRANCH  12  13
ATOM     13  C   UNL A   1     -26.444   8.570  27.136  0.00  0.00    -0.026 C 
ATOM     14  C   UNL A   1     -27.546   9.107  26.442  0.00  0.00    -0.030 C 
ATOM     15  C   UNL A   1     -27.827   8.652  25.141  0.00  0.00    +0.030 C 
ENDBRANCH  12  13
ENDBRANCH  11  12
ENDBRANCH   9  10
ENDBRANCH   4   7
BRANCH   2  16
ATOM     16  C   UNL A   1     -24.385  -0.530  29.577  0.00  0.00    +0.045 C 
BRANCH  16  17
ATOM     17  C   UNL A   1     -24.561  -0.290  30.944  0.00  0.00    -0.036 C 
ATOM     18  C   UNL A   1     -23.923  -1.016  31.904  0.00  0.00    -0.008 C 
ATOM     19  C   UNL A   1     -24.267  -0.868  33.187  0.00  0.00    -0.005 C 
ATOM     20  C   UNL A   1     -25.076   0.238  33.448  0.00  0.00    -0.022 C 
ATOM     21  C   UNL A   1     -25.354   0.626  31.659  0.00  0.00    +0.048 C 
ENDBRANCH  16  17
BRANCH  16  22
ATOM     22  C   UNL A   1     -25.333  -1.394  28.954  0.00  0.00    +0.035 C 
BRANCH  22  23
ATOM     23  C   UNL A   1     -25.104  -2.798  28.811  0.00  0.00    -0.021 A 
ATOM     24  C   UNL A   1     -24.006  -3.340  28.521  0.00  0.00    -0.004 A 
ATOM     25  C   UNL A   1     -26.118  -3.677  29.550  0.00  0.00    -0.004 A 
ATOM     26  C   UNL A   1     -25.837  -5.119  29.627  0.00  0.00    -0.000 A 
ATOM     27  C   UNL A   1     -23.928  -4.794  28.429  0.00  0.00    -0.000 A 
ATOM     28  C   UNL A   1     -24.854  -5.652  28.986  0.00  0.00    -0.000 A 
ENDBRANCH  22  23
ENDBRANCH  16  22
ENDBRANCH   2  16
TORSDOF 8
ENDMDL
ENDMDL
