REMARK  Name = No_3553-gen_results/8p0m/2024-11-26-14-13-15/
REMARK  6 active torsions:
REMARK  status: ('A' for Active; 'I' for Inactive)
REMARK    1  A    between atoms: C_1  and  C_2
REMARK    2  A    between atoms: C_5  and  C_11
REMARK    3  A    between atoms: N_8  and  C_9
REMARK    4  A    between atoms: N_8  and  C_10
REMARK    5  A    between atoms: C_16  and  C_25
REMARK    6  A    between atoms: N_26  and  C_28
REMARK                            x       y       z     vdW  Elec       q    Type
REMARK                         _______ _______ _______ _____ _____    ______ ____
ROOT
ATOM      1  C   UNL A   1     -28.016  -0.814  28.878  0.00  0.00    +0.258 C 
ATOM      2  N   UNL A   1     -29.188  -0.147  29.092  0.00  0.00    -0.219 N 
ATOM      3  O   UNL A   1     -27.913  -1.962  29.463  0.00  0.00    -0.269 OA
ENDROOT
BRANCH   1   4
ATOM      4  C   UNL A   1     -27.064  -0.119  28.608  0.00  0.00    +0.054 A 
ATOM      5  C   UNL A   1     -25.792  -0.430  29.076  0.00  0.00    +0.005 A 
ATOM      6  C   UNL A   1     -24.546   0.349  28.823  0.00  0.00    +0.007 A 
ATOM      7  C   UNL A   1     -24.659   1.420  27.888  0.00  0.00    +0.080 A 
ATOM      8  C   UNL A   1     -25.947   1.681  27.379  0.00  0.00    +0.007 A 
ATOM      9  C   UNL A   1     -27.044   0.974  27.687  0.00  0.00    +0.005 A 
BRANCH   7  10
ATOM     10  C   UNL A   1     -23.459   2.163  27.605  0.00  0.00    +0.388 C 
ATOM     11  O   UNL A   1     -22.314   1.906  28.079  0.00  0.00    -0.241 OA
ATOM     12  O   UNL A   1     -23.548   3.016  26.555  0.00  0.00    -0.241 OA
ENDBRANCH   7  10
ENDBRANCH   1   4
BRANCH   2  13
ATOM     13  C   UNL A   1     -29.601   0.163  30.327  0.00  0.00    +0.060 A 
ATOM     14  C   UNL A   1     -29.615   1.600  30.535  0.00  0.00    +0.015 A 
ATOM     15  C   UNL A   1     -29.932   2.125  31.811  0.00  0.00    +0.001 A 
ATOM     16  C   UNL A   1     -30.377   1.177  32.781  0.00  0.00    +0.000 A 
ATOM     17  C   UNL A   1     -30.025  -0.685  31.272  0.00  0.00    +0.015 A 
ATOM     18  C   UNL A   1     -30.435  -0.182  32.513  0.00  0.00    +0.001 A 
ENDBRANCH   2  13
BRANCH   2  19
ATOM     19  C   UNL A   1     -30.267  -0.619  28.188  0.00  0.00    +0.142 A 
ATOM     20  C   UNL A   1     -31.399   0.284  27.970  0.00  0.00    +0.040 A 
ATOM     21  C   UNL A   1     -32.081   0.196  26.919  0.00  0.00    +0.060 A 
ATOM     22  C   UNL A   1     -31.915  -0.923  26.030  0.00  0.00    +0.025 A 
ATOM     23  C   UNL A   1     -30.878  -1.658  26.054  0.00  0.00    +0.101 A 
ATOM     24  N   UNL A   1     -29.983  -1.374  27.137  0.00  0.00    -0.229 NA
BRANCH  21  25
ATOM     25  C   UNL A   1     -33.410   0.958  26.774  0.00  0.00    +0.269 C 
ATOM     26  N   UNL A   1     -33.707   1.803  27.663  0.00  0.00    -0.174 NA
ATOM     27  O   UNL A   1     -33.931   1.088  25.670  0.00  0.00    -0.268 OA
BRANCH  26  28
ATOM     28  C   UNL A   1     -34.636   2.428  27.926  0.00  0.00    +0.084 C 
ATOM     29  C   UNL A   1     -34.701   3.260  29.014  0.00  0.00    -0.008 C 
ATOM     30  C   UNL A   1     -35.704   4.037  29.519  0.00  0.00    +0.032 C 
ENDBRANCH  26  28
ENDBRANCH  21  25
ENDBRANCH   2  19
TORSDOF 6
