MODEL 3554
MODEL 1
REMARK VINA RESULT:    -8.277      0.000      0.000
REMARK INTER + INTRA:         -14.671
REMARK INTER:                 -12.148
REMARK INTRA:                  -2.523
REMARK UNBOUND:                -2.523
REMARK  Name = No_3554-gen_results/8p0m/2024-11-26-14-13-15/
REMARK  8 active torsions:
REMARK  status: ('A' for Active; 'I' for Inactive)
REMARK    1  A    between atoms: C_1  and  C_2
REMARK    2  A    between atoms: C_1  and  N_8
REMARK    3  A    between atoms: C_3  and  C_24
REMARK    4  A    between atoms: N_8  and  C_9
REMARK    5  A    between atoms: N_8  and  C_18
REMARK    6  A    between atoms: C_9  and  C_10
REMARK    7  A    between atoms: C_10  and  C_11
REMARK    8  A    between atoms: C_24  and  C_25
REMARK                            x       y       z     vdW  Elec       q    Type
REMARK                         _______ _______ _______ _____ _____    ______ ____
ROOT
ATOM      1  C   UNL A   1      -9.115   1.065  34.533  0.00  0.00    +0.118 C 
ENDROOT
BRANCH   1   2
ATOM      2  C   UNL A   1      -9.200   2.264  34.666  0.00  0.00    +0.001 A 
ATOM      3  C   UNL A   1     -10.397   2.954  34.634  0.00  0.00    +0.037 A 
ATOM      4  C   UNL A   1     -10.545   4.395  34.711  0.00  0.00    +0.014 A 
ATOM      5  C   UNL A   1      -9.386   5.192  34.842  0.00  0.00    +0.058 A 
ATOM      6  C   UNL A   1      -8.130   4.485  34.863  0.00  0.00    +0.011 A 
ATOM      7  C   UNL A   1      -8.011   3.120  34.751  0.00  0.00    -0.002 A 
ATOM      8 CL   UNL A   1      -9.447   6.854  34.990  0.00  0.00    -0.082 Cl
BRANCH   3   9
ATOM      9  C   UNL A   1     -11.654   2.246  34.533  0.00  0.00    +0.195 C 
ATOM     10  O   UNL A   1     -11.884   1.552  33.480  0.00  0.00    -0.287 OA
BRANCH   9  11
ATOM     11  C   UNL A   1     -12.609   2.340  35.540  0.00  0.00    +0.040 A 
ATOM     12  C   UNL A   1     -13.787   2.924  35.308  0.00  0.00    +0.003 A 
ATOM     13  C   UNL A   1     -12.253   2.018  36.897  0.00  0.00    +0.015 A 
ATOM     14  C   UNL A   1     -13.065   2.348  37.945  0.00  0.00    +0.058 A 
ATOM     15  C   UNL A   1     -14.755   3.174  36.372  0.00  0.00    +0.001 A 
ATOM     16  C   UNL A   1     -14.383   2.857  37.674  0.00  0.00    +0.011 A 
ATOM     17 CL   UNL A   1     -12.656   1.979  39.529  0.00  0.00    -0.082 Cl
ENDBRANCH   9  11
ENDBRANCH   3   9
ENDBRANCH   1   2
BRANCH   1  18
ATOM     18  N   UNL A   1      -8.530   0.305  35.534  0.00  0.00    -0.303 N 
BRANCH  18  19
ATOM     19  C   UNL A   1      -7.155  -0.211  35.206  0.00  0.00    +0.050 A 
ATOM     20  C   UNL A   1      -6.110   0.221  35.638  0.00  0.00    +0.044 A 
ATOM     21  C   UNL A   1      -4.883  -0.353  35.356  0.00  0.00    +0.141 A 
ATOM     22  C   UNL A   1      -4.875  -1.520  34.563  0.00  0.00    +0.030 A 
ATOM     23  C   UNL A   1      -6.111  -2.102  34.285  0.00  0.00    +0.004 A 
ATOM     24  C   UNL A   1      -7.261  -1.510  34.523  0.00  0.00    +0.015 A 
ATOM     25  F   UNL A   1      -3.744   0.207  35.668  0.00  0.00    -0.204 F 
ENDBRANCH  18  19
BRANCH  18  26
ATOM     26  C   UNL A   1      -8.949  -0.021  36.462  0.00  0.00    +0.096 C 
BRANCH  26  27
ATOM     27  C   UNL A   1      -9.686  -0.347  37.127  0.00  0.00    +0.048 C 
BRANCH  27  28
ATOM     28  C   UNL A   1     -10.502  -1.073  38.005  0.00  0.00    -0.021 A 
ATOM     29  C   UNL A   1     -11.323  -1.969  37.554  0.00  0.00    -0.004 A 
ATOM     30  C   UNL A   1     -12.184  -2.722  38.442  0.00  0.00    -0.000 A 
ATOM     31  C   UNL A   1     -12.040  -2.353  39.777  0.00  0.00    -0.000 A 
ATOM     32  C   UNL A   1     -11.206  -1.440  40.216  0.00  0.00    -0.000 A 
ATOM     33  C   UNL A   1     -10.393  -0.814  39.354  0.00  0.00    -0.004 A 
ENDBRANCH  27  28
ENDBRANCH  26  27
ENDBRANCH  18  26
ENDBRANCH   1  18
TORSDOF 8
ENDMDL
ENDMDL
