REMARK  Name = No_3554-gen_results/8p0m/2024-11-26-14-13-15/
REMARK  8 active torsions:
REMARK  status: ('A' for Active; 'I' for Inactive)
REMARK    1  A    between atoms: C_1  and  C_2
REMARK    2  A    between atoms: C_1  and  N_8
REMARK    3  A    between atoms: C_3  and  C_24
REMARK    4  A    between atoms: N_8  and  C_9
REMARK    5  A    between atoms: N_8  and  C_18
REMARK    6  A    between atoms: C_9  and  C_10
REMARK    7  A    between atoms: C_10  and  C_11
REMARK    8  A    between atoms: C_24  and  C_25
REMARK                            x       y       z     vdW  Elec       q    Type
REMARK                         _______ _______ _______ _____ _____    ______ ____
ROOT
ATOM      1  C   UNL A   1     -28.016  -0.814  28.878  0.00  0.00    +0.118 C 
ENDROOT
BRANCH   1   2
ATOM      2  C   UNL A   1     -27.064  -0.119  28.608  0.00  0.00    +0.001 A 
ATOM      3  C   UNL A   1     -27.001   0.691  27.491  0.00  0.00    +0.037 A 
ATOM      4  C   UNL A   1     -25.855   1.482  27.083  0.00  0.00    +0.014 A 
ATOM      5  C   UNL A   1     -24.690   1.453  27.881  0.00  0.00    +0.058 A 
ATOM      6  C   UNL A   1     -24.738   0.601  29.042  0.00  0.00    +0.011 A 
ATOM      7  C   UNL A   1     -25.823  -0.169  29.389  0.00  0.00    -0.002 A 
ATOM      8 CL   UNL A   1     -23.335   2.364  27.531  0.00  0.00    -0.082 Cl
BRANCH   3   9
ATOM      9  C   UNL A   1     -28.142   0.827  26.612  0.00  0.00    +0.195 C 
ATOM     10  O   UNL A   1     -28.211   0.075  25.576  0.00  0.00    -0.287 OA
BRANCH   9  11
ATOM     11  C   UNL A   1     -29.129   1.773  26.865  0.00  0.00    +0.040 A 
ATOM     12  C   UNL A   1     -28.805   3.000  27.280  0.00  0.00    +0.003 A 
ATOM     13  C   UNL A   1     -30.511   1.373  26.906  0.00  0.00    +0.015 A 
ATOM     14  C   UNL A   1     -31.478   2.198  27.409  0.00  0.00    +0.058 A 
ATOM     15  C   UNL A   1     -29.811   3.973  27.696  0.00  0.00    +0.001 A 
ATOM     16  C   UNL A   1     -31.138   3.558  27.730  0.00  0.00    +0.011 A 
ATOM     17 CL   UNL A   1     -33.090   1.738  27.462  0.00  0.00    -0.082 Cl
ENDBRANCH   9  11
ENDBRANCH   3   9
ENDBRANCH   1   2
BRANCH   1  18
ATOM     18  N   UNL A   1     -28.757  -0.548  30.019  0.00  0.00    -0.303 N 
BRANCH  18  19
ATOM     19  C   UNL A   1     -29.494  -1.734  30.578  0.00  0.00    +0.050 A 
ATOM     20  C   UNL A   1     -30.668  -1.982  30.422  0.00  0.00    +0.044 A 
ATOM     21  C   UNL A   1     -31.266  -3.135  30.900  0.00  0.00    +0.141 A 
ATOM     22  C   UNL A   1     -30.442  -4.073  31.558  0.00  0.00    +0.030 A 
ATOM     23  C   UNL A   1     -29.067  -3.848  31.509  0.00  0.00    +0.004 A 
ATOM     24  C   UNL A   1     -28.531  -2.721  31.092  0.00  0.00    +0.015 A 
ATOM     25  F   UNL A   1     -32.559  -3.325  30.893  0.00  0.00    -0.204 F 
ENDBRANCH  18  19
BRANCH  18  26
ATOM     26  C   UNL A   1     -28.932   0.389  30.503  0.00  0.00    +0.096 C 
BRANCH  26  27
ATOM     27  C   UNL A   1     -29.322   1.053  31.209  0.00  0.00    +0.048 C 
BRANCH  27  28
ATOM     28  C   UNL A   1     -29.780   2.173  31.917  0.00  0.00    -0.021 A 
ATOM     29  C   UNL A   1     -29.182   2.558  33.001  0.00  0.00    -0.004 A 
ATOM     30  C   UNL A   1     -29.646   3.704  33.754  0.00  0.00    -0.000 A 
ATOM     31  C   UNL A   1     -30.781   4.292  33.202  0.00  0.00    -0.000 A 
ATOM     32  C   UNL A   1     -31.376   3.887  32.104  0.00  0.00    -0.000 A 
ATOM     33  C   UNL A   1     -30.869   2.853  31.418  0.00  0.00    -0.004 A 
ENDBRANCH  27  28
ENDBRANCH  26  27
ENDBRANCH  18  26
ENDBRANCH   1  18
TORSDOF 8
