REMARK  Name = No_3555-gen_results/8p0m/2024-11-26-14-13-15/
REMARK  4 active torsions:
REMARK  status: ('A' for Active; 'I' for Inactive)
REMARK    1  A    between atoms: C_1  and  C_2
REMARK    2  A    between atoms: C_1  and  N_8
REMARK    3  A    between atoms: C_3  and  C_21
REMARK    4  A    between atoms: C_7  and  C_15
REMARK                            x       y       z     vdW  Elec       q    Type
REMARK                         _______ _______ _______ _____ _____    ______ ____
ROOT
ATOM      1  C   UNL A   1     -27.064  -0.119  28.608  0.00  0.00    +0.003 A 
ATOM      2  C   UNL A   1     -25.792  -0.430  29.076  0.00  0.00    +0.065 A 
ATOM      3  C   UNL A   1     -24.546   0.349  28.823  0.00  0.00    -0.012 A 
ATOM      4  C   UNL A   1     -24.659   1.420  27.888  0.00  0.00    +0.051 A 
ATOM      5  C   UNL A   1     -25.947   1.681  27.379  0.00  0.00    +0.004 A 
ATOM      6  C   UNL A   1     -27.044   0.974  27.687  0.00  0.00    -0.002 A 
ATOM      7  C   UNL A   1     -23.452   2.163  27.596  0.00  0.00    +0.265 C 
ATOM      8  O   UNL A   1     -23.505   3.138  26.871  0.00  0.00    -0.268 OA
ATOM      9  N   UNL A   1     -22.201   1.683  27.944  0.00  0.00    -0.201 NA
ATOM     10  C   UNL A   1     -21.944   0.630  28.815  0.00  0.00    +0.120 C 
ATOM     11  C   UNL A   1     -23.189  -0.102  29.204  0.00  0.00    +0.050 C 
ENDROOT
BRANCH   6  12
ATOM     12  C   UNL A   1     -28.334   1.330  27.079  0.00  0.00    -0.000 A 
ATOM     13  C   UNL A   1     -28.393   1.397  25.762  0.00  0.00    -0.000 A 
ATOM     14  C   UNL A   1     -29.615   1.526  25.120  0.00  0.00    -0.000 A 
ATOM     15  C   UNL A   1     -30.750   1.734  25.859  0.00  0.00    -0.000 A 
ATOM     16  C   UNL A   1     -30.669   1.828  27.244  0.00  0.00    -0.000 A 
ATOM     17  C   UNL A   1     -29.456   1.564  27.910  0.00  0.00    -0.000 A 
ENDBRANCH   6  12
BRANCH   2  18
ATOM     18  C   UNL A   1     -25.484  -1.528  30.046  0.00  0.00    +0.418 C 
ATOM     19  F   UNL A   1     -25.715  -1.308  31.208  0.00  0.00    -0.166 F 
ATOM     20  F   UNL A   1     -24.179  -1.964  29.899  0.00  0.00    -0.166 F 
ATOM     21  F   UNL A   1     -26.180  -2.662  29.542  0.00  0.00    -0.166 F 
ENDBRANCH   2  18
BRANCH   1  22
ATOM     22  C   UNL A   1     -28.016  -0.814  28.878  0.00  0.00    +0.143 C 
BRANCH  22  23
ATOM     23  N   UNL A   1     -28.664  -0.527  30.102  0.00  0.00    -0.187 NA
ATOM     24  C   UNL A   1     -29.665  -0.396  30.441  0.00  0.00    +0.326 C 
ATOM     25 CL   UNL A   1     -30.911  -0.530  29.342  0.00  0.00    -0.021 Cl
ATOM     26  O   UNL A   1     -30.155  -0.416  31.688  0.00  0.00    -0.255 OA
ENDBRANCH  22  23
ENDBRANCH   1  22
TORSDOF 4
