MODEL 3555
MODEL 1
REMARK VINA RESULT:    -6.768      0.000      0.000
REMARK INTER + INTRA:          -8.669
REMARK INTER:                  -8.351
REMARK INTRA:                  -0.318
REMARK UNBOUND:                -0.318
REMARK  Name = No_3555-gen_results/8p0m/2024-11-26-14-13-15/
REMARK  4 active torsions:
REMARK  status: ('A' for Active; 'I' for Inactive)
REMARK    1  A    between atoms: C_1  and  C_2
REMARK    2  A    between atoms: C_1  and  N_8
REMARK    3  A    between atoms: C_3  and  C_21
REMARK    4  A    between atoms: C_7  and  C_15
REMARK                            x       y       z     vdW  Elec       q    Type
REMARK                         _______ _______ _______ _____ _____    ______ ____
ROOT
ATOM      1  C   UNL A   1     -30.059 -10.454  30.212  0.00  0.00    +0.003 A 
ATOM      2  C   UNL A   1     -29.888  -9.774  31.413  0.00  0.00    +0.065 A 
ATOM      3  C   UNL A   1     -28.908 -10.112  32.484  0.00  0.00    -0.012 A 
ATOM      4  C   UNL A   1     -28.196 -11.336  32.315  0.00  0.00    +0.051 A 
ATOM      5  C   UNL A   1     -28.428 -12.042  31.117  0.00  0.00    +0.004 A 
ATOM      6  C   UNL A   1     -29.288 -11.657  30.163  0.00  0.00    -0.002 A 
ATOM      7  C   UNL A   1     -27.270 -11.704  33.364  0.00  0.00    +0.265 C 
ATOM      8  O   UNL A   1     -26.574 -12.694  33.234  0.00  0.00    -0.268 OA
ATOM      9  N   UNL A   1     -27.293 -11.088  34.603  0.00  0.00    -0.201 NA
ATOM     10  C   UNL A   1     -27.968  -9.914  34.919  0.00  0.00    +0.120 C 
ATOM     11  C   UNL A   1     -28.868  -9.462  33.813  0.00  0.00    +0.050 C 
ENDROOT
BRANCH   6  12
ATOM     12  C   UNL A   1     -29.460 -12.486  28.961  0.00  0.00    -0.000 A 
ATOM     13  C   UNL A   1     -30.107 -13.628  29.091  0.00  0.00    -0.000 A 
ATOM     14  C   UNL A   1     -30.480 -14.356  27.971  0.00  0.00    -0.000 A 
ATOM     15  C   UNL A   1     -30.044 -13.963  26.733  0.00  0.00    -0.000 A 
ATOM     16  C   UNL A   1     -29.223 -12.848  26.607  0.00  0.00    -0.000 A 
ATOM     17  C   UNL A   1     -28.952 -12.029  27.720  0.00  0.00    -0.000 A 
ENDBRANCH   6  12
BRANCH   2  18
ATOM     18  C   UNL A   1     -30.565  -8.487  31.768  0.00  0.00    +0.418 C 
ATOM     19  F   UNL A   1     -31.463  -8.547  32.569  0.00  0.00    -0.166 F 
ATOM     20  F   UNL A   1     -30.991  -7.823  30.631  0.00  0.00    -0.166 F 
ATOM     21  F   UNL A   1     -29.509  -7.624  32.175  0.00  0.00    -0.166 F 
ENDBRANCH   2  18
BRANCH   1  22
ATOM     22  C   UNL A   1     -30.880 -10.093  29.401  0.00  0.00    +0.143 C 
BRANCH  22  23
ATOM     23  N   UNL A   1     -32.184 -10.617  29.566  0.00  0.00    -0.187 NA
ATOM     24  C   UNL A   1     -32.913 -11.095  28.955  0.00  0.00    +0.326 C 
ATOM     25 CL   UNL A   1     -32.568 -11.360  27.346  0.00  0.00    -0.021 Cl
ATOM     26  O   UNL A   1     -33.995 -11.803  29.310  0.00  0.00    -0.255 OA
ENDBRANCH  22  23
ENDBRANCH   1  22
TORSDOF 4
ENDMDL
ENDMDL
