MODEL 3556
MODEL 1
REMARK VINA RESULT:    -6.559      0.000      0.000
REMARK INTER + INTRA:          -7.739
REMARK INTER:                  -7.326
REMARK INTRA:                  -0.413
REMARK UNBOUND:                -0.413
REMARK  Name = No_3556-gen_results/8p0m/2024-11-26-14-13-15/
REMARK  2 active torsions:
REMARK  status: ('A' for Active; 'I' for Inactive)
REMARK    1  A    between atoms: C_3  and  C_7
REMARK    2  A    between atoms: C_6  and  P_13
REMARK                            x       y       z     vdW  Elec       q    Type
REMARK                         _______ _______ _______ _____ _____    ______ ____
ROOT
ATOM      1  C   UNL A   1     -28.319 -11.951  31.210  0.00  0.00    +0.003 A 
ATOM      2  C   UNL A   1     -28.957 -11.540  30.268  0.00  0.00    +0.000 A 
ATOM      3  C   UNL A   1     -29.789 -10.423  30.329  0.00  0.00    +0.000 A 
ATOM      4  C   UNL A   1     -29.959  -9.737  31.595  0.00  0.00    +0.000 A 
ATOM      5  C   UNL A   1     -29.220 -10.256  32.658  0.00  0.00    +0.003 A 
ATOM      6  C   UNL A   1     -28.464 -11.327  32.515  0.00  0.00    +0.029 A 
ENDROOT
BRANCH   3   7
ATOM      7  C   UNL A   1     -30.636 -10.087  29.195  0.00  0.00    +0.000 A 
ATOM      8  C   UNL A   1     -30.472 -10.590  27.998  0.00  0.00    +0.000 A 
ATOM      9  C   UNL A   1     -31.203 -10.115  26.859  0.00  0.00    +0.000 A 
ATOM     10  C   UNL A   1     -31.831  -8.889  26.892  0.00  0.00    +0.000 A 
ATOM     11  C   UNL A   1     -31.311  -8.747  29.166  0.00  0.00    +0.000 A 
ATOM     12  C   UNL A   1     -31.882  -8.199  28.045  0.00  0.00    +0.000 A 
ENDBRANCH   3   7
BRANCH   6  13
ATOM     13  P   UNL A   1     -27.610 -11.971  33.965  0.00  0.00    +0.140 P 
ATOM     14  O   UNL A   1     -26.903 -10.887  34.611  0.00  0.00    -0.354 OA
ATOM     15  O   UNL A   1     -26.524 -12.899  33.471  0.00  0.00    -0.354 OA
ATOM     16  O   UNL A   1     -28.499 -12.655  34.883  0.00  0.00    -0.456 OA
ENDBRANCH   6  13
TORSDOF 2
ENDMDL
ENDMDL
