REMARK  Name = No_3556-gen_results/8p0m/2024-11-26-14-13-15/
REMARK  2 active torsions:
REMARK  status: ('A' for Active; 'I' for Inactive)
REMARK    1  A    between atoms: C_3  and  C_7
REMARK    2  A    between atoms: C_6  and  P_13
REMARK                            x       y       z     vdW  Elec       q    Type
REMARK                         _______ _______ _______ _____ _____    ______ ____
ROOT
ATOM      1  C   UNL A   1     -28.016  -0.814  28.878  0.00  0.00    +0.003 A 
ATOM      2  C   UNL A   1     -27.064  -0.119  28.608  0.00  0.00    +0.000 A 
ATOM      3  C   UNL A   1     -25.765  -0.390  29.036  0.00  0.00    +0.000 A 
ATOM      4  C   UNL A   1     -25.530  -1.530  29.901  0.00  0.00    +0.000 A 
ATOM      5  C   UNL A   1     -26.658  -2.292  30.203  0.00  0.00    +0.003 A 
ATOM      6  C   UNL A   1     -27.855  -1.956  29.763  0.00  0.00    +0.029 A 
ENDROOT
BRANCH   3   7
ATOM      7  C   UNL A   1     -24.705   0.577  28.794  0.00  0.00    +0.000 A 
ATOM      8  C   UNL A   1     -24.552   1.212  27.660  0.00  0.00    +0.000 A 
ATOM      9  C   UNL A   1     -23.404   2.025  27.384  0.00  0.00    +0.000 A 
ATOM     10  C   UNL A   1     -22.255   1.890  28.133  0.00  0.00    +0.000 A 
ATOM     11  C   UNL A   1     -23.419   0.449  29.557  0.00  0.00    +0.000 A 
ATOM     12  C   UNL A   1     -22.258   1.098  29.219  0.00  0.00    +0.000 A 
ENDBRANCH   3   7
BRANCH   6  13
ATOM     13  P   UNL A   1     -29.265  -2.957  30.272  0.00  0.00    +0.140 P 
ATOM     14  O   UNL A   1     -29.499  -2.750  31.684  0.00  0.00    -0.354 OA
ATOM     15  O   UNL A   1     -28.851  -4.406  30.158  0.00  0.00    -0.354 OA
ATOM     16  O   UNL A   1     -30.454  -2.694  29.486  0.00  0.00    -0.456 OA
ENDBRANCH   6  13
TORSDOF 2
