MODEL 3557
MODEL 1
REMARK VINA RESULT:    -6.252      0.000      0.000
REMARK INTER + INTRA:          -7.234
REMARK INTER:                  -6.983
REMARK INTRA:                  -0.251
REMARK UNBOUND:                -0.251
REMARK  Name = No_3557-gen_results/8p0m/2024-11-26-14-13-15/
REMARK  2 active torsions:
REMARK  status: ('A' for Active; 'I' for Inactive)
REMARK    1  A    between atoms: C_4  and  C_7
REMARK    2  A    between atoms: CA_9  and  C_12
REMARK                            x       y       z     vdW  Elec       q    Type
REMARK                         _______ _______ _______ _____ _____    ______ ____
ROOT
ATOM      1  C   UNL A   1     -24.131  -1.314  29.037  0.00  0.00    -0.007 C 
ATOM      2  C   UNL A   1     -22.904  -0.963  29.071  0.00  0.00    -0.004 C 
ATOM      3  CA  UNL A   1     -22.447   0.397  28.759  0.00  0.00    +0.159 C 
ATOM      4  C   UNL A   1     -24.577  -0.510  27.835  0.00  0.00    +0.116 C 
ATOM      5  N   UNL A   1     -23.972   0.658  27.666  0.00  0.00    -0.202 NA
ENDROOT
BRANCH   1   9
ATOM      6  C   UNL A   1     -24.332  -5.146  28.800  0.00  0.00    -0.000 A 
ATOM      7  C   UNL A   1     -25.320  -5.259  29.148  0.00  0.00    -0.000 A 
ATOM      8  C   UNL A   1     -23.832  -3.768  28.672  0.00  0.00    -0.000 A 
ATOM      9  C   UNL A   1     -24.611  -2.668  29.137  0.00  0.00    -0.003 A 
ATOM     10  C   UNL A   1     -25.857  -2.976  29.623  0.00  0.00    -0.000 A 
ATOM     11  C   UNL A   1     -26.275  -4.257  29.693  0.00  0.00    -0.000 A 
ENDBRANCH   1   9
BRANCH   3  12
ATOM     12  C   UNL A   1     -22.596   0.942  28.171  0.00  0.00    +0.229 C 
ATOM     13  O   UNL A   1     -22.708   2.175  27.920  0.00  0.00    -0.286 OA
ENDBRANCH   3  12
TORSDOF 2
ENDMDL
ENDMDL
