MODEL 3558
MODEL 1
REMARK VINA RESULT:    -6.871      0.000      0.000
REMARK INTER + INTRA:          -9.024
REMARK INTER:                  -8.076
REMARK INTRA:                  -0.948
REMARK UNBOUND:                -0.948
REMARK  Name = No_3558-gen_results/8p0m/2024-11-26-14-13-15/
REMARK  3 active torsions:
REMARK  status: ('A' for Active; 'I' for Inactive)
REMARK    1  A    between atoms: C_2  and  C_14
REMARK    2  A    between atoms: C_9  and  C_11
REMARK    3  A    between atoms: N_12  and  C_17
REMARK                            x       y       z     vdW  Elec       q    Type
REMARK                         _______ _______ _______ _____ _____    ______ ____
ROOT
ATOM      1  C   UNL A   1     -27.278   2.535  25.080  0.00  0.00    +0.007 A 
ATOM      2  C   UNL A   1     -27.767   1.696  24.671  0.00  0.00    +0.080 A 
ATOM      3  C   UNL A   1     -25.945   2.255  25.737  0.00  0.00    +0.000 A 
ATOM      4  C   UNL A   1     -25.152   3.191  26.492  0.00  0.00    +0.000 A 
ATOM      5  C   UNL A   1     -27.309   0.324  24.414  0.00  0.00    +0.007 A 
ATOM      6  C   UNL A   1     -26.086  -0.001  24.960  0.00  0.00    +0.000 A 
ATOM      7  C   UNL A   1     -25.344   0.950  25.611  0.00  0.00    +0.000 A 
ATOM      8  C   UNL A   1     -24.122   2.746  27.326  0.00  0.00    +0.005 A 
ATOM      9  C   UNL A   1     -23.572   1.462  27.129  0.00  0.00    +0.058 A 
ATOM     10  C   UNL A   1     -24.191   0.568  26.374  0.00  0.00    +0.005 A 
ENDROOT
BRANCH   9  11
ATOM     11  C   UNL A   1     -22.364   1.118  27.931  0.00  0.00    +0.279 C 
ATOM     12  N   UNL A   1     -21.931   0.348  28.829  0.00  0.00    -0.208 NA
ATOM     13  O   UNL A   1     -21.294   1.705  27.354  0.00  0.00    -0.265 OA
BRANCH  12  14
ATOM     14  C   UNL A   1     -22.905  -0.406  29.628  0.00  0.00    +0.085 A 
ATOM     15  C   UNL A   1     -23.873   0.192  30.317  0.00  0.00    +0.019 A 
ATOM     16  C   UNL A   1     -25.088  -0.616  30.564  0.00  0.00    +0.002 A 
ATOM     17  C   UNL A   1     -25.144  -1.933  29.906  0.00  0.00    +0.000 A 
ATOM     18  C   UNL A   1     -24.110  -2.483  29.162  0.00  0.00    +0.002 A 
ATOM     19  C   UNL A   1     -23.076  -1.678  28.974  0.00  0.00    +0.019 A 
ENDBRANCH  12  14
ENDBRANCH   9  11
BRANCH   2  20
ATOM     20  C   UNL A   1     -29.152   1.961  23.913  0.00  0.00    +0.388 C 
ATOM     21  O   UNL A   1     -29.705   0.973  23.320  0.00  0.00    -0.241 OA
ATOM     22  O   UNL A   1     -29.711   3.029  24.049  0.00  0.00    -0.241 OA
ENDBRANCH   2  20
TORSDOF 3
ENDMDL
ENDMDL
