REMARK  Name = No_3558-gen_results/8p0m/2024-11-26-14-13-15/
REMARK  3 active torsions:
REMARK  status: ('A' for Active; 'I' for Inactive)
REMARK    1  A    between atoms: C_2  and  C_14
REMARK    2  A    between atoms: C_9  and  C_11
REMARK    3  A    between atoms: N_12  and  C_17
REMARK                            x       y       z     vdW  Elec       q    Type
REMARK                         _______ _______ _______ _____ _____    ______ ____
ROOT
ATOM      1  C   UNL A   1     -28.016  -0.814  28.878  0.00  0.00    +0.007 A 
ATOM      2  C   UNL A   1     -28.469  -0.785  29.829  0.00  0.00    +0.080 A 
ATOM      3  C   UNL A   1     -26.504  -0.778  28.877  0.00  0.00    +0.000 A 
ATOM      4  C   UNL A   1     -25.654  -0.660  27.719  0.00  0.00    +0.000 A 
ATOM      5  C   UNL A   1     -27.918  -0.937  31.182  0.00  0.00    +0.007 A 
ATOM      6  C   UNL A   1     -26.542  -0.940  31.261  0.00  0.00    +0.000 A 
ATOM      7  C   UNL A   1     -25.783  -0.893  30.120  0.00  0.00    +0.000 A 
ATOM      8  C   UNL A   1     -24.310  -0.301  27.853  0.00  0.00    +0.005 A 
ATOM      9  C   UNL A   1     -23.667  -0.460  29.099  0.00  0.00    +0.058 A 
ATOM     10  C   UNL A   1     -24.370  -0.664  30.203  0.00  0.00    +0.005 A 
ENDROOT
BRANCH   9  11
ATOM     11  C   UNL A   1     -22.195  -0.229  29.131  0.00  0.00    +0.279 C 
ATOM     12  N   UNL A   1     -21.288   0.567  28.772  0.00  0.00    -0.208 NA
ATOM     13  O   UNL A   1     -21.657  -1.070  30.039  0.00  0.00    -0.265 OA
BRANCH  12  14
ATOM     14  C   UNL A   1     -21.613   1.584  27.764  0.00  0.00    +0.085 A 
ATOM     15  C   UNL A   1     -21.401   1.389  26.465  0.00  0.00    +0.019 A 
ATOM     16  C   UNL A   1     -22.270   2.155  25.544  0.00  0.00    +0.002 A 
ATOM     17  C   UNL A   1     -23.355   2.936  26.163  0.00  0.00    +0.000 A 
ATOM     18  C   UNL A   1     -23.546   3.064  27.531  0.00  0.00    +0.002 A 
ATOM     19  C   UNL A   1     -22.739   2.323  28.274  0.00  0.00    +0.019 A 
ENDBRANCH  12  14
ENDBRANCH   9  11
BRANCH   2  20
ATOM     20  C   UNL A   1     -30.066  -0.883  29.876  0.00  0.00    +0.388 C 
ATOM     21  O   UNL A   1     -30.692  -0.058  30.624  0.00  0.00    -0.241 OA
ATOM     22  O   UNL A   1     -30.641  -1.615  29.098  0.00  0.00    -0.241 OA
ENDBRANCH   2  20
TORSDOF 3
