MODEL 3559
MODEL 1
REMARK VINA RESULT:    -3.514      0.000      0.000
REMARK INTER + INTRA:          -3.779
REMARK INTER:                  -3.719
REMARK INTRA:                  -0.059
REMARK UNBOUND:                -0.059
REMARK  Name = No_3559-gen_results/8p0m/2024-11-26-14-13-15/
REMARK  1 active torsions:
REMARK  status: ('A' for Active; 'I' for Inactive)
REMARK    1  A    between atoms: C_3  and  C_4
REMARK                            x       y       z     vdW  Elec       q    Type
REMARK                         _______ _______ _______ _____ _____    ______ ____
ROOT
ATOM      1 CL   UNL A   1      -9.267 -10.425  17.656  0.00  0.00    -0.081 Cl
ATOM      2  C   UNL A   1      -9.987  -9.789  18.410  0.00  0.00    +0.068 C 
ATOM      3  C   UNL A   1      -9.431  -9.337  19.568  0.00  0.00    +0.012 C 
ENDROOT
BRANCH   3   4
ATOM      4  C   UNL A   1      -8.059  -9.551  19.949  0.00  0.00    +0.001 C 
ATOM      5  C   UNL A   1      -7.247  -8.352  19.784  0.00  0.00    +0.000 C 
ENDBRANCH   3   4
TORSDOF 1
ENDMDL
ENDMDL
