MODEL 355
MODEL 1
REMARK VINA RESULT:    -3.528      0.000      0.000
REMARK INTER + INTRA:          -3.799
REMARK INTER:                  -3.734
REMARK INTRA:                  -0.064
REMARK UNBOUND:                -0.064
REMARK  Name = No_355-gen_results/8p0m/2024-11-26-14-13-15/
REMARK  1 active torsions:
REMARK  status: ('A' for Active; 'I' for Inactive)
REMARK    1  A    between atoms: C_3  and  C_4
REMARK                            x       y       z     vdW  Elec       q    Type
REMARK                         _______ _______ _______ _____ _____    ______ ____
ROOT
ATOM      1 CL   UNL A   1      -9.044 -10.662  17.640  0.00  0.00    -0.081 Cl
ATOM      2  C   UNL A   1      -9.894  -9.908  18.390  0.00  0.00    +0.068 C 
ATOM      3  C   UNL A   1      -9.469  -9.329  19.546  0.00  0.00    +0.012 C 
ENDROOT
BRANCH   3   4
ATOM      4  C   UNL A   1      -8.092  -9.535  20.016  0.00  0.00    +0.001 C 
ATOM      5  C   UNL A   1      -7.255  -8.396  19.817  0.00  0.00    +0.000 C 
ENDBRANCH   3   4
TORSDOF 1
ENDMDL
ENDMDL
