REMARK  Name = No_356-gen_results/8p0m/2024-11-26-14-13-15/
REMARK  3 active torsions:
REMARK  status: ('A' for Active; 'I' for Inactive)
REMARK    1  A    between atoms: C_1  and  C_2
REMARK    2  A    between atoms: C_1  and  C_3
REMARK    3  A    between atoms: C_2  and  C_5
REMARK                            x       y       z     vdW  Elec       q    Type
REMARK                         _______ _______ _______ _____ _____    ______ ____
ROOT
ATOM      1  C   UNL A   1     -28.016  -0.814  28.878  0.00  0.00    +0.035 C 
ENDROOT
BRANCH   1   2
ATOM      2  C   UNL A   1     -27.087   0.290  28.638  0.00  0.00    -0.022 A 
ATOM      3  C   UNL A   1     -26.910   0.849  27.420  0.00  0.00    -0.004 A 
ATOM      4  C   UNL A   1     -25.723   1.321  27.041  0.00  0.00    -0.000 A 
ATOM      5  C   UNL A   1     -24.623   1.536  27.941  0.00  0.00    -0.000 A 
ATOM      6  C   UNL A   1     -24.767   0.941  29.193  0.00  0.00    -0.000 A 
ATOM      7  C   UNL A   1     -25.951   0.247  29.456  0.00  0.00    -0.004 A 
ENDBRANCH   1   2
BRANCH   1   8
ATOM      8  C   UNL A   1     -28.469  -0.785  29.829  0.00  0.00    +0.108 C 
BRANCH   8   9
ATOM      9  C   UNL A   1     -29.607  -1.627  30.134  0.00  0.00    +0.398 C 
ATOM     10  F   UNL A   1     -30.357  -1.547  29.295  0.00  0.00    -0.170 F 
ATOM     11  F   UNL A   1     -29.370  -2.967  30.288  0.00  0.00    -0.170 F 
ATOM     12  F   UNL A   1     -30.252  -1.371  31.296  0.00  0.00    -0.170 F 
ENDBRANCH   8   9
ENDBRANCH   1   8
TORSDOF 3
