REMARK  Name = No_3560-gen_results/8p0m/2024-11-26-14-13-15/
REMARK  4 active torsions:
REMARK  status: ('A' for Active; 'I' for Inactive)
REMARK    1  A    between atoms: C_8  and  C_16
REMARK    2  A    between atoms: C_16  and  O_17
REMARK    3  A    between atoms: O_17  and  C_19
REMARK    4  A    between atoms: C_19  and  C_20
REMARK                            x       y       z     vdW  Elec       q    Type
REMARK                         _______ _______ _______ _____ _____    ______ ____
ROOT
ATOM      1  C   UNL A   1     -28.016  -0.814  28.878  0.00  0.00    +0.000 A 
ATOM      2  C   UNL A   1     -28.469  -0.785  29.829  0.00  0.00    +0.000 A 
ATOM      3  C   UNL A   1     -27.087   0.290  28.638  0.00  0.00    +0.001 A 
ATOM      4  C   UNL A   1     -26.252   0.411  27.422  0.00  0.00    +0.007 A 
ATOM      5  C   UNL A   1     -29.431  -1.931  30.271  0.00  0.00    +0.000 A 
ATOM      6  C   UNL A   1     -25.146   1.240  27.356  0.00  0.00    +0.035 A 
ATOM      7  C   UNL A   1     -24.781   1.984  28.503  0.00  0.00    +0.013 A 
ATOM      8  C   UNL A   1     -25.474   1.847  29.636  0.00  0.00    +0.076 A 
ATOM      9  C   UNL A   1     -26.503   1.002  29.769  0.00  0.00    +0.006 A 
ATOM     10  C   UNL A   1     -30.178  -1.960  31.436  0.00  0.00    +0.000 A 
ATOM     11  C   UNL A   1     -29.943  -0.898  32.352  0.00  0.00    +0.000 A 
ATOM     12  C   UNL A   1     -29.107   0.106  32.094  0.00  0.00    +0.000 A 
ATOM     13  C   UNL A   1     -28.433   0.189  30.970  0.00  0.00    +0.000 A 
ATOM     14  C   UNL A   1     -27.337   1.072  30.743  0.00  0.00    +0.000 A 
ATOM     15 BR   UNL A   1     -24.213   1.271  25.729  0.00  0.00    -0.049 Br
ENDROOT
BRANCH   8  16
ATOM     16  C   UNL A   1     -24.962   2.703  30.781  0.00  0.00    +0.341 C 
ATOM     17  O   UNL A   1     -23.681   2.892  30.786  0.00  0.00    -0.245 OA
BRANCH  16  18
ATOM     18  O   UNL A   1     -25.615   2.899  31.659  0.00  0.00    -0.443 OA
BRANCH  18  19
ATOM     19  C   UNL A   1     -25.442   4.157  32.427  0.00  0.00    +0.241 C 
BRANCH  19  20
ATOM     20  C   UNL A   1     -26.260   4.177  33.620  0.00  0.00    +0.196 C 
ATOM     21  C   UNL A   1     -27.425   4.948  33.361  0.00  0.00    +0.213 C 
ATOM     22  C   UNL A   1     -28.552   4.219  33.530  0.00  0.00    +0.009 C 
ATOM     23  C   UNL A   1     -28.430   3.167  34.358  0.00  0.00    +0.004 C 
ATOM     24  C   UNL A   1     -27.312   2.432  34.640  0.00  0.00    +0.168 C 
ATOM     25  O   UNL A   1     -26.367   2.839  33.909  0.00  0.00    -0.344 OA
ATOM     26  F   UNL A   1     -27.385   5.610  32.150  0.00  0.00    -0.230 F 
ENDBRANCH  19  20
ENDBRANCH  18  19
ENDBRANCH  16  18
ENDBRANCH   8  16
TORSDOF 4
