MODEL 3560
MODEL 1
REMARK VINA RESULT:    -7.626      0.000      0.000
REMARK INTER + INTRA:         -10.885
REMARK INTER:                  -9.409
REMARK INTRA:                  -1.475
REMARK UNBOUND:                -1.475
REMARK  Name = No_3560-gen_results/8p0m/2024-11-26-14-13-15/
REMARK  4 active torsions:
REMARK  status: ('A' for Active; 'I' for Inactive)
REMARK    1  A    between atoms: C_8  and  C_16
REMARK    2  A    between atoms: C_16  and  O_17
REMARK    3  A    between atoms: O_17  and  C_19
REMARK    4  A    between atoms: C_19  and  C_20
REMARK                            x       y       z     vdW  Elec       q    Type
REMARK                         _______ _______ _______ _____ _____    ______ ____
ROOT
ATOM      1  C   UNL A   1     -25.853  -1.890  30.864  0.00  0.00    +0.000 A 
ATOM      2  C   UNL A   1     -25.474  -2.646  30.235  0.00  0.00    +0.000 A 
ATOM      3  C   UNL A   1     -24.990  -0.713  30.951  0.00  0.00    +0.001 A 
ATOM      4  C   UNL A   1     -25.354   0.519  31.686  0.00  0.00    +0.007 A 
ATOM      5  C   UNL A   1     -26.309  -3.938  29.975  0.00  0.00    +0.000 A 
ATOM      6  C   UNL A   1     -24.713   1.728  31.479  0.00  0.00    +0.035 A 
ATOM      7  C   UNL A   1     -23.686   1.799  30.508  0.00  0.00    +0.013 A 
ATOM      8  C   UNL A   1     -23.380   0.722  29.781  0.00  0.00    +0.076 A 
ATOM      9  C   UNL A   1     -24.022  -0.446  29.893  0.00  0.00    +0.006 A 
ATOM     10  C   UNL A   1     -25.884  -5.051  29.270  0.00  0.00    +0.000 A 
ATOM     11  C   UNL A   1     -24.618  -4.938  28.634  0.00  0.00    +0.000 A 
ATOM     12  C   UNL A   1     -23.845  -3.860  28.751  0.00  0.00    +0.000 A 
ATOM     13  C   UNL A   1     -24.197  -2.816  29.465  0.00  0.00    +0.000 A 
ATOM     14  C   UNL A   1     -23.556  -1.544  29.416  0.00  0.00    +0.000 A 
ATOM     15 BR   UNL A   1     -25.303   3.181  32.508  0.00  0.00    -0.049 Br
ENDROOT
BRANCH   8  16
ATOM     16  C   UNL A   1     -22.264   0.951  28.777  0.00  0.00    +0.341 C 
ATOM     17  O   UNL A   1     -21.214   0.214  28.955  0.00  0.00    -0.245 OA
BRANCH  16  18
ATOM     18  O   UNL A   1     -22.274   1.861  28.137  0.00  0.00    -0.443 OA
BRANCH  18  19
ATOM     19  C   UNL A   1     -22.638   1.737  26.704  0.00  0.00    +0.241 C 
BRANCH  19  20
ATOM     20  C   UNL A   1     -23.930   2.326  26.423  0.00  0.00    +0.196 C 
ATOM     21  C   UNL A   1     -24.904   1.292  26.385  0.00  0.00    +0.213 C 
ATOM     22  C   UNL A   1     -25.874   1.488  27.308  0.00  0.00    +0.009 C 
ATOM     23  C   UNL A   1     -26.045   2.766  27.690  0.00  0.00    +0.004 C 
ATOM     24  C   UNL A   1     -25.128   3.779  27.706  0.00  0.00    +0.168 C 
ATOM     25  O   UNL A   1     -24.003   3.310  27.378  0.00  0.00    -0.344 OA
ATOM     26  F   UNL A   1     -24.358   0.025  26.434  0.00  0.00    -0.230 F 
ENDBRANCH  19  20
ENDBRANCH  18  19
ENDBRANCH  16  18
ENDBRANCH   8  16
TORSDOF 4
ENDMDL
ENDMDL
