MODEL 3561
MODEL 1
REMARK VINA RESULT:    -6.771      0.000      0.000
REMARK INTER + INTRA:         -14.081
REMARK INTER:                 -11.125
REMARK INTRA:                  -2.956
REMARK UNBOUND:                -2.956
REMARK  Name = No_3561-gen_results/8p0m/2024-11-26-14-13-15/
REMARK  11 active torsions:
REMARK  status: ('A' for Active; 'I' for Inactive)
REMARK    1  A    between atoms: C_3  and  C_11
REMARK    2  A    between atoms: C_5  and  O_7
REMARK    3  A    between atoms: C_11  and  C_12
REMARK    4  A    between atoms: C_12  and  C_14
REMARK    5  A    between atoms: C_13  and  C_16
REMARK    6  A    between atoms: C_16  and  C_21
REMARK    7  A    between atoms: C_19  and  C_25
REMARK    8  A    between atoms: C_22  and  C_23
REMARK    9  A    between atoms: N_24  and  C_28
REMARK   10  A    between atoms: C_25  and  C_27
REMARK   11  A    between atoms: C_28  and  C_29
REMARK                            x       y       z     vdW  Elec       q    Type
REMARK                         _______ _______ _______ _____ _____    ______ ____
ROOT
ATOM      1  C   UNL A   1     -23.674   0.024  30.091  0.00  0.00    -0.022 C 
ATOM      2  C   UNL A   1     -22.562   0.370  29.773  0.00  0.00    -0.025 C 
ENDROOT
BRANCH   1   3
ATOM      3  C   UNL A   1     -23.886   0.143  31.625  0.00  0.00    -0.004 A 
ATOM      4  C   UNL A   1     -23.672  -0.921  32.457  0.00  0.00    -0.000 A 
ATOM      5  C   UNL A   1     -24.013  -1.138  33.511  0.00  0.00    -0.000 A 
ATOM      6  C   UNL A   1     -25.084  -0.544  34.072  0.00  0.00    -0.003 A 
ATOM      7  C   UNL A   1     -25.465   0.735  33.477  0.00  0.00    -0.002 A 
ATOM      8  C   UNL A   1     -25.033   0.933  32.165  0.00  0.00    -0.003 A 
BRANCH   7   9
ATOM      9  C   UNL A   1     -26.482   1.556  34.117  0.00  0.00    +0.169 C 
ATOM     10 CL   UNL A   1     -27.582   1.068  35.087  0.00  0.00    -0.104 Cl
BRANCH   9  11
ATOM     11  C   UNL A   1     -26.516   2.927  33.603  0.00  0.00    +0.337 C 
ATOM     12  F   UNL A   1     -27.331   3.253  32.888  0.00  0.00    -0.197 F 
ATOM     13  F   UNL A   1     -25.643   3.685  34.101  0.00  0.00    -0.197 F 
ENDBRANCH   9  11
ENDBRANCH   7   9
ENDBRANCH   1   3
BRANCH   1  14
ATOM     14  C   UNL A   1     -24.811  -0.318  29.321  0.00  0.00    +0.054 C 
BRANCH  14  17
ATOM     15  C   UNL A   1     -24.983  -3.979  29.034  0.00  0.00    +0.088 A 
ATOM     16  C   UNL A   1     -24.582  -2.838  29.054  0.00  0.00    +0.147 A 
ATOM     17  C   UNL A   1     -25.299  -1.749  29.519  0.00  0.00    +0.009 A 
ATOM     18  C   UNL A   1     -26.601  -2.004  30.042  0.00  0.00    +0.011 A 
ATOM     19  C   UNL A   1     -26.955  -3.302  30.143  0.00  0.00    +0.135 A 
ATOM     20  C   UNL A   1     -26.147  -4.285  29.742  0.00  0.00    +0.050 A 
ATOM     21  F   UNL A   1     -23.353  -2.484  28.473  0.00  0.00    -0.204 F 
ATOM     22 CL   UNL A   1     -23.990  -5.320  28.466  0.00  0.00    -0.080 Cl
ATOM     23  C   UNL A   1     -27.369  -0.808  30.506  0.00  0.00    +0.034 C 
BRANCH  19  24
ATOM     24  O   UNL A   1     -28.171  -3.542  30.713  0.00  0.00    -0.472 OA
ATOM     25  C   UNL A   1     -28.667  -4.533  31.006  0.00  0.00    +0.253 C 
ENDBRANCH  19  24
ENDBRANCH  14  17
ENDBRANCH   1  14
BRANCH   2  26
ATOM     26  C   UNL A   1     -22.308   0.310  28.257  0.00  0.00    +0.052 C 
BRANCH  26  27
ATOM     27  C   UNL A   1     -22.425   1.511  27.509  0.00  0.00    -0.020 C 
ATOM     28  C   UNL A   1     -23.528   1.608  26.620  0.00  0.00    +0.016 C 
BRANCH  28  29
ATOM     29  C   UNL A   1     -23.604   2.917  26.012  0.00  0.00    +0.093 C 
ATOM     30  N   UNL A   1     -24.847   3.525  26.114  0.00  0.00    -0.257 NA
BRANCH  30  31
ATOM     31  C   UNL A   1     -25.631   2.978  27.152  0.00  0.00    +0.239 C 
BRANCH  31  32
ATOM     32  C   UNL A   1     -25.403   3.827  28.331  0.00  0.00    +0.389 C 
ATOM     33  O   UNL A   1     -25.329   4.937  28.187  0.00  0.00    -0.243 OA
ATOM     34  O   UNL A   1     -25.116   3.251  29.509  0.00  0.00    -0.243 OA
ENDBRANCH  31  32
ENDBRANCH  30  31
ENDBRANCH  28  29
ENDBRANCH  26  27
ENDBRANCH   2  26
TORSDOF 11
ENDMDL
ENDMDL
