REMARK  Name = No_3561-gen_results/8p0m/2024-11-26-14-13-15/
REMARK  11 active torsions:
REMARK  status: ('A' for Active; 'I' for Inactive)
REMARK    1  A    between atoms: C_3  and  C_11
REMARK    2  A    between atoms: C_5  and  O_7
REMARK    3  A    between atoms: C_11  and  C_12
REMARK    4  A    between atoms: C_12  and  C_14
REMARK    5  A    between atoms: C_13  and  C_16
REMARK    6  A    between atoms: C_16  and  C_21
REMARK    7  A    between atoms: C_19  and  C_25
REMARK    8  A    between atoms: C_22  and  C_23
REMARK    9  A    between atoms: N_24  and  C_28
REMARK   10  A    between atoms: C_25  and  C_27
REMARK   11  A    between atoms: C_28  and  C_29
REMARK                            x       y       z     vdW  Elec       q    Type
REMARK                         _______ _______ _______ _____ _____    ______ ____
ROOT
ATOM      1  C   UNL A   1     -25.165   2.295  28.093  0.00  0.00    -0.022 C 
ATOM      2  C   UNL A   1     -24.038   2.573  28.426  0.00  0.00    -0.025 C 
ENDROOT
BRANCH   1   3
ATOM      3  C   UNL A   1     -26.203   3.228  28.776  0.00  0.00    -0.004 A 
ATOM      4  C   UNL A   1     -25.821   4.159  29.701  0.00  0.00    -0.000 A 
ATOM      5  C   UNL A   1     -26.398   4.722  30.491  0.00  0.00    -0.000 A 
ATOM      6  C   UNL A   1     -27.577   4.293  30.983  0.00  0.00    -0.003 A 
ATOM      7  C   UNL A   1     -28.315   3.380  30.113  0.00  0.00    -0.002 A 
ATOM      8  C   UNL A   1     -27.541   2.697  29.173  0.00  0.00    -0.003 A 
BRANCH   7   9
ATOM      9  C   UNL A   1     -29.679   3.003  30.451  0.00  0.00    +0.169 C 
ATOM     10 CL   UNL A   1     -30.110   1.902  31.447  0.00  0.00    -0.104 Cl
BRANCH   9  11
ATOM     11  C   UNL A   1     -30.679   3.644  29.593  0.00  0.00    +0.337 C 
ATOM     12  F   UNL A   1     -30.373   4.443  28.852  0.00  0.00    -0.197 F 
ATOM     13  F   UNL A   1     -31.835   3.157  29.699  0.00  0.00    -0.197 F 
ENDBRANCH   9  11
ENDBRANCH   7   9
ENDBRANCH   1   3
BRANCH   1  14
ATOM     14  C   UNL A   1     -25.666   1.399  27.119  0.00  0.00    +0.054 C 
BRANCH  14  17
ATOM     15  C   UNL A   1     -28.016  -0.814  28.878  0.00  0.00    +0.088 A 
ATOM     16  C   UNL A   1     -27.064  -0.119  28.608  0.00  0.00    +0.147 A 
ATOM     17  C   UNL A   1     -26.972   0.714  27.506  0.00  0.00    +0.009 A 
ATOM     18  C   UNL A   1     -28.105   0.774  26.642  0.00  0.00    +0.011 A 
ATOM     19  C   UNL A   1     -29.201   0.104  27.053  0.00  0.00    +0.135 A 
ATOM     20  C   UNL A   1     -29.210  -0.603  28.185  0.00  0.00    +0.050 A 
ATOM     21  F   UNL A   1     -25.873  -0.188  29.349  0.00  0.00    -0.204 F 
ATOM     22 CL   UNL A   1     -28.074  -1.816  30.327  0.00  0.00    -0.080 Cl
ATOM     23  C   UNL A   1     -27.969   1.654  25.440  0.00  0.00    +0.034 C 
BRANCH  19  24
ATOM     24  O   UNL A   1     -30.304   0.227  26.260  0.00  0.00    -0.472 OA
ATOM     25  C   UNL A   1     -30.404   0.172  25.119  0.00  0.00    +0.253 C 
ENDBRANCH  19  24
ENDBRANCH  14  17
ENDBRANCH   1  14
BRANCH   2  26
ATOM     26  C   UNL A   1     -22.964   1.704  27.749  0.00  0.00    +0.052 C 
BRANCH  26  27
ATOM     27  C   UNL A   1     -22.472   0.575  28.456  0.00  0.00    -0.020 C 
ATOM     28  C   UNL A   1     -23.413  -0.435  28.786  0.00  0.00    +0.016 C 
BRANCH  28  29
ATOM     29  C   UNL A   1     -22.772  -1.579  29.393  0.00  0.00    +0.093 C 
ATOM     30  N   UNL A   1     -23.641  -2.598  29.756  0.00  0.00    -0.257 NA
BRANCH  30  31
ATOM     31  C   UNL A   1     -24.872  -2.526  29.070  0.00  0.00    +0.239 C 
BRANCH  31  32
ATOM     32  C   UNL A   1     -25.691  -3.637  29.578  0.00  0.00    +0.389 C 
ATOM     33  O   UNL A   1     -25.255  -4.670  29.576  0.00  0.00    -0.243 OA
ATOM     34  O   UNL A   1     -26.985  -3.421  29.863  0.00  0.00    -0.243 OA
ENDBRANCH  31  32
ENDBRANCH  30  31
ENDBRANCH  28  29
ENDBRANCH  26  27
ENDBRANCH   2  26
TORSDOF 11
