REMARK  Name = No_3562-gen_results/8p0m/2024-11-26-14-13-15/
REMARK  0 active torsions:
REMARK  status: ('A' for Active; 'I' for Inactive)
REMARK                            x       y       z     vdW  Elec       q    Type
REMARK                         _______ _______ _______ _____ _____    ______ ____
ROOT
ATOM      1  C   UNL A   1     -28.016  -0.814  28.878  0.00  0.00    +0.002 A 
ATOM      2  C   UNL A   1     -28.469  -0.785  29.829  0.00  0.00    +0.000 A 
ATOM      3  C   UNL A   1     -27.136   0.236  28.535  0.00  0.00    +0.019 A 
ATOM      4  C   UNL A   1     -26.875   1.282  29.398  0.00  0.00    +0.003 A 
ATOM      5  C   UNL A   1     -27.507   1.238  30.630  0.00  0.00    +0.000 A 
ATOM      6  C   UNL A   1     -28.348   0.050  30.882  0.00  0.00    +0.000 A 
ATOM      7  C   UNL A   1     -26.407   0.329  27.224  0.00  0.00    +0.098 A 
ATOM      8  N   UNL A   1     -25.540   1.330  27.055  0.00  0.00    -0.248 NA
ATOM      9  C   UNL A   1     -24.791   1.840  27.875  0.00  0.00    +0.059 A 
ATOM     10  C   UNL A   1     -25.574   2.094  29.179  0.00  0.00    +0.015 A 
ATOM     11  C   UNL A   1     -24.107   3.095  27.484  0.00  0.00    +0.052 C 
ENDROOT
TORSDOF 0
