MODEL 3562
MODEL 1
REMARK VINA RESULT:    -5.544      0.000      0.000
REMARK INTER + INTRA:          -5.544
REMARK INTER:                  -5.544
REMARK INTRA:                   0.000
REMARK UNBOUND:                 0.000
REMARK  Name = No_3562-gen_results/8p0m/2024-11-26-14-13-15/
REMARK  0 active torsions:
REMARK  status: ('A' for Active; 'I' for Inactive)
REMARK                            x       y       z     vdW  Elec       q    Type
REMARK                         _______ _______ _______ _____ _____    ______ ____
ROOT
ATOM      1  C   UNL A   1     -24.084  -4.275  28.747  0.00  0.00    +0.002 A 
ATOM      2  C   UNL A   1     -24.890  -4.936  28.902  0.00  0.00    +0.000 A 
ATOM      3  C   UNL A   1     -24.213  -2.954  29.229  0.00  0.00    +0.019 A 
ATOM      4  C   UNL A   1     -25.354  -2.519  29.874  0.00  0.00    +0.003 A 
ATOM      5  C   UNL A   1     -26.362  -3.455  30.043  0.00  0.00    +0.000 A 
ATOM      6  C   UNL A   1     -26.068  -4.816  29.549  0.00  0.00    +0.000 A 
ATOM      7  C   UNL A   1     -23.149  -1.901  29.094  0.00  0.00    +0.098 A 
ATOM      8  N   UNL A   1     -23.362  -0.713  29.665  0.00  0.00    -0.248 NA
ATOM      9  C   UNL A   1     -23.930  -0.461  30.717  0.00  0.00    +0.059 A 
ATOM     10  C   UNL A   1     -25.240  -1.272  30.786  0.00  0.00    +0.015 A 
ATOM     11  C   UNL A   1     -24.240   0.960  31.000  0.00  0.00    +0.052 C 
ENDROOT
TORSDOF 0
ENDMDL
ENDMDL
