REMARK  Name = No_3563-gen_results/8p0m/2024-11-26-14-13-15/
REMARK  1 active torsions:
REMARK  status: ('A' for Active; 'I' for Inactive)
REMARK    1  A    between atoms: C_2  and  C_7
REMARK                            x       y       z     vdW  Elec       q    Type
REMARK                         _______ _______ _______ _____ _____    ______ ____
ROOT
ATOM      1  C   UNL A   1     -30.064  -0.795  30.064  0.00  0.00    +0.249 C 
ATOM      2  O   UNL A   1     -30.663  -0.111  29.373  0.00  0.00    -0.270 OA
ATOM      3  N   UNL A   1     -30.643  -1.691  30.943  0.00  0.00    -0.276 N 
ATOM      4  C   UNL A   1     -32.064  -1.767  30.998  0.00  0.00    +0.094 C 
ATOM      5  C   UNL A   1     -32.502  -2.774  31.527  0.00  0.00    +0.022 C 
ATOM      6  C   UNL A   1     -31.677  -3.756  32.274  0.00  0.00    +0.004 C 
ATOM      7  C   UNL A   1     -30.280  -3.621  32.178  0.00  0.00    +0.022 C 
ATOM      8  C   UNL A   1     -29.766  -2.674  31.466  0.00  0.00    +0.094 C 
ENDROOT
BRANCH   1  10
ATOM      9  C   UNL A   1     -28.016  -0.814  28.878  0.00  0.00    +0.007 A 
ATOM     10  C   UNL A   1     -28.469  -0.785  29.829  0.00  0.00    +0.054 A 
ATOM     11  C   UNL A   1     -26.546  -0.876  28.850  0.00  0.00    +0.030 A 
ATOM     12  C   UNL A   1     -25.804  -1.032  30.057  0.00  0.00    +0.140 A 
ATOM     13  C   UNL A   1     -27.944  -0.987  31.207  0.00  0.00    +0.007 A 
ATOM     14  C   UNL A   1     -26.582  -1.039  31.223  0.00  0.00    +0.030 A 
ATOM     15  F   UNL A   1     -24.523  -1.055  30.042  0.00  0.00    -0.204 F 
ENDBRANCH   1  10
TORSDOF 1
