MODEL 3564
MODEL 1
REMARK VINA RESULT:    -7.097      0.000      0.000
REMARK INTER + INTRA:          -7.097
REMARK INTER:                  -7.097
REMARK INTRA:                   0.000
REMARK UNBOUND:                 0.000
REMARK  Name = No_3564-gen_results/8p0m/2024-11-26-14-13-15/
REMARK  0 active torsions:
REMARK  status: ('A' for Active; 'I' for Inactive)
REMARK                            x       y       z     vdW  Elec       q    Type
REMARK                         _______ _______ _______ _____ _____    ______ ____
ROOT
ATOM      1  C   UNL A   1     -28.631  -0.884  31.261  0.00  0.00    +0.011 A 
ATOM      2  C   UNL A   1     -27.606  -1.394  30.873  0.00  0.00    +0.000 A 
ATOM      3  C   UNL A   1     -27.497  -2.740  30.525  0.00  0.00    -0.000 A 
ATOM      4  C   UNL A   1     -28.650  -3.605  30.685  0.00  0.00    +0.001 A 
ATOM      5  C   UNL A   1     -29.808  -2.942  31.151  0.00  0.00    +0.011 A 
ATOM      6  C   UNL A   1     -29.812  -1.670  31.459  0.00  0.00    +0.058 A 
ATOM      7  C   UNL A   1     -26.277  -3.430  30.031  0.00  0.00    -0.001 A 
ATOM      8  C   UNL A   1     -26.259  -4.669  29.599  0.00  0.00    -0.000 A 
ATOM      9  C   UNL A   1     -25.076  -5.269  29.097  0.00  0.00    +0.003 A 
ATOM     10  C   UNL A   1     -23.998  -4.405  28.734  0.00  0.00    +0.037 A 
ATOM     11  C   UNL A   1     -25.125  -2.655  29.671  0.00  0.00    +0.018 A 
ATOM     12  C   UNL A   1     -24.028  -3.157  29.098  0.00  0.00    +0.135 A 
ATOM     13 CL   UNL A   1     -31.246  -0.979  32.106  0.00  0.00    -0.082 Cl
ATOM     14  O   UNL A   1     -22.935  -2.376  28.870  0.00  0.00    -0.475 OA
ATOM     15  C   UNL A   1     -23.280  -0.997  29.093  0.00  0.00    +0.213 C 
ATOM     16  C   UNL A   1     -25.047  -1.243  29.865  0.00  0.00    +0.077 C 
ATOM     17  C   UNL A   1     -24.884  -0.837  31.307  0.00  0.00    -0.037 C 
ATOM     18  C   UNL A   1     -25.827  -0.349  29.066  0.00  0.00    +0.012 C 
ATOM     19  C   UNL A   1     -26.211  -0.890  31.901  0.00  0.00    -0.008 C 
ATOM     20  C   UNL A   1     -24.082   0.422  31.276  0.00  0.00    +0.027 C 
ENDROOT
TORSDOF 0
ENDMDL
ENDMDL
