MODEL 3565
MODEL 1
REMARK VINA RESULT:    -6.789      0.000      0.000
REMARK INTER + INTRA:         -12.306
REMARK INTER:                  -9.964
REMARK INTRA:                  -2.342
REMARK UNBOUND:                -2.342
REMARK  Name = No_3565-gen_results/8p0m/2024-11-26-14-13-15/
REMARK  8 active torsions:
REMARK  status: ('A' for Active; 'I' for Inactive)
REMARK    1  A    between atoms: C_2  and  O_25
REMARK    2  A    between atoms: N_16  and  C_18
REMARK    3  A    between atoms: O_25  and  C_26
REMARK    4  A    between atoms: C_26  and  C_27
REMARK    5  A    between atoms: C_27  and  O_28
REMARK    6  A    between atoms: O_28  and  C_29
REMARK    7  A    between atoms: C_30  and  C_31
REMARK    8  A    between atoms: C_32  and  C_33
REMARK                            x       y       z     vdW  Elec       q    Type
REMARK                         _______ _______ _______ _____ _____    ______ ____
ROOT
ATOM      1  C   UNL A   1     -19.074 -21.598   7.953  0.00  0.00    +0.033 A 
ATOM      2  C   UNL A   1     -18.183 -21.326   7.461  0.00  0.00    +0.138 A 
ATOM      3  C   UNL A   1     -20.261 -20.927   7.583  0.00  0.00    -0.016 A 
ATOM      4  C   UNL A   1     -20.271 -19.936   6.622  0.00  0.00    -0.022 A 
ATOM      5  C   UNL A   1     -21.472 -19.224   6.212  0.00  0.00    +0.073 C 
ATOM      6  C   UNL A   1     -17.856 -20.372   6.411  0.00  0.00    +0.037 A 
ATOM      7  C   UNL A   1     -19.037 -19.640   5.987  0.00  0.00    -0.001 A 
ATOM      8  C   UNL A   1     -22.585 -19.349   6.681  0.00  0.00    +0.108 C 
ATOM      9  C   UNL A   1     -23.774 -18.603   6.278  0.00  0.00    +0.227 C 
ATOM     10  C   UNL A   1     -22.890 -20.421   7.641  0.00  0.00    +0.159 C 
ATOM     11  C   UNL A   1     -21.605 -21.272   8.160  0.00  0.00    +0.091 C 
ATOM     12  C   UNL A   1     -21.264 -18.110   5.104  0.00  0.00    +0.212 C 
ATOM     13  N   UNL A   1     -21.690 -16.900   5.398  0.00  0.00    -0.066 NA
ATOM     14  C   UNL A   1     -23.069 -16.644   5.638  0.00  0.00    +0.407 C 
ATOM     15  N   UNL A   1     -23.850 -17.305   6.367  0.00  0.00    -0.098 NA
ATOM     16  N   UNL A   1     -23.396 -15.277   5.537  0.00  0.00    -0.172 N 
ATOM     17  O   UNL A   1     -23.979 -20.730   8.120  0.00  0.00    -0.296 OA
ATOM     18  C   UNL A   1     -23.952 -14.727   6.684  0.00  0.00    +0.213 C 
ENDROOT
BRANCH  16  19
ATOM     19  C   UNL A   1     -22.778 -14.492   4.553  0.00  0.00    +0.112 A 
ATOM     20  C   UNL A   1     -22.747 -14.501   3.499  0.00  0.00    +0.031 A 
ATOM     21  C   UNL A   1     -22.098 -13.580   2.576  0.00  0.00    +0.003 A 
ATOM     22  C   UNL A   1     -21.368 -12.616   3.188  0.00  0.00    +0.000 A 
ATOM     23  C   UNL A   1     -22.032 -13.315   5.234  0.00  0.00    +0.031 A 
ATOM     24  C   UNL A   1     -21.357 -12.420   4.517  0.00  0.00    +0.003 A 
ENDBRANCH  16  19
BRANCH   2  25
ATOM     25  O   UNL A   1     -16.982 -22.074   7.804  0.00  0.00    -0.471 OA
BRANCH  25  26
ATOM     26  C   UNL A   1     -16.179 -22.687   6.852  0.00  0.00    +0.253 C 
BRANCH  26  27
ATOM     27  C   UNL A   1     -16.598 -23.977   6.455  0.00  0.00    +0.253 C 
BRANCH  27  28
ATOM     28  O   UNL A   1     -17.017 -23.983   5.312  0.00  0.00    -0.468 OA
BRANCH  28  29
ATOM     29  C   UNL A   1     -18.219 -23.893   5.015  0.00  0.00    +0.172 C 
ATOM     30  C   UNL A   1     -18.450 -23.205   4.208  0.00  0.00    +0.040 C 
BRANCH  30  31
ATOM     31  C   UNL A   1     -19.624 -22.548   3.837  0.00  0.00    +0.003 C 
ATOM     32  C   UNL A   1     -20.629 -22.643   4.175  0.00  0.00    +0.000 C 
BRANCH  32  33
ATOM     33  C   UNL A   1     -21.391 -23.279   4.758  0.00  0.00    +0.000 C 
ATOM     34  C   UNL A   1     -22.535 -23.546   5.559  0.00  0.00    +0.000 C 
ENDBRANCH  32  33
ENDBRANCH  30  31
ENDBRANCH  28  29
ENDBRANCH  27  28
ENDBRANCH  26  27
ENDBRANCH  25  26
ENDBRANCH   2  25
TORSDOF 8
ENDMDL
ENDMDL
