REMARK  Name = No_3566-gen_results/8p0m/2024-11-26-14-13-15/
REMARK  2 active torsions:
REMARK  status: ('A' for Active; 'I' for Inactive)
REMARK    1  A    between atoms: C_3  and  C_7
REMARK    2  A    between atoms: C_6  and  O_13
REMARK                            x       y       z     vdW  Elec       q    Type
REMARK                         _______ _______ _______ _____ _____    ______ ____
ROOT
ATOM      1  C   UNL A   1     -28.016  -0.814  28.878  0.00  0.00    +0.037 A 
ATOM      2  C   UNL A   1     -27.064  -0.119  28.608  0.00  0.00    +0.005 A 
ATOM      3  C   UNL A   1     -26.876   1.133  28.913  0.00  0.00    +0.018 A 
ATOM      4  C   UNL A   1     -27.901   1.807  29.644  0.00  0.00    +0.005 A 
ATOM      5  C   UNL A   1     -28.945   1.039  30.036  0.00  0.00    +0.037 A 
ATOM      6  C   UNL A   1     -29.027  -0.289  29.705  0.00  0.00    +0.139 A 
ENDROOT
BRANCH   3   7
ATOM      7  C   UNL A   1     -25.696   1.950  28.476  0.00  0.00    +0.081 A 
ATOM      8  N   UNL A   1     -25.044   2.692  28.959  0.00  0.00    -0.244 NA
ATOM      9  C   UNL A   1     -25.313   1.774  27.017  0.00  0.00    +0.019 A 
ATOM     10  C   UNL A   1     -24.156   2.546  26.845  0.00  0.00    +0.003 A 
ATOM     11  C   UNL A   1     -23.364   3.088  27.295  0.00  0.00    +0.021 A 
ATOM     12  C   UNL A   1     -23.838   3.317  28.665  0.00  0.00    +0.099 A 
ENDBRANCH   3   7
BRANCH   6  13
ATOM     13  O   UNL A   1     -30.027  -1.109  30.079  0.00  0.00    -0.471 OA
ATOM     14  C   UNL A   1     -30.373  -1.173  31.375  0.00  0.00    +0.253 C 
ENDBRANCH   6  13
TORSDOF 2
