MODEL 3566
MODEL 1
REMARK VINA RESULT:    -6.038      0.000      0.000
REMARK INTER + INTRA:          -7.044
REMARK INTER:                  -6.744
REMARK INTRA:                  -0.300
REMARK UNBOUND:                -0.300
REMARK  Name = No_3566-gen_results/8p0m/2024-11-26-14-13-15/
REMARK  2 active torsions:
REMARK  status: ('A' for Active; 'I' for Inactive)
REMARK    1  A    between atoms: C_3  and  C_7
REMARK    2  A    between atoms: C_6  and  O_13
REMARK                            x       y       z     vdW  Elec       q    Type
REMARK                         _______ _______ _______ _____ _____    ______ ____
ROOT
ATOM      1  C   UNL A   1     -24.698  -4.171  29.089  0.00  0.00    +0.037 A 
ATOM      2  C   UNL A   1     -23.862  -3.313  28.926  0.00  0.00    +0.005 A 
ATOM      3  C   UNL A   1     -23.981  -2.032  29.128  0.00  0.00    +0.018 A 
ATOM      4  C   UNL A   1     -25.241  -1.539  29.586  0.00  0.00    +0.005 A 
ATOM      5  C   UNL A   1     -26.176  -2.480  29.859  0.00  0.00    +0.037 A 
ATOM      6  C   UNL A   1     -25.935  -3.815  29.659  0.00  0.00    +0.139 A 
ENDROOT
BRANCH   3   7
ATOM      7  C   UNL A   1     -22.916  -1.018  28.831  0.00  0.00    +0.081 A 
ATOM      8  N   UNL A   1     -21.831  -0.961  29.000  0.00  0.00    -0.244 NA
ATOM      9  C   UNL A   1     -23.425   0.262  28.193  0.00  0.00    +0.019 A 
ATOM     10  C   UNL A   1     -22.277   1.021  27.925  0.00  0.00    +0.003 A 
ATOM     11  C   UNL A   1     -21.220   1.053  27.850  0.00  0.00    +0.021 A 
ATOM     12  C   UNL A   1     -20.787  -0.149  28.573  0.00  0.00    +0.099 A 
ENDBRANCH   3   7
BRANCH   6  13
ATOM     13  O   UNL A   1     -26.814  -4.798  29.927  0.00  0.00    -0.471 OA
ATOM     14  C   UNL A   1     -28.026  -4.481  30.411  0.00  0.00    +0.253 C 
ENDBRANCH   6  13
TORSDOF 2
ENDMDL
ENDMDL
