REMARK  Name = No_3567-gen_results/8p0m/2024-11-26-14-13-15/
REMARK  3 active torsions:
REMARK  status: ('A' for Active; 'I' for Inactive)
REMARK    1  A    between atoms: C_1  and  C_2
REMARK    2  A    between atoms: C_1  and  C_8
REMARK    3  A    between atoms: C_5  and  C_12
REMARK                            x       y       z     vdW  Elec       q    Type
REMARK                         _______ _______ _______ _____ _____    ______ ____
ROOT
ATOM      1  C   UNL A   1     -27.064  -0.119  28.608  0.00  0.00    -0.015 A 
ATOM      2  C   UNL A   1     -26.972   0.714  27.506  0.00  0.00    -0.004 A 
ATOM      3  C   UNL A   1     -25.820   1.491  27.116  0.00  0.00    +0.008 A 
ATOM      4  C   UNL A   1     -24.656   1.424  27.918  0.00  0.00    +0.098 A 
ATOM      5  C   UNL A   1     -24.685   0.590  29.066  0.00  0.00    +0.008 A 
ATOM      6  C   UNL A   1     -25.810  -0.127  29.334  0.00  0.00    -0.004 A 
ENDROOT
BRANCH   4   7
ATOM      7  C   UNL A   1     -23.479   2.190  27.602  0.00  0.00    +0.477 C 
ATOM      8  N   UNL A   1     -23.446   3.117  26.775  0.00  0.00    +0.205 NA
ATOM      9  N   UNL A   1     -22.325   1.998  28.315  0.00  0.00    +0.205 NA
ENDBRANCH   4   7
BRANCH   1  10
ATOM     10  C   UNL A   1     -28.016  -0.814  28.878  0.00  0.00    +0.092 C 
BRANCH  10  11
ATOM     11  C   UNL A   1     -29.244  -0.077  29.201  0.00  0.00    +0.146 A 
ATOM     12  N   UNL A   1     -29.612   0.813  28.612  0.00  0.00    -0.203 NA
ATOM     13  N   UNL A   1     -30.166  -0.882  29.962  0.00  0.00    -0.229 NA
ATOM     14  C   UNL A   1     -30.889   1.446  28.785  0.00  0.00    +0.225 A 
ATOM     15  C   UNL A   1     -31.419  -0.365  30.197  0.00  0.00    +0.104 A 
ATOM     16  C   UNL A   1     -31.768   0.804  29.598  0.00  0.00    +0.070 A 
ATOM     17  F   UNL A   1     -31.153   2.540  28.205  0.00  0.00    -0.183 F 
ENDBRANCH  10  11
ENDBRANCH   1  10
TORSDOF 3
