MODEL 3568
MODEL 1
REMARK VINA RESULT:    -6.896      0.000      0.000
REMARK INTER + INTRA:          -8.706
REMARK INTER:                  -7.702
REMARK INTRA:                  -1.004
REMARK UNBOUND:                -1.004
REMARK  Name = No_3568-gen_results/8p0m/2024-11-26-14-13-15/
REMARK  2 active torsions:
REMARK  status: ('A' for Active; 'I' for Inactive)
REMARK    1  A    between atoms: C_3  and  C_7
REMARK    2  A    between atoms: C_8  and  C_11
REMARK                            x       y       z     vdW  Elec       q    Type
REMARK                         _______ _______ _______ _____ _____    ______ ____
ROOT
ATOM      1  C   UNL A   1     -23.653  -0.586  28.442  0.00  0.00    +0.059 C 
ATOM      2  C   UNL A   1     -24.195   0.138  27.370  0.00  0.00    +0.029 C 
ATOM      3  C   UNL A   1     -22.412  -0.284  28.959  0.00  0.00    +0.165 C 
ATOM      4  C   UNL A   1     -21.757   0.849  28.527  0.00  0.00    +0.036 C 
ATOM      5  C   UNL A   1     -22.269   1.621  27.458  0.00  0.00    +0.003 C 
ATOM      6  C   UNL A   1     -23.464   1.295  26.879  0.00  0.00    +0.005 C 
ATOM      7  F   UNL A   1     -22.022  -0.917  30.016  0.00  0.00    -0.237 F 
ENDROOT
BRANCH   1  10
ATOM      8  C   UNL A   1     -25.574  -1.549  29.839  0.00  0.00    -0.004 A 
ATOM      9  C   UNL A   1     -26.122  -2.404  30.119  0.00  0.00    -0.000 A 
ATOM     10  C   UNL A   1     -24.499  -1.720  28.940  0.00  0.00    -0.019 A 
ATOM     11  C   UNL A   1     -24.152  -2.960  28.443  0.00  0.00    -0.004 A 
ATOM     12  C   UNL A   1     -24.929  -4.030  28.857  0.00  0.00    -0.000 A 
ATOM     13  C   UNL A   1     -25.992  -3.810  29.707  0.00  0.00    -0.000 A 
ENDBRANCH   1  10
BRANCH   2  14
ATOM     14  C   UNL A   1     -25.522  -0.072  26.831  0.00  0.00    -0.019 A 
ATOM     15  C   UNL A   1     -25.593  -0.494  25.530  0.00  0.00    +0.016 A 
ATOM     16  C   UNL A   1     -26.717  -0.094  24.761  0.00  0.00    +0.099 A 
ATOM     17  N   UNL A   1     -27.807   0.359  25.335  0.00  0.00    -0.242 NA
ATOM     18  C   UNL A   1     -27.845   0.652  26.645  0.00  0.00    +0.099 A 
ATOM     19  C   UNL A   1     -26.658   0.557  27.418  0.00  0.00    +0.016 A 
ENDBRANCH   2  14
TORSDOF 2
ENDMDL
ENDMDL
