REMARK  Name = No_3568-gen_results/8p0m/2024-11-26-14-13-15/
REMARK  2 active torsions:
REMARK  status: ('A' for Active; 'I' for Inactive)
REMARK    1  A    between atoms: C_3  and  C_7
REMARK    2  A    between atoms: C_8  and  C_11
REMARK                            x       y       z     vdW  Elec       q    Type
REMARK                         _______ _______ _______ _____ _____    ______ ____
ROOT
ATOM      1  C   UNL A   1     -26.408   0.307  27.226  0.00  0.00    +0.059 C 
ATOM      2  C   UNL A   1     -25.011   0.390  27.323  0.00  0.00    +0.029 C 
ATOM      3  C   UNL A   1     -27.046   0.329  26.005  0.00  0.00    +0.165 C 
ATOM      4  C   UNL A   1     -26.297   0.270  24.850  0.00  0.00    +0.036 C 
ATOM      5  C   UNL A   1     -24.885   0.338  24.895  0.00  0.00    +0.003 C 
ATOM      6  C   UNL A   1     -24.232   0.392  26.095  0.00  0.00    +0.005 C 
ATOM      7  F   UNL A   1     -28.323   0.136  25.982  0.00  0.00    -0.237 F 
ENDROOT
BRANCH   1  10
ATOM      8  C   UNL A   1     -28.016  -0.814  28.878  0.00  0.00    -0.004 A 
ATOM      9  C   UNL A   1     -28.469  -0.785  29.829  0.00  0.00    -0.000 A 
ATOM     10  C   UNL A   1     -27.136   0.236  28.535  0.00  0.00    -0.019 A 
ATOM     11  C   UNL A   1     -26.875   1.282  29.398  0.00  0.00    -0.004 A 
ATOM     12  C   UNL A   1     -27.507   1.238  30.630  0.00  0.00    -0.000 A 
ATOM     13  C   UNL A   1     -28.329   0.174  30.935  0.00  0.00    -0.000 A 
ENDBRANCH   1  10
BRANCH   2  14
ATOM     14  C   UNL A   1     -24.272   0.292  28.564  0.00  0.00    -0.019 A 
ATOM     15  C   UNL A   1     -22.937   0.592  28.506  0.00  0.00    +0.016 A 
ATOM     16  C   UNL A   1     -22.063  -0.079  29.401  0.00  0.00    +0.099 A 
ATOM     17  N   UNL A   1     -22.523  -0.695  30.465  0.00  0.00    -0.242 NA
ATOM     18  C   UNL A   1     -23.838  -0.890  30.654  0.00  0.00    +0.099 A 
ATOM     19  C   UNL A   1     -24.756  -0.504  29.643  0.00  0.00    +0.016 A 
ENDBRANCH   2  14
TORSDOF 2
