REMARK  Name = No_3569-gen_results/8p0m/2024-11-26-14-13-15/
REMARK  2 active torsions:
REMARK  status: ('A' for Active; 'I' for Inactive)
REMARK    1  A    between atoms: C_3  and  N_7
REMARK    2  A    between atoms: C_8  and  N_9
REMARK                            x       y       z     vdW  Elec       q    Type
REMARK                         _______ _______ _______ _____ _____    ______ ____
ROOT
ATOM      1  C   UNL A   1     -28.016  -0.814  28.878  0.00  0.00    +0.019 A 
ATOM      2  C   UNL A   1     -28.469  -0.785  29.829  0.00  0.00    +0.002 A 
ATOM      3  C   UNL A   1     -28.196   0.348  28.055  0.00  0.00    +0.083 A 
ATOM      4  C   UNL A   1     -29.019   1.350  28.378  0.00  0.00    +0.019 A 
ATOM      5  C   UNL A   1     -29.411   0.180  30.378  0.00  0.00    +0.000 A 
ATOM      6  C   UNL A   1     -29.606   1.250  29.619  0.00  0.00    +0.002 A 
ENDROOT
BRANCH   3   7
ATOM      7  N   UNL A   1     -27.506   0.364  26.796  0.00  0.00    -0.224 NA
ATOM      8  C   UNL A   1     -27.819   0.625  25.782  0.00  0.00    +0.199 C 
BRANCH   8   9
ATOM      9  N   UNL A   1     -29.044   0.994  25.459  0.00  0.00    -0.221 NA
ATOM     10  C   UNL A   1     -29.951   1.070  26.340  0.00  0.00    +0.121 C 
ENDBRANCH   8   9
ENDBRANCH   3   7
TORSDOF 2
