MODEL 3569
MODEL 1
REMARK VINA RESULT:    -4.829      0.000      0.000
REMARK INTER + INTRA:          -5.491
REMARK INTER:                  -5.393
REMARK INTRA:                  -0.097
REMARK UNBOUND:                -0.097
REMARK  Name = No_3569-gen_results/8p0m/2024-11-26-14-13-15/
REMARK  2 active torsions:
REMARK  status: ('A' for Active; 'I' for Inactive)
REMARK    1  A    between atoms: C_3  and  N_7
REMARK    2  A    between atoms: C_8  and  N_9
REMARK                            x       y       z     vdW  Elec       q    Type
REMARK                         _______ _______ _______ _____ _____    ______ ____
ROOT
ATOM      1  C   UNL A   1     -26.165  -3.564  29.889  0.00  0.00    +0.019 A 
ATOM      2  C   UNL A   1     -26.153  -4.577  29.597  0.00  0.00    +0.002 A 
ATOM      3  C   UNL A   1     -25.046  -2.770  29.468  0.00  0.00    +0.083 A 
ATOM      4  C   UNL A   1     -23.960  -3.290  28.887  0.00  0.00    +0.019 A 
ATOM      5  C   UNL A   1     -25.083  -5.352  28.985  0.00  0.00    +0.000 A 
ATOM      6  C   UNL A   1     -24.031  -4.636  28.611  0.00  0.00    +0.002 A 
ENDROOT
BRANCH   3   7
ATOM      7  N   UNL A   1     -25.094  -1.368  29.775  0.00  0.00    -0.224 NA
ATOM      8  C   UNL A   1     -24.781  -0.788  30.646  0.00  0.00    +0.199 C 
BRANCH   8   9
ATOM      9  N   UNL A   1     -24.260  -1.317  31.737  0.00  0.00    -0.221 NA
ATOM     10  C   UNL A   1     -23.081  -1.028  32.099  0.00  0.00    +0.121 C 
ENDBRANCH   8   9
ENDBRANCH   3   7
TORSDOF 2
ENDMDL
ENDMDL
