MODEL 356
MODEL 1
REMARK VINA RESULT:    -5.702      0.000      0.000
REMARK INTER + INTRA:          -7.173
REMARK INTER:                  -6.702
REMARK INTRA:                  -0.470
REMARK UNBOUND:                -0.470
REMARK  Name = No_356-gen_results/8p0m/2024-11-26-14-13-15/
REMARK  3 active torsions:
REMARK  status: ('A' for Active; 'I' for Inactive)
REMARK    1  A    between atoms: C_1  and  C_2
REMARK    2  A    between atoms: C_1  and  C_3
REMARK    3  A    between atoms: C_2  and  C_5
REMARK                            x       y       z     vdW  Elec       q    Type
REMARK                         _______ _______ _______ _____ _____    ______ ____
ROOT
ATOM      1  C   UNL A   1     -24.779  -1.326  29.946  0.00  0.00    +0.035 C 
ENDROOT
BRANCH   1   2
ATOM      2  C   UNL A   1     -25.110  -2.602  29.313  0.00  0.00    -0.022 A 
ATOM      3  C   UNL A   1     -26.127  -3.388  29.733  0.00  0.00    -0.004 A 
ATOM      4  C   UNL A   1     -26.050  -4.716  29.661  0.00  0.00    -0.000 A 
ATOM      5  C   UNL A   1     -25.048  -5.420  28.908  0.00  0.00    -0.000 A 
ATOM      6  C   UNL A   1     -23.972  -4.637  28.491  0.00  0.00    -0.000 A 
ATOM      7  C   UNL A   1     -23.993  -3.276  28.805  0.00  0.00    -0.004 A 
ENDBRANCH   1   2
BRANCH   1   8
ATOM      8  C   UNL A   1     -24.179  -1.425  30.807  0.00  0.00    +0.108 C 
BRANCH   8   9
ATOM      9  C   UNL A   1     -22.976  -0.637  30.968  0.00  0.00    +0.398 C 
ATOM     10  F   UNL A   1     -22.497  -0.896  31.956  0.00  0.00    -0.170 F 
ATOM     11  F   UNL A   1     -21.992  -0.799  30.029  0.00  0.00    -0.170 F 
ATOM     12  F   UNL A   1     -23.124   0.708  30.917  0.00  0.00    -0.170 F 
ENDBRANCH   8   9
ENDBRANCH   1   8
TORSDOF 3
ENDMDL
ENDMDL
