MODEL 3570
MODEL 1
REMARK VINA RESULT:    -8.076      0.000      0.000
REMARK INTER + INTRA:          -8.076
REMARK INTER:                  -8.076
REMARK INTRA:                   0.000
REMARK UNBOUND:                 0.000
REMARK  Name = No_3570-gen_results/8p0m/2024-11-26-14-13-15/
REMARK  0 active torsions:
REMARK  status: ('A' for Active; 'I' for Inactive)
REMARK                            x       y       z     vdW  Elec       q    Type
REMARK                         _______ _______ _______ _____ _____    ______ ____
ROOT
ATOM      1  C   UNL A   1     -23.427  -2.024  29.091  0.00  0.00    +0.017 A 
ATOM      2  C   UNL A   1     -24.286  -2.875  29.066  0.00  0.00    +0.001 A 
ATOM      3  C   UNL A   1     -25.554  -2.743  29.606  0.00  0.00    +0.000 A 
ATOM      4  C   UNL A   1     -25.874  -1.493  30.213  0.00  0.00    +0.006 A 
ATOM      5  C   UNL A   1     -24.948  -0.520  30.090  0.00  0.00    +0.069 A 
ATOM      6  C   UNL A   1     -23.785  -0.729  29.468  0.00  0.00    +0.075 A 
ATOM      7  C   UNL A   1     -25.324   0.779  30.682  0.00  0.00    +0.254 C 
ATOM      8  O   UNL A   1     -25.771   0.899  31.804  0.00  0.00    -0.270 OA
ATOM      9  N   UNL A   1     -24.916   1.934  30.025  0.00  0.00    -0.252 N 
ATOM     10  C   UNL A   1     -24.363   1.948  28.710  0.00  0.00    +0.069 A 
ATOM     11  C   UNL A   1     -25.261   3.219  30.667  0.00  0.00    +0.120 C 
ATOM     12  C   UNL A   1     -25.289   2.502  27.736  0.00  0.00    +0.016 A 
ATOM     13  C   UNL A   1     -24.885   2.366  26.496  0.00  0.00    +0.001 A 
ATOM     14  C   UNL A   1     -23.582   1.970  26.109  0.00  0.00    +0.001 A 
ATOM     15  C   UNL A   1     -22.725   1.569  27.096  0.00  0.00    +0.018 A 
ATOM     16  C   UNL A   1     -23.162   1.485  28.431  0.00  0.00    +0.084 A 
ATOM     17  N   UNL A   1     -23.085   0.346  28.916  0.00  0.00    -0.211 NA
ATOM     18  C   UNL A   1     -26.459  -3.908  29.845  0.00  0.00    +0.000 A 
ATOM     19  C   UNL A   1     -25.981  -5.117  29.429  0.00  0.00    +0.000 A 
ATOM     20  C   UNL A   1     -24.711  -5.272  28.801  0.00  0.00    +0.000 A 
ATOM     21  C   UNL A   1     -23.909  -4.281  28.647  0.00  0.00    +0.000 A 
ENDROOT
TORSDOF 0
ENDMDL
ENDMDL
