REMARK  Name = No_3570-gen_results/8p0m/2024-11-26-14-13-15/
REMARK  0 active torsions:
REMARK  status: ('A' for Active; 'I' for Inactive)
REMARK                            x       y       z     vdW  Elec       q    Type
REMARK                         _______ _______ _______ _____ _____    ______ ____
ROOT
ATOM      1  C   UNL A   1     -28.016  -0.814  28.878  0.00  0.00    +0.017 A 
ATOM      2  C   UNL A   1     -27.064  -0.119  28.608  0.00  0.00    +0.001 A 
ATOM      3  C   UNL A   1     -26.972   0.714  27.506  0.00  0.00    +0.000 A 
ATOM      4  C   UNL A   1     -28.105   0.774  26.642  0.00  0.00    +0.006 A 
ATOM      5  C   UNL A   1     -29.201   0.104  27.053  0.00  0.00    +0.069 A 
ATOM      6  C   UNL A   1     -29.210  -0.603  28.185  0.00  0.00    +0.075 A 
ATOM      7  C   UNL A   1     -30.375   0.223  26.167  0.00  0.00    +0.254 C 
ATOM      8  O   UNL A   1     -30.327   0.057  24.966  0.00  0.00    -0.270 OA
ATOM      9  N   UNL A   1     -31.632   0.280  26.759  0.00  0.00    -0.252 N 
ATOM     10  C   UNL A   1     -31.844   0.461  28.158  0.00  0.00    +0.069 A 
ATOM     11  C   UNL A   1     -32.792   0.346  25.847  0.00  0.00    +0.120 C 
ATOM     12  C   UNL A   1     -32.359   1.786  28.463  0.00  0.00    +0.016 A 
ATOM     13  C   UNL A   1     -32.396   2.048  29.748  0.00  0.00    +0.001 A 
ATOM     14  C   UNL A   1     -32.218   1.089  30.774  0.00  0.00    +0.001 A 
ATOM     15  C   UNL A   1     -31.844  -0.172  30.401  0.00  0.00    +0.018 A 
ATOM     16  C   UNL A   1     -31.576  -0.468  29.052  0.00  0.00    +0.084 A 
ATOM     17  N   UNL A   1     -30.417  -0.857  28.841  0.00  0.00    -0.211 NA
ATOM     18  C   UNL A   1     -25.679   1.295  27.034  0.00  0.00    +0.000 A 
ATOM     19  C   UNL A   1     -24.590   1.006  27.805  0.00  0.00    +0.000 A 
ATOM     20  C   UNL A   1     -24.667   0.213  28.986  0.00  0.00    +0.000 A 
ATOM     21  C   UNL A   1     -25.767  -0.333  29.361  0.00  0.00    +0.000 A 
ENDROOT
TORSDOF 0
