MODEL 3571
MODEL 1
REMARK VINA RESULT:    -4.823      0.000      0.000
REMARK INTER + INTRA:          -5.957
REMARK INTER:                  -5.669
REMARK INTRA:                  -0.288
REMARK UNBOUND:                -0.288
REMARK  Name = No_3571-gen_results/8p0m/2024-11-26-14-13-15/
REMARK  3 active torsions:
REMARK  status: ('A' for Active; 'I' for Inactive)
REMARK    1  A    between atoms: C_1  and  C_2
REMARK    2  A    between atoms: C_1  and  N_8
REMARK    3  A    between atoms: N_8  and  C_9
REMARK                            x       y       z     vdW  Elec       q    Type
REMARK                         _______ _______ _______ _____ _____    ______ ____
ROOT
ATOM      1  C   UNL A   1     -24.355  -2.693  28.982  0.00  0.00    -0.001 A 
ATOM      2  C   UNL A   1     -25.621  -2.439  29.471  0.00  0.00    -0.003 A 
ATOM      3  C   UNL A   1     -26.447  -3.478  29.896  0.00  0.00    -0.000 A 
ATOM      4  C   UNL A   1     -26.128  -4.875  29.639  0.00  0.00    -0.000 A 
ATOM      5  C   UNL A   1     -24.861  -5.114  29.083  0.00  0.00    -0.000 A 
ATOM      6  C   UNL A   1     -24.028  -4.063  28.851  0.00  0.00    -0.003 A 
ENDROOT
BRANCH   1   7
ATOM      7  C   UNL A   1     -23.444  -1.900  29.040  0.00  0.00    +0.139 C 
BRANCH   7   8
ATOM      8  N   UNL A   1     -23.567  -0.916  29.994  0.00  0.00    -0.232 NA
BRANCH   8   9
ATOM      9  C   UNL A   1     -22.737  -0.710  31.020  0.00  0.00    +0.081 C 
ATOM     10  C   UNL A   1     -23.117  -1.138  32.319  0.00  0.00    +0.019 C 
ENDBRANCH   8   9
ENDBRANCH   7   8
ENDBRANCH   1   7
TORSDOF 3
ENDMDL
ENDMDL
