REMARK  Name = No_3572-gen_results/8p0m/2024-11-26-14-13-15/
REMARK  5 active torsions:
REMARK  status: ('A' for Active; 'I' for Inactive)
REMARK    1  A    between atoms: C_2  and  C_14
REMARK    2  A    between atoms: C_3  and  C_4
REMARK    3  A    between atoms: C_4  and  C_8
REMARK    4  A    between atoms: C_13  and  C_18
REMARK    5  A    between atoms: C_18  and  C_19
REMARK                            x       y       z     vdW  Elec       q    Type
REMARK                         _______ _______ _______ _____ _____    ______ ____
ROOT
ATOM      1  C   UNL A   1     -25.926   0.282  26.744  0.00  0.00    +0.039 A 
ATOM      2  C   UNL A   1     -25.626   1.472  26.819  0.00  0.00    +0.003 A 
ATOM      3  C   UNL A   1     -25.939   2.392  25.741  0.00  0.00    -0.000 A 
ATOM      4  C   UNL A   1     -26.752   1.928  24.742  0.00  0.00    -0.004 A 
ATOM      5  C   UNL A   1     -26.869   0.112  25.581  0.00  0.00    -0.001 A 
ATOM      6  C   UNL A   1     -27.179   0.810  24.682  0.00  0.00    -0.018 A 
ENDROOT
BRANCH   1   7
ATOM      7  C   UNL A   1     -25.654  -0.660  27.719  0.00  0.00    +0.196 C 
ATOM      8  O   UNL A   1     -24.697  -1.476  27.592  0.00  0.00    -0.287 OA
BRANCH   7  11
ATOM      9  C   UNL A   1     -28.016  -0.814  28.878  0.00  0.00    +0.010 A 
ATOM     10  C   UNL A   1     -28.469  -0.785  29.829  0.00  0.00    +0.080 A 
ATOM     11  C   UNL A   1     -26.504  -0.778  28.877  0.00  0.00    +0.039 A 
ATOM     12  C   UNL A   1     -27.918  -0.937  31.182  0.00  0.00    +0.007 A 
ATOM     13  C   UNL A   1     -26.542  -0.940  31.261  0.00  0.00    +0.000 A 
ATOM     14  C   UNL A   1     -25.783  -0.893  30.120  0.00  0.00    +0.003 A 
BRANCH  10  15
ATOM     15  C   UNL A   1     -30.056  -0.739  29.821  0.00  0.00    +0.388 C 
ATOM     16  O   UNL A   1     -30.633   0.199  30.464  0.00  0.00    -0.241 OA
ATOM     17  O   UNL A   1     -30.694  -1.751  29.484  0.00  0.00    -0.241 OA
ENDBRANCH  10  15
ENDBRANCH   7  11
ENDBRANCH   1   7
BRANCH   6  18
ATOM     18  C   UNL A   1     -28.107   0.430  23.618  0.00  0.00    +0.053 C 
BRANCH  18  19
ATOM     19  C   UNL A   1     -29.457   0.155  24.134  0.00  0.00    -0.018 A 
ATOM     20  C   UNL A   1     -30.368   0.992  24.199  0.00  0.00    -0.004 A 
ATOM     21  C   UNL A   1     -31.689   0.691  24.681  0.00  0.00    -0.000 A 
ATOM     22  C   UNL A   1     -31.923  -0.664  25.034  0.00  0.00    -0.000 A 
ATOM     23  C   UNL A   1     -30.960  -1.629  24.928  0.00  0.00    -0.000 A 
ATOM     24  C   UNL A   1     -29.704  -1.267  24.488  0.00  0.00    -0.004 A 
ENDBRANCH  18  19
ENDBRANCH   6  18
TORSDOF 5
