MODEL 3573
MODEL 1
REMARK VINA RESULT:    -7.511      0.000      0.000
REMARK INTER + INTRA:          -9.626
REMARK INTER:                  -8.829
REMARK INTRA:                  -0.798
REMARK UNBOUND:                -0.798
REMARK  Name = No_3573-gen_results/8p0m/2024-11-26-14-13-15/
REMARK  3 active torsions:
REMARK  status: ('A' for Active; 'I' for Inactive)
REMARK    1  A    between atoms: C_1  and  C_7
REMARK    2  A    between atoms: C_3  and  C_14
REMARK    3  A    between atoms: C_5  and  C_10
REMARK                            x       y       z     vdW  Elec       q    Type
REMARK                         _______ _______ _______ _____ _____    ______ ____
ROOT
ATOM      1  C   UNL A   1     -10.687   1.343  35.348  0.00  0.00    +0.080 A 
ATOM      2  C   UNL A   1     -11.028   0.664  36.289  0.00  0.00    +0.007 A 
ATOM      3  C   UNL A   1     -10.263  -0.359  36.812  0.00  0.00    +0.000 A 
ATOM      4  C   UNL A   1      -8.985  -0.599  36.232  0.00  0.00    +0.005 A 
ATOM      5  C   UNL A   1      -8.578   0.292  35.299  0.00  0.00    +0.055 A 
ATOM      6  C   UNL A   1      -9.364   1.269  34.887  0.00  0.00    +0.011 A 
ENDROOT
BRANCH   3   7
ATOM      7  C   UNL A   1     -10.773  -1.338  37.855  0.00  0.00    +0.000 A 
ATOM      8  C   UNL A   1     -10.553  -0.945  39.207  0.00  0.00    +0.000 A 
ATOM      9  C   UNL A   1     -10.968  -1.205  40.223  0.00  0.00    +0.000 A 
ATOM     10  C   UNL A   1      -9.219  -0.079  39.403  0.00  0.00    +0.000 A 
ATOM     11  C   UNL A   1      -8.806   0.228  40.676  0.00  0.00    +0.000 A 
ATOM     12  C   UNL A   1     -12.258  -2.108  40.101  0.00  0.00    +0.000 A 
ATOM     13  C   UNL A   1      -9.432  -0.328  41.758  0.00  0.00    +0.000 A 
ATOM     14  C   UNL A   1     -10.553  -1.091  41.609  0.00  0.00    +0.000 A 
ATOM     15  C   UNL A   1     -11.429  -2.456  37.511  0.00  0.00    +0.000 A 
ATOM     16  C   UNL A   1     -12.324  -2.811  38.802  0.00  0.00    +0.000 A 
ENDBRANCH   3   7
BRANCH   5  17
ATOM     17  C   UNL A   1      -7.230   0.044  34.735  0.00  0.00    +0.265 C 
ATOM     18  O   UNL A   1      -6.289   0.776  34.675  0.00  0.00    -0.268 OA
ATOM     19  N   UNL A   1      -6.880  -1.360  34.727  0.00  0.00    -0.200 NA
ATOM     20  C   UNL A   1      -5.575  -1.774  34.365  0.00  0.00    +0.139 C 
ENDBRANCH   5  17
BRANCH   1  21
ATOM     21  C   UNL A   1     -11.583   2.449  34.850  0.00  0.00    +0.388 C 
ATOM     22  O   UNL A   1     -11.058   3.457  34.396  0.00  0.00    -0.241 OA
ATOM     23  O   UNL A   1     -12.847   2.274  34.643  0.00  0.00    -0.241 OA
ENDBRANCH   1  21
TORSDOF 3
ENDMDL
ENDMDL
