REMARK  Name = No_3573-gen_results/8p0m/2024-11-26-14-13-15/
REMARK  3 active torsions:
REMARK  status: ('A' for Active; 'I' for Inactive)
REMARK    1  A    between atoms: C_1  and  C_7
REMARK    2  A    between atoms: C_3  and  C_14
REMARK    3  A    between atoms: C_5  and  C_10
REMARK                            x       y       z     vdW  Elec       q    Type
REMARK                         _______ _______ _______ _____ _____    ______ ____
ROOT
ATOM      1  C   UNL A   1     -28.016  -0.814  28.878  0.00  0.00    +0.080 A 
ATOM      2  C   UNL A   1     -27.064  -0.119  28.608  0.00  0.00    +0.007 A 
ATOM      3  C   UNL A   1     -27.001   0.691  27.491  0.00  0.00    +0.000 A 
ATOM      4  C   UNL A   1     -28.137   0.736  26.635  0.00  0.00    +0.005 A 
ATOM      5  C   UNL A   1     -29.236   0.076  27.069  0.00  0.00    +0.055 A 
ATOM      6  C   UNL A   1     -29.218  -0.643  28.175  0.00  0.00    +0.011 A 
ENDROOT
BRANCH   3   7
ATOM      7  C   UNL A   1     -25.737   1.404  27.044  0.00  0.00    +0.000 A 
ATOM      8  C   UNL A   1     -25.337   2.495  27.869  0.00  0.00    +0.000 A 
ATOM      9  C   UNL A   1     -24.398   3.088  28.060  0.00  0.00    +0.000 A 
ATOM     10  C   UNL A   1     -26.573   3.256  28.550  0.00  0.00    +0.000 A 
ATOM     11  C   UNL A   1     -26.339   4.419  29.239  0.00  0.00    +0.000 A 
ATOM     12  C   UNL A   1     -23.147   2.419  27.366  0.00  0.00    +0.000 A 
ATOM     13  C   UNL A   1     -25.102   5.002  29.212  0.00  0.00    +0.000 A 
ATOM     14  C   UNL A   1     -24.044   4.383  28.613  0.00  0.00    +0.000 A 
ATOM     15  C   UNL A   1     -25.031   0.988  25.982  0.00  0.00    +0.000 A 
ATOM     16  C   UNL A   1     -23.539   1.528  26.253  0.00  0.00    +0.000 A 
ENDBRANCH   3   7
BRANCH   5  17
ATOM     17  C   UNL A   1     -30.419   0.166  26.180  0.00  0.00    +0.265 C 
ATOM     18  O   UNL A   1     -30.466   0.258  24.991  0.00  0.00    -0.268 OA
ATOM     19  N   UNL A   1     -31.603  -0.423  26.769  0.00  0.00    -0.200 NA
ATOM     20  C   UNL A   1     -32.789  -0.565  26.009  0.00  0.00    +0.139 C 
ENDBRANCH   5  17
BRANCH   1  21
ATOM     21  C   UNL A   1     -28.003  -1.660  30.127  0.00  0.00    +0.388 C 
ATOM     22  O   UNL A   1     -27.122  -2.502  30.244  0.00  0.00    -0.241 OA
ATOM     23  O   UNL A   1     -28.705  -1.363  31.170  0.00  0.00    -0.241 OA
ENDBRANCH   1  21
TORSDOF 3
