MODEL 3574
MODEL 1
REMARK VINA RESULT:    -5.386      0.000      0.000
REMARK INTER + INTRA:          -5.386
REMARK INTER:                  -5.386
REMARK INTRA:                   0.000
REMARK UNBOUND:                 0.000
REMARK  Name = No_3574-gen_results/8p0m/2024-11-26-14-13-15/
REMARK  0 active torsions:
REMARK  status: ('A' for Active; 'I' for Inactive)
REMARK                            x       y       z     vdW  Elec       q    Type
REMARK                         _______ _______ _______ _____ _____    ______ ____
ROOT
ATOM      1  O   UNL A   1     -27.432  -3.134  30.195  0.00  0.00    -0.260 OA
ATOM      2  C   UNL A   1     -26.496  -3.716  29.861  0.00  0.00    +0.294 C 
ATOM      3  C   UNL A   1     -26.187  -4.702  29.529  0.00  0.00    -0.007 C 
ATOM      4  N   UNL A   1     -25.420  -2.748  29.584  0.00  0.00    -0.240 N 
ATOM      5  C   UNL A   1     -24.155  -3.191  29.083  0.00  0.00    +0.166 C 
ATOM      6  C   UNL A   1     -24.006  -4.513  28.781  0.00  0.00    +0.115 C 
ATOM      7  C   UNL A   1     -25.032  -5.368  28.961  0.00  0.00    -0.079 C 
ATOM      8  N   UNL A   1     -23.171  -2.291  28.899  0.00  0.00    -0.180 NA
ATOM      9  C   UNL A   1     -23.127  -1.085  28.966  0.00  0.00    +0.181 C 
ATOM     10  N   UNL A   1     -24.227  -0.543  29.485  0.00  0.00    -0.178 NA
ATOM     11  C   UNL A   1     -25.352  -1.341  29.772  0.00  0.00    +0.188 C 
ENDROOT
TORSDOF 0
ENDMDL
ENDMDL
