REMARK  Name = No_3574-gen_results/8p0m/2024-11-26-14-13-15/
REMARK  0 active torsions:
REMARK  status: ('A' for Active; 'I' for Inactive)
REMARK                            x       y       z     vdW  Elec       q    Type
REMARK                         _______ _______ _______ _____ _____    ______ ____
ROOT
ATOM      1  O   UNL A   1     -28.123  -1.335  28.487  0.00  0.00    -0.260 OA
ATOM      2  C   UNL A   1     -27.481  -0.404  28.709  0.00  0.00    +0.294 C 
ATOM      3  C   UNL A   1     -27.190   0.246  29.527  0.00  0.00    -0.007 C 
ATOM      4  N   UNL A   1     -26.602  -0.158  27.552  0.00  0.00    -0.240 N 
ATOM      5  C   UNL A   1     -25.642   0.903  27.582  0.00  0.00    +0.166 C 
ATOM      6  C   UNL A   1     -25.500   1.614  28.737  0.00  0.00    +0.115 C 
ATOM      7  C   UNL A   1     -26.255   1.316  29.813  0.00  0.00    -0.079 C 
ATOM      8  N   UNL A   1     -24.896   1.142  26.487  0.00  0.00    -0.180 NA
ATOM      9  C   UNL A   1     -24.761   0.566  25.433  0.00  0.00    +0.181 C 
ATOM     10  N   UNL A   1     -25.645  -0.411  25.247  0.00  0.00    -0.178 NA
ATOM     11  C   UNL A   1     -26.532  -0.781  26.277  0.00  0.00    +0.188 C 
ENDROOT
TORSDOF 0
