MODEL 3575
MODEL 1
REMARK VINA RESULT:    -6.097      0.000      0.000
REMARK INTER + INTRA:          -6.608
REMARK INTER:                  -6.454
REMARK INTRA:                  -0.154
REMARK UNBOUND:                -0.154
REMARK  Name = No_3575-gen_results/8p0m/2024-11-26-14-13-15/
REMARK  1 active torsions:
REMARK  status: ('A' for Active; 'I' for Inactive)
REMARK    1  A    between atoms: C_3  and  C_8
REMARK                            x       y       z     vdW  Elec       q    Type
REMARK                         _______ _______ _______ _____ _____    ______ ____
ROOT
ATOM      1  O   UNL A   1     -26.563  -1.501  29.865  0.00  0.00    -0.273 OA
ATOM      2  C   UNL A   1     -25.730  -2.360  29.552  0.00  0.00    +0.245 C 
ATOM      3  C   UNL A   1     -24.825  -2.461  29.052  0.00  0.00    +0.100 C 
ATOM      4  N   UNL A   1     -26.372  -3.822  29.806  0.00  0.00    -0.205 NA
ATOM      5  C   UNL A   1     -23.968  -3.589  28.565  0.00  0.00    +0.015 C 
ATOM      6  C   UNL A   1     -24.546  -4.853  28.936  0.00  0.00    +0.024 C 
ATOM      7  C   UNL A   1     -25.756  -4.897  29.497  0.00  0.00    +0.115 C 
ENDROOT
BRANCH   3   8
ATOM      8  C   UNL A   1     -24.037  -1.159  28.645  0.00  0.00    -0.014 A 
ATOM      9  C   UNL A   1     -24.358  -0.425  27.903  0.00  0.00    -0.004 A 
ATOM     10  C   UNL A   1     -22.725  -1.099  29.384  0.00  0.00    -0.004 A 
ATOM     11  C   UNL A   1     -21.747  -0.219  29.033  0.00  0.00    -0.000 A 
ATOM     12  C   UNL A   1     -23.453   0.730  27.492  0.00  0.00    -0.000 A 
ATOM     13  C   UNL A   1     -22.155   0.808  28.098  0.00  0.00    -0.000 A 
ENDBRANCH   3   8
TORSDOF 1
ENDMDL
ENDMDL
