REMARK  Name = No_3575-gen_results/8p0m/2024-11-26-14-13-15/
REMARK  1 active torsions:
REMARK  status: ('A' for Active; 'I' for Inactive)
REMARK    1  A    between atoms: C_3  and  C_8
REMARK                            x       y       z     vdW  Elec       q    Type
REMARK                         _______ _______ _______ _____ _____    ______ ____
ROOT
ATOM      1  O   UNL A   1     -28.123  -1.335  28.487  0.00  0.00    -0.273 OA
ATOM      2  C   UNL A   1     -27.064  -0.824  28.869  0.00  0.00    +0.245 C 
ATOM      3  C   UNL A   1     -26.402  -0.062  28.622  0.00  0.00    +0.100 C 
ATOM      4  N   UNL A   1     -26.381  -1.799  29.962  0.00  0.00    -0.205 NA
ATOM      5  C   UNL A   1     -25.033   0.374  29.048  0.00  0.00    +0.015 C 
ATOM      6  C   UNL A   1     -24.546  -0.470  30.107  0.00  0.00    +0.024 C 
ATOM      7  C   UNL A   1     -25.236  -1.553  30.471  0.00  0.00    +0.115 C 
ENDROOT
BRANCH   3   8
ATOM      8  C   UNL A   1     -26.830   0.987  27.528  0.00  0.00    -0.014 A 
ATOM      9  C   UNL A   1     -27.214   1.991  27.723  0.00  0.00    -0.004 A 
ATOM     10  C   UNL A   1     -26.700   0.382  26.154  0.00  0.00    -0.004 A 
ATOM     11  C   UNL A   1     -27.240   0.979  25.056  0.00  0.00    -0.000 A 
ATOM     12  C   UNL A   1     -27.723   2.875  26.591  0.00  0.00    -0.000 A 
ATOM     13  C   UNL A   1     -27.701   2.335  25.262  0.00  0.00    -0.000 A 
ENDBRANCH   3   8
TORSDOF 1
