REMARK  Name = No_3576-gen_results/8p0m/2024-11-26-14-13-15/
REMARK  2 active torsions:
REMARK  status: ('A' for Active; 'I' for Inactive)
REMARK    1  A    between atoms: C_2  and  C_15
REMARK    2  A    between atoms: C_15  and  O_17
REMARK                            x       y       z     vdW  Elec       q    Type
REMARK                         _______ _______ _______ _____ _____    ______ ____
ROOT
ATOM      1  C   UNL A   1     -28.016  -0.814  28.878  0.00  0.00    +0.018 A 
ATOM      2  C   UNL A   1     -27.064  -0.119  28.608  0.00  0.00    +0.076 A 
ATOM      3  C   UNL A   1     -25.765  -0.390  29.036  0.00  0.00    +0.003 A 
ATOM      4  C   UNL A   1     -25.530  -1.530  29.901  0.00  0.00    +0.001 A 
ATOM      5  C   UNL A   1     -26.658  -2.292  30.203  0.00  0.00    +0.011 A 
ATOM      6  C   UNL A   1     -27.855  -1.956  29.763  0.00  0.00    +0.058 A 
ATOM      7  C   UNL A   1     -24.535   0.413  28.743  0.00  0.00    -0.016 A 
ATOM      8  C   UNL A   1     -23.306   0.037  29.039  0.00  0.00    +0.051 A 
ATOM      9  C   UNL A   1     -23.065  -1.144  29.708  0.00  0.00    +0.004 A 
ATOM     10  C   UNL A   1     -24.187  -1.956  30.196  0.00  0.00    +0.000 A 
ATOM     11  C   UNL A   1     -22.118   0.847  28.651  0.00  0.00    +0.265 C 
ATOM     12  N   UNL A   1     -22.283   1.878  27.739  0.00  0.00    -0.201 NA
ATOM     13  O   UNL A   1     -20.944   0.447  28.833  0.00  0.00    -0.268 OA
ATOM     14 CL   UNL A   1     -29.236  -2.885  30.273  0.00  0.00    -0.082 Cl
ATOM     15  C   UNL A   1     -23.463   2.511  27.422  0.00  0.00    +0.120 C 
ATOM     16  C   UNL A   1     -24.702   1.685  27.912  0.00  0.00    +0.050 C 
ENDROOT
BRANCH   2  17
ATOM     17  C   UNL A   1     -27.193   1.063  27.652  0.00  0.00    +0.341 C 
ATOM     18  O   UNL A   1     -27.767   1.978  27.985  0.00  0.00    -0.245 OA
BRANCH  17  19
ATOM     19  O   UNL A   1     -26.844   0.849  26.335  0.00  0.00    -0.441 OA
ATOM     20  C   UNL A   1     -26.571   1.828  25.551  0.00  0.00    +0.256 C 
ENDBRANCH  17  19
ENDBRANCH   2  17
TORSDOF 2
