MODEL 3576
MODEL 1
REMARK VINA RESULT:    -6.724      0.000      0.000
REMARK INTER + INTRA:          -7.084
REMARK INTER:                  -7.510
REMARK INTRA:                   0.426
REMARK UNBOUND:                 0.426
REMARK  Name = No_3576-gen_results/8p0m/2024-11-26-14-13-15/
REMARK  2 active torsions:
REMARK  status: ('A' for Active; 'I' for Inactive)
REMARK    1  A    between atoms: C_2  and  C_15
REMARK    2  A    between atoms: C_15  and  O_17
REMARK                            x       y       z     vdW  Elec       q    Type
REMARK                         _______ _______ _______ _____ _____    ______ ____
ROOT
ATOM      1  C   UNL A   1     -31.163  -8.435  30.060  0.00  0.00    +0.018 A 
ATOM      2  C   UNL A   1     -30.547  -8.721  31.060  0.00  0.00    +0.076 A 
ATOM      3  C   UNL A   1     -29.814  -9.898  31.204  0.00  0.00    +0.003 A 
ATOM      4  C   UNL A   1     -29.823 -10.872  30.129  0.00  0.00    +0.001 A 
ATOM      5  C   UNL A   1     -30.561 -10.510  29.003  0.00  0.00    +0.011 A 
ATOM      6  C   UNL A   1     -31.236  -9.378  28.956  0.00  0.00    +0.058 A 
ATOM      7  C   UNL A   1     -29.023 -10.326  32.402  0.00  0.00    -0.016 A 
ATOM      8  C   UNL A   1     -28.222 -11.372  32.438  0.00  0.00    +0.051 A 
ATOM      9  C   UNL A   1     -28.090 -12.205  31.347  0.00  0.00    +0.004 A 
ATOM     10  C   UNL A   1     -28.925 -11.996  30.157  0.00  0.00    +0.000 A 
ATOM     11  C   UNL A   1     -27.403 -11.699  33.638  0.00  0.00    +0.265 C 
ATOM     12  N   UNL A   1     -27.279 -10.749  34.640  0.00  0.00    -0.201 NA
ATOM     13  O   UNL A   1     -26.561 -12.627  33.644  0.00  0.00    -0.268 OA
ATOM     14 CL   UNL A   1     -32.229  -9.041  27.566  0.00  0.00    -0.082 Cl
ATOM     15  C   UNL A   1     -28.116  -9.680  34.863  0.00  0.00    +0.120 C 
ATOM     16  C   UNL A   1     -29.030  -9.402  33.620  0.00  0.00    +0.050 C 
ENDROOT
BRANCH   2  17
ATOM     17  C   UNL A   1     -30.419  -7.738  32.220  0.00  0.00    +0.341 C 
ATOM     18  O   UNL A   1     -31.296  -7.597  32.919  0.00  0.00    -0.245 OA
BRANCH  17  19
ATOM     19  O   UNL A   1     -29.349  -6.869  32.193  0.00  0.00    -0.441 OA
ATOM     20  C   UNL A   1     -29.497  -5.640  31.854  0.00  0.00    +0.256 C 
ENDBRANCH  17  19
ENDBRANCH   2  17
TORSDOF 2
ENDMDL
ENDMDL
