MODEL 3577
MODEL 1
REMARK VINA RESULT:    -6.663      0.000      0.000
REMARK INTER + INTRA:          -7.819
REMARK INTER:                  -7.442
REMARK INTRA:                  -0.377
REMARK UNBOUND:                -0.377
REMARK  Name = No_3577-gen_results/8p0m/2024-11-26-14-13-15/
REMARK  2 active torsions:
REMARK  status: ('A' for Active; 'I' for Inactive)
REMARK    1  A    between atoms: C_3  and  C_4
REMARK    2  A    between atoms: C_4  and  C_8
REMARK                            x       y       z     vdW  Elec       q    Type
REMARK                         _______ _______ _______ _____ _____    ______ ____
ROOT
ATOM      1  C   UNL A   1     -24.509  -1.258  29.809  0.00  0.00    +0.053 C 
ENDROOT
BRANCH   1   4
ATOM      2  C   UNL A   1     -21.989  -0.714  29.338  0.00  0.00    -0.004 A 
ATOM      3  C   UNL A   1     -21.360  -0.035  28.833  0.00  0.00    -0.000 A 
ATOM      4  C   UNL A   1     -23.436  -0.556  29.123  0.00  0.00    -0.018 A 
ATOM      5  C   UNL A   1     -21.636   0.949  27.759  0.00  0.00    -0.000 A 
ATOM      6  C   UNL A   1     -22.985   1.151  27.491  0.00  0.00    -0.000 A 
ATOM      7  C   UNL A   1     -23.946   0.399  28.133  0.00  0.00    -0.004 A 
ENDBRANCH   1   4
BRANCH   1   8
ATOM      8  C   UNL A   1     -24.791  -2.589  29.479  0.00  0.00    -0.018 A 
ATOM      9  C   UNL A   1     -25.865  -3.191  29.953  0.00  0.00    -0.004 A 
ATOM     10  C   UNL A   1     -26.111  -4.552  29.611  0.00  0.00    -0.000 A 
ATOM     11  C   UNL A   1     -25.138  -5.230  28.940  0.00  0.00    -0.000 A 
ATOM     12  C   UNL A   1     -23.859  -3.421  28.814  0.00  0.00    -0.004 A 
ATOM     13  C   UNL A   1     -24.009  -4.655  28.550  0.00  0.00    -0.000 A 
ENDBRANCH   1   8
TORSDOF 2
ENDMDL
ENDMDL
