REMARK  Name = No_3578-gen_results/8p0m/2024-11-26-14-13-15/
REMARK  10 active torsions:
REMARK  status: ('A' for Active; 'I' for Inactive)
REMARK    1  A    between atoms: C_7  and  C_26
REMARK    2  A    between atoms: C_14  and  C_15
REMARK    3  A    between atoms: C_15  and  C_16
REMARK    4  A    between atoms: C_16  and  C_17
REMARK    5  A    between atoms: C_26  and  N_27
REMARK    6  A    between atoms: N_27  and  C_28
REMARK    7  A    between atoms: C_28  and  C_29
REMARK    8  A    between atoms: C_29  and  C_30
REMARK    9  A    between atoms: C_30  and  C_31
REMARK   10  A    between atoms: C_32  and  N_33
REMARK                            x       y       z     vdW  Elec       q    Type
REMARK                         _______ _______ _______ _____ _____    ______ ____
ROOT
ATOM      1  C   UNL A   1     -28.016  -0.814  28.878  0.00  0.00    -0.007 A 
ATOM      2  C   UNL A   1     -27.064  -0.119  28.608  0.00  0.00    -0.015 A 
ATOM      3  C   UNL A   1     -25.765  -0.390  29.036  0.00  0.00    -0.004 A 
ATOM      4  C   UNL A   1     -24.552   0.406  28.765  0.00  0.00    -0.004 A 
ATOM      5  C   UNL A   1     -23.230   0.118  29.258  0.00  0.00    -0.000 A 
ATOM      6  C   UNL A   1     -22.139   0.943  28.922  0.00  0.00    -0.000 A 
ATOM      7  C   UNL A   1     -27.829  -1.929  29.855  0.00  0.00    -0.005 A 
ATOM      8  C   UNL A   1     -26.588  -2.327  30.268  0.00  0.00    -0.003 A 
ATOM      9  C   UNL A   1     -25.456  -1.543  29.915  0.00  0.00    -0.001 A 
ATOM     10  C   UNL A   1     -22.230   1.909  27.872  0.00  0.00    -0.000 A 
ATOM     11  C   UNL A   1     -24.554   1.470  27.762  0.00  0.00    -0.021 A 
ATOM     12  C   UNL A   1     -25.819   1.734  27.141  0.00  0.00    +0.038 C 
ATOM     13  C   UNL A   1     -23.450   2.161  27.319  0.00  0.00    -0.004 A 
ATOM     14  C   UNL A   1     -27.105   1.009  27.587  0.00  0.00    +0.084 C 
ENDROOT
BRANCH  14  15
ATOM     15  C   UNL A   1     -28.348   1.312  26.989  0.00  0.00    +0.158 C 
ATOM     16  O   UNL A   1     -28.454   1.047  25.784  0.00  0.00    -0.295 OA
BRANCH  15  17
ATOM     17  C   UNL A   1     -29.062   2.214  27.664  0.00  0.00    +0.080 C 
ATOM     18  C   UNL A   1     -30.612   2.067  27.381  0.00  0.00    +0.013 C 
BRANCH  17  19
ATOM     19  C   UNL A   1     -28.745   3.068  28.395  0.00  0.00    -0.016 A 
ATOM     20  C   UNL A   1     -29.607   4.055  29.105  0.00  0.00    -0.004 A 
ATOM     21  C   UNL A   1     -29.110   5.000  30.050  0.00  0.00    -0.001 A 
ATOM     22  C   UNL A   1     -27.729   5.057  30.301  0.00  0.00    -0.004 A 
ATOM     23  C   UNL A   1     -26.988   4.322  29.651  0.00  0.00    -0.022 A 
ATOM     24  C   UNL A   1     -27.372   3.330  28.811  0.00  0.00    -0.008 A 
ATOM     25  C   UNL A   1     -25.453   4.399  29.942  0.00  0.00    +0.031 C 
ENDBRANCH  17  19
ENDBRANCH  15  17
ENDBRANCH  14  15
BRANCH   7  26
ATOM     26  C   UNL A   1     -29.034  -2.726  30.268  0.00  0.00    +0.115 C 
BRANCH  26  27
ATOM     27  N   UNL A   1     -28.921  -4.034  30.504  0.00  0.00    -0.213 NA
BRANCH  27  28
ATOM     28  C   UNL A   1     -29.915  -4.924  30.255  0.00  0.00    +0.089 C 
BRANCH  28  29
ATOM     29  C   UNL A   1     -30.696  -4.771  29.156  0.00  0.00    +0.024 C 
BRANCH  29  30
ATOM     30  C   UNL A   1     -31.954  -5.181  29.398  0.00  0.00    +0.029 C 
BRANCH  30  31
ATOM     31  C   UNL A   1     -32.929  -4.824  28.419  0.00  0.00    -0.005 C 
ATOM     32  C   UNL A   1     -32.388  -4.365  27.228  0.00  0.00    +0.094 C 
BRANCH  32  33
ATOM     33  N   UNL A   1     -33.270  -3.834  26.328  0.00  0.00    -0.247 NA
ATOM     34  C   UNL A   1     -32.719  -2.955  25.381  0.00  0.00    +0.073 C 
ATOM     35  C   UNL A   1     -32.590  -1.521  25.697  0.00  0.00    +0.053 C 
ENDBRANCH  32  33
ENDBRANCH  30  31
ENDBRANCH  29  30
ENDBRANCH  28  29
ENDBRANCH  27  28
ENDBRANCH  26  27
ENDBRANCH   7  26
TORSDOF 10
