MODEL 3578
MODEL 1
REMARK VINA RESULT:    -6.065      0.000      0.000
REMARK INTER + INTRA:         -14.445
REMARK INTER:                  -9.610
REMARK INTRA:                  -4.835
REMARK UNBOUND:                -4.835
REMARK  Name = No_3578-gen_results/8p0m/2024-11-26-14-13-15/
REMARK  10 active torsions:
REMARK  status: ('A' for Active; 'I' for Inactive)
REMARK    1  A    between atoms: C_7  and  C_26
REMARK    2  A    between atoms: C_14  and  C_15
REMARK    3  A    between atoms: C_15  and  C_16
REMARK    4  A    between atoms: C_16  and  C_17
REMARK    5  A    between atoms: C_26  and  N_27
REMARK    6  A    between atoms: N_27  and  C_28
REMARK    7  A    between atoms: C_28  and  C_29
REMARK    8  A    between atoms: C_29  and  C_30
REMARK    9  A    between atoms: C_30  and  C_31
REMARK   10  A    between atoms: C_32  and  N_33
REMARK                            x       y       z     vdW  Elec       q    Type
REMARK                         _______ _______ _______ _____ _____    ______ ____
ROOT
ATOM      1  C   UNL A   1     -28.920 -15.085   9.259  0.00  0.00    -0.007 A 
ATOM      2  C   UNL A   1     -30.114 -15.024   9.439  0.00  0.00    -0.015 A 
ATOM      3  C   UNL A   1     -31.051 -15.667   8.631  0.00  0.00    -0.004 A 
ATOM      4  C   UNL A   1     -32.520 -15.637   8.770  0.00  0.00    -0.004 A 
ATOM      5  C   UNL A   1     -33.461 -16.282   7.891  0.00  0.00    -0.000 A 
ATOM      6  C   UNL A   1     -34.846 -16.198   8.130  0.00  0.00    -0.000 A 
ATOM      7  C   UNL A   1     -28.421 -15.744   8.014  0.00  0.00    -0.005 A 
ATOM      8  C   UNL A   1     -29.246 -16.472   7.202  0.00  0.00    -0.003 A 
ATOM      9  C   UNL A   1     -30.648 -16.446   7.435  0.00  0.00    -0.001 A 
ATOM     10  C   UNL A   1     -35.360 -15.730   9.379  0.00  0.00    -0.000 A 
ATOM     11  C   UNL A   1     -33.155 -15.111   9.977  0.00  0.00    -0.021 A 
ATOM     12  C   UNL A   1     -32.264 -14.556  10.954  0.00  0.00    +0.038 C 
ATOM     13  C   UNL A   1     -34.495 -15.181  10.278  0.00  0.00    -0.004 A 
ATOM     14  C   UNL A   1     -30.750 -14.434  10.690  0.00  0.00    +0.084 C 
ENDROOT
BRANCH  14  15
ATOM     15  C   UNL A   1     -29.895 -13.848  11.650  0.00  0.00    +0.158 C 
ATOM     16  O   UNL A   1     -29.427 -14.613  12.504  0.00  0.00    -0.295 OA
BRANCH  15  17
ATOM     17  C   UNL A   1     -30.051 -12.529  11.773  0.00  0.00    +0.080 C 
ATOM     18  C   UNL A   1     -30.624 -12.136  13.195  0.00  0.00    +0.013 C 
BRANCH  17  19
ATOM     19  C   UNL A   1     -29.851 -11.650  11.032  0.00  0.00    -0.016 A 
ATOM     20  C   UNL A   1     -30.785 -10.579  10.581  0.00  0.00    -0.004 A 
ATOM     21  C   UNL A   1     -30.397  -9.498   9.736  0.00  0.00    -0.001 A 
ATOM     22  C   UNL A   1     -29.081  -9.449   9.247  0.00  0.00    -0.004 A 
ATOM     23  C   UNL A   1     -28.322 -10.376   9.522  0.00  0.00    -0.022 A 
ATOM     24  C   UNL A   1     -28.567 -11.387  10.392  0.00  0.00    -0.008 A 
ATOM     25  C   UNL A   1     -26.861 -10.306   8.968  0.00  0.00    +0.031 C 
ENDBRANCH  17  19
ENDBRANCH  15  17
ENDBRANCH  14  15
BRANCH   7  26
ATOM     26  C   UNL A   1     -26.944 -15.728   7.740  0.00  0.00    +0.115 C 
BRANCH  26  27
ATOM     27  N   UNL A   1     -26.422 -14.791   6.947  0.00  0.00    -0.213 NA
BRANCH  27  28
ATOM     28  C   UNL A   1     -26.844 -13.501   6.940  0.00  0.00    +0.089 C 
BRANCH  28  29
ATOM     29  C   UNL A   1     -27.782 -13.105   6.043  0.00  0.00    +0.024 C 
BRANCH  29  30
ATOM     30  C   UNL A   1     -28.746 -12.382   6.642  0.00  0.00    +0.029 C 
BRANCH  30  31
ATOM     31  C   UNL A   1     -30.088 -12.801   6.397  0.00  0.00    -0.005 C 
ATOM     32  C   UNL A   1     -31.029 -12.166   7.192  0.00  0.00    +0.094 C 
BRANCH  32  33
ATOM     33  N   UNL A   1     -32.303 -12.660   7.134  0.00  0.00    -0.247 NA
ATOM     34  C   UNL A   1     -33.319 -11.774   7.527  0.00  0.00    +0.073 C 
ATOM     35  C   UNL A   1     -33.705 -11.682   8.947  0.00  0.00    +0.053 C 
ENDBRANCH  32  33
ENDBRANCH  30  31
ENDBRANCH  29  30
ENDBRANCH  28  29
ENDBRANCH  27  28
ENDBRANCH  26  27
ENDBRANCH   7  26
TORSDOF 10
ENDMDL
ENDMDL
