REMARK  Name = No_3579-gen_results/8p0m/2024-11-26-14-13-15/
REMARK  0 active torsions:
REMARK  status: ('A' for Active; 'I' for Inactive)
REMARK                            x       y       z     vdW  Elec       q    Type
REMARK                         _______ _______ _______ _____ _____    ______ ____
ROOT
ATOM      1  C   UNL A   1     -28.016  -0.814  28.878  0.00  0.00    -0.000 A 
ATOM      2  C   UNL A   1     -28.469  -0.785  29.829  0.00  0.00    -0.000 A 
ATOM      3  C   UNL A   1     -28.196   0.348  28.055  0.00  0.00    -0.004 A 
ATOM      4  C   UNL A   1     -29.019   1.350  28.378  0.00  0.00    -0.023 A 
ATOM      5  C   UNL A   1     -29.411   0.180  30.378  0.00  0.00    -0.002 A 
ATOM      6  C   UNL A   1     -29.224   2.492  27.543  0.00  0.00    +0.031 C 
ATOM      7  C   UNL A   1     -29.587   1.224  29.619  0.00  0.00    +0.010 A 
ATOM      8  C   UNL A   1     -28.877   3.603  28.066  0.00  0.00    +0.031 C 
ATOM      9  C   UNL A   1     -28.147   3.773  29.161  0.00  0.00    -0.023 A 
ATOM     10  C   UNL A   1     -27.396   4.681  29.513  0.00  0.00    -0.004 A 
ATOM     11  C   UNL A   1     -26.591   4.720  30.735  0.00  0.00    -0.000 A 
ATOM     12  C   UNL A   1     -26.637   3.558  31.545  0.00  0.00    -0.000 A 
ATOM     13  C   UNL A   1     -27.411   2.526  31.152  0.00  0.00    -0.002 A 
ATOM     14  C   UNL A   1     -28.059   2.596  30.068  0.00  0.00    +0.010 A 
ATOM     15  C   UNL A   1     -29.001   1.735  29.933  0.00  0.00    +0.205 C 
ATOM     16  F   UNL A   1     -29.497   2.215  31.154  0.00  0.00    -0.228 F 
ENDROOT
TORSDOF 0
