MODEL 3579
MODEL 1
REMARK VINA RESULT:    -7.175      0.000      0.000
REMARK INTER + INTRA:          -7.175
REMARK INTER:                  -7.175
REMARK INTRA:                   0.000
REMARK UNBOUND:                 0.000
REMARK  Name = No_3579-gen_results/8p0m/2024-11-26-14-13-15/
REMARK  0 active torsions:
REMARK  status: ('A' for Active; 'I' for Inactive)
REMARK                            x       y       z     vdW  Elec       q    Type
REMARK                         _______ _______ _______ _____ _____    ______ ____
ROOT
ATOM      1  C   UNL A   1     -25.714  -0.094  24.755  0.00  0.00    -0.000 A 
ATOM      2  C   UNL A   1     -26.355  -0.034  25.590  0.00  0.00    -0.000 A 
ATOM      3  C   UNL A   1     -24.474   0.621  24.856  0.00  0.00    -0.004 A 
ATOM      4  C   UNL A   1     -24.193   1.456  25.860  0.00  0.00    -0.023 A 
ATOM      5  C   UNL A   1     -26.264   0.816  26.768  0.00  0.00    -0.002 A 
ATOM      6  C   UNL A   1     -22.972   2.195  25.944  0.00  0.00    +0.031 C 
ATOM      7  C   UNL A   1     -25.146   1.479  26.846  0.00  0.00    +0.010 A 
ATOM      8  C   UNL A   1     -22.253   1.921  26.962  0.00  0.00    +0.031 C 
ATOM      9  C   UNL A   1     -22.397   0.889  27.783  0.00  0.00    -0.023 A 
ATOM     10  C   UNL A   1     -21.588   0.272  28.474  0.00  0.00    -0.004 A 
ATOM     11  C   UNL A   1     -21.869  -0.903  29.301  0.00  0.00    -0.000 A 
ATOM     12  C   UNL A   1     -23.190  -1.410  29.230  0.00  0.00    -0.000 A 
ATOM     13  C   UNL A   1     -24.082  -0.783  28.437  0.00  0.00    -0.002 A 
ATOM     14  C   UNL A   1     -23.728   0.222  27.755  0.00  0.00    +0.010 A 
ATOM     15  C   UNL A   1     -24.686   0.941  27.295  0.00  0.00    +0.205 C 
ATOM     16  F   UNL A   1     -25.136   1.035  28.620  0.00  0.00    -0.228 F 
ENDROOT
TORSDOF 0
ENDMDL
ENDMDL
