MODEL 357
MODEL 1
REMARK VINA RESULT:    -4.955      0.000      0.000
REMARK INTER + INTRA:          -4.955
REMARK INTER:                  -4.955
REMARK INTRA:                   0.000
REMARK UNBOUND:                 0.000
REMARK  Name = No_357-gen_results/8p0m/2024-11-26-14-13-15/
REMARK  0 active torsions:
REMARK  status: ('A' for Active; 'I' for Inactive)
REMARK                            x       y       z     vdW  Elec       q    Type
REMARK                         _______ _______ _______ _____ _____    ______ ____
ROOT
ATOM      1  C   UNL A   1      -8.880 -10.869  17.968  0.00  0.00    +0.042 A 
ATOM      2  C   UNL A   1      -8.009 -10.679  18.785  0.00  0.00    +0.003 A 
ATOM      3  C   UNL A   1      -8.217  -9.838  19.873  0.00  0.00    +0.000 A 
ATOM      4  C   UNL A   1      -9.461  -9.130  20.035  0.00  0.00    +0.003 A 
ATOM      5  C   UNL A   1     -10.403  -9.390  19.031  0.00  0.00    +0.042 A 
ATOM      6  C   UNL A   1     -10.151 -10.181  18.014  0.00  0.00    +0.196 A 
ATOM      7  O   UNL A   1     -11.109 -10.350  17.061  0.00  0.00    -0.287 OA
ENDROOT
TORSDOF 0
ENDMDL
ENDMDL
