REMARK  Name = No_358-gen_results/8p0m/2024-11-26-14-13-15/
REMARK  4 active torsions:
REMARK  status: ('A' for Active; 'I' for Inactive)
REMARK    1  A    between atoms: C_6  and  O_7
REMARK    2  A    between atoms: O_7  and  C_8
REMARK    3  A    between atoms: C_8  and  C_10
REMARK    4  A    between atoms: N_12  and  C_13
REMARK                            x       y       z     vdW  Elec       q    Type
REMARK                         _______ _______ _______ _____ _____    ______ ____
ROOT
ATOM      1  O   UNL A   1     -28.853  -2.719  30.211  0.00  0.00    -0.466 OA
ENDROOT
BRANCH   1   7
ATOM      2  C   UNL A   1     -28.016  -0.814  28.878  0.00  0.00    +0.067 A 
ATOM      3  C   UNL A   1     -27.064  -0.119  28.608  0.00  0.00    +0.143 A 
ATOM      4  C   UNL A   1     -25.792  -0.430  29.076  0.00  0.00    +0.030 A 
ATOM      5  C   UNL A   1     -25.568  -1.241  29.757  0.00  0.00    +0.005 A 
ATOM      6  C   UNL A   1     -26.611  -2.184  30.244  0.00  0.00    +0.037 A 
ATOM      7  C   UNL A   1     -27.819  -1.919  29.803  0.00  0.00    +0.141 A 
ATOM      8  F   UNL A   1     -27.232   1.000  27.798  0.00  0.00    -0.204 F 
ENDBRANCH   1   7
BRANCH   1   9
ATOM      9  C   UNL A   1     -28.637  -3.999  30.583  0.00  0.00    +0.291 C 
BRANCH   9  10
ATOM     10  C   UNL A   1     -29.826  -4.583  31.308  0.00  0.00    +0.290 C 
ATOM     11  O   UNL A   1     -29.698  -5.680  31.476  0.00  0.00    -0.269 OA
ATOM     12  N   UNL A   1     -31.019  -4.037  31.102  0.00  0.00    -0.175 NA
BRANCH  12  13
ATOM     13  C   UNL A   1     -32.200  -4.672  31.580  0.00  0.00    +0.084 C 
ATOM     14  C   UNL A   1     -33.203  -4.392  30.975  0.00  0.00    -0.008 C 
ATOM     15  C   UNL A   1     -34.376  -4.820  31.095  0.00  0.00    +0.032 C 
ENDBRANCH  12  13
ENDBRANCH   9  10
ENDBRANCH   1   9
TORSDOF 4
