REMARK  Name = No_3580-gen_results/8p0m/2024-11-26-14-13-15/
REMARK  7 active torsions:
REMARK  status: ('A' for Active; 'I' for Inactive)
REMARK    1  A    between atoms: C_2  and  C_7
REMARK    2  A    between atoms: C_7  and  C_8
REMARK    3  A    between atoms: C_7  and  C_9
REMARK    4  A    between atoms: C_9  and  C_10
REMARK    5  A    between atoms: C_10  and  C_11
REMARK    6  A    between atoms: C_14  and  C_15
REMARK    7  A    between atoms: C_16  and  C_17
REMARK                            x       y       z     vdW  Elec       q    Type
REMARK                         _______ _______ _______ _____ _____    ______ ____
ROOT
ATOM      1  C   UNL A   1     -25.891  -0.626  27.786  0.00  0.00    +0.045 C 
ENDROOT
BRANCH   1   3
ATOM      2  C   UNL A   1     -28.016  -0.814  28.878  0.00  0.00    -0.004 A 
ATOM      3  C   UNL A   1     -27.064  -0.119  28.608  0.00  0.00    -0.018 A 
ATOM      4  C   UNL A   1     -26.929   1.171  29.008  0.00  0.00    -0.004 A 
ATOM      5  C   UNL A   1     -27.956   1.741  29.784  0.00  0.00    -0.000 A 
ATOM      6  C   UNL A   1     -29.057  -0.327  29.747  0.00  0.00    -0.000 A 
ATOM      7  C   UNL A   1     -28.983   0.972  30.152  0.00  0.00    -0.000 A 
ENDBRANCH   1   3
BRANCH   1   8
ATOM      8  C   UNL A   1     -25.463   0.112  26.681  0.00  0.00    -0.022 C 
ATOM      9  C   UNL A   1     -26.228   0.785  25.929  0.00  0.00    -0.004 C 
BRANCH   9  10
ATOM     10  C   UNL A   1     -27.657   0.812  26.120  0.00  0.00    -0.000 C 
ATOM     11  C   UNL A   1     -28.444   1.434  25.124  0.00  0.00    -0.000 C 
BRANCH  11  12
ATOM     12  C   UNL A   1     -29.795   1.561  25.356  0.00  0.00    -0.000 A 
ATOM     13  C   UNL A   1     -30.312   0.934  26.486  0.00  0.00    -0.000 A 
ATOM     14  C   UNL A   1     -31.721   1.034  26.679  0.00  0.00    +0.000 A 
ATOM     15  C   UNL A   1     -32.452   1.779  25.807  0.00  0.00    +0.000 A 
ATOM     16  C   UNL A   1     -31.962   2.403  24.716  0.00  0.00    +0.000 A 
ATOM     17  C   UNL A   1     -30.598   2.328  24.483  0.00  0.00    -0.000 A 
ENDBRANCH  11  12
ENDBRANCH   9  10
ENDBRANCH   1   8
BRANCH   1  18
ATOM     18  C   UNL A   1     -25.031  -1.670  28.241  0.00  0.00    +0.013 C 
BRANCH  18  19
ATOM     19  C   UNL A   1     -23.864  -1.411  29.010  0.00  0.00    +0.026 C 
BRANCH  19  20
ATOM     20  C   UNL A   1     -23.267  -0.152  29.050  0.00  0.00    -0.031 C 
ATOM     21  C   UNL A   1     -21.859  -0.059  29.189  0.00  0.00    -0.030 C 
ATOM     22  C   UNL A   1     -21.101   0.020  28.247  0.00  0.00    +0.030 C 
ENDBRANCH  19  20
ENDBRANCH  18  19
ENDBRANCH   1  18
TORSDOF 7
