MODEL 3580
MODEL 1
REMARK VINA RESULT:    -7.572      0.000      0.000
REMARK INTER + INTRA:         -12.930
REMARK INTER:                 -10.670
REMARK INTRA:                  -2.260
REMARK UNBOUND:                -2.260
REMARK  Name = No_3580-gen_results/8p0m/2024-11-26-14-13-15/
REMARK  7 active torsions:
REMARK  status: ('A' for Active; 'I' for Inactive)
REMARK    1  A    between atoms: C_2  and  C_7
REMARK    2  A    between atoms: C_7  and  C_8
REMARK    3  A    between atoms: C_7  and  C_9
REMARK    4  A    between atoms: C_9  and  C_10
REMARK    5  A    between atoms: C_10  and  C_11
REMARK    6  A    between atoms: C_14  and  C_15
REMARK    7  A    between atoms: C_16  and  C_17
REMARK                            x       y       z     vdW  Elec       q    Type
REMARK                         _______ _______ _______ _____ _____    ______ ____
ROOT
ATOM      1  C   UNL A   1     -24.219  -1.233  28.821  0.00  0.00    +0.045 C 
ENDROOT
BRANCH   1   3
ATOM      2  C   UNL A   1     -25.809  -2.834  29.631  0.00  0.00    -0.004 A 
ATOM      3  C   UNL A   1     -24.754  -2.633  29.075  0.00  0.00    -0.018 A 
ATOM      4  C   UNL A   1     -23.941  -3.616  28.611  0.00  0.00    -0.004 A 
ATOM      5  C   UNL A   1     -24.344  -4.954  28.786  0.00  0.00    -0.000 A 
ATOM      6  C   UNL A   1     -26.328  -4.172  29.758  0.00  0.00    -0.000 A 
ATOM      7  C   UNL A   1     -25.536  -5.197  29.335  0.00  0.00    -0.000 A 
ENDBRANCH   1   3
BRANCH   1   8
ATOM      8  C   UNL A   1     -22.874  -0.961  29.076  0.00  0.00    -0.022 C 
ATOM      9  C   UNL A   1     -22.432  -0.495  30.168  0.00  0.00    -0.004 C 
BRANCH   9  10
ATOM     10  C   UNL A   1     -23.307  -0.148  31.260  0.00  0.00    -0.000 C 
ATOM     11  C   UNL A   1     -23.445  -1.079  32.315  0.00  0.00    -0.000 C 
BRANCH  11  12
ATOM     12  C   UNL A   1     -24.363  -0.801  33.303  0.00  0.00    -0.000 A 
ATOM     13  C   UNL A   1     -25.506  -0.097  32.935  0.00  0.00    -0.000 A 
ATOM     14  C   UNL A   1     -26.418   0.225  33.982  0.00  0.00    +0.000 A 
ATOM     15  C   UNL A   1     -26.161  -0.225  35.239  0.00  0.00    +0.000 A 
ATOM     16  C   UNL A   1     -25.064  -0.920  35.607  0.00  0.00    +0.000 A 
ATOM     17  C   UNL A   1     -24.145  -1.251  34.624  0.00  0.00    -0.000 A 
ENDBRANCH  11  12
ENDBRANCH   9  10
ENDBRANCH   1   8
BRANCH   1  18
ATOM     18  C   UNL A   1     -24.949  -0.257  28.079  0.00  0.00    +0.013 C 
BRANCH  18  19
ATOM     19  C   UNL A   1     -24.803  -0.107  26.673  0.00  0.00    +0.026 C 
BRANCH  19  20
ATOM     20  C   UNL A   1     -24.317   1.067  26.100  0.00  0.00    -0.031 C 
ATOM     21  C   UNL A   1     -23.539   1.951  26.890  0.00  0.00    -0.030 C 
ATOM     22  C   UNL A   1     -22.329   1.911  26.937  0.00  0.00    +0.030 C 
ENDBRANCH  19  20
ENDBRANCH  18  19
ENDBRANCH   1  18
TORSDOF 7
ENDMDL
ENDMDL
