MODEL 3581
MODEL 1
REMARK VINA RESULT:    -5.579      0.000      0.000
REMARK INTER + INTRA:          -6.382
REMARK INTER:                  -6.232
REMARK INTRA:                  -0.150
REMARK UNBOUND:                -0.150
REMARK  Name = No_3581-gen_results/8p0m/2024-11-26-14-13-15/
REMARK  2 active torsions:
REMARK  status: ('A' for Active; 'I' for Inactive)
REMARK    1  A    between atoms: C_1  and  C_2
REMARK    2  A    between atoms: C_1  and  N_8
REMARK                            x       y       z     vdW  Elec       q    Type
REMARK                         _______ _______ _______ _____ _____    ______ ____
ROOT
ATOM      1  C   UNL A   1     -24.339  -1.333  29.807  0.00  0.00    +0.133 C 
ENDROOT
BRANCH   1   2
ATOM      2  C   UNL A   1     -24.785  -2.374  29.385  0.00  0.00    +0.000 A 
ATOM      3  C   UNL A   1     -26.010  -2.890  29.761  0.00  0.00    -0.002 A 
ATOM      4  C   UNL A   1     -26.251  -4.262  29.727  0.00  0.00    -0.000 A 
ATOM      5  C   UNL A   1     -25.334  -5.194  29.088  0.00  0.00    -0.000 A 
ATOM      6  C   UNL A   1     -24.117  -4.643  28.654  0.00  0.00    -0.000 A 
ATOM      7  C   UNL A   1     -23.869  -3.323  28.874  0.00  0.00    -0.002 A 
ENDBRANCH   1   2
BRANCH   1   8
ATOM      8  N   UNL A   1     -23.921  -0.448  28.839  0.00  0.00    -0.321 N 
ATOM      9  C   UNL A   1     -24.424  -0.128  27.979  0.00  0.00    +0.076 A 
ATOM     10  C   UNL A   1     -23.831   0.876  27.099  0.00  0.00    +0.020 A 
ATOM     11  C   UNL A   1     -22.547   0.121  28.881  0.00  0.00    +0.076 A 
ATOM     12  C   UNL A   1     -22.561   0.965  27.781  0.00  0.00    +0.020 A 
ENDBRANCH   1   8
TORSDOF 2
ENDMDL
ENDMDL
