MODEL 3582
MODEL 1
REMARK VINA RESULT:    -6.595      0.000      0.000
REMARK INTER + INTRA:          -7.418
REMARK INTER:                  -6.980
REMARK INTRA:                  -0.438
REMARK UNBOUND:                -0.438
REMARK  Name = No_3582-gen_results/8p0m/2024-11-26-14-13-15/
REMARK  1 active torsions:
REMARK  status: ('A' for Active; 'I' for Inactive)
REMARK    1  A    between atoms: C_3  and  C_4
REMARK                            x       y       z     vdW  Elec       q    Type
REMARK                         _______ _______ _______ _____ _____    ______ ____
ROOT
ATOM      1  C   UNL A   1     -24.489  -0.169  28.047  0.00  0.00    +0.000 A 
ATOM      2  C   UNL A   1     -23.712   0.388  27.604  0.00  0.00    +0.000 A 
ATOM      3  C   UNL A   1     -24.020  -1.325  28.811  0.00  0.00    +0.000 A 
ATOM      4  C   UNL A   1     -22.464   0.785  28.154  0.00  0.00    +0.000 A 
ATOM      5  C   UNL A   1     -21.813  -0.247  28.949  0.00  0.00    +0.000 A 
ATOM      6  C   UNL A   1     -22.647  -1.299  29.288  0.00  0.00    +0.000 A 
ENDROOT
BRANCH   3   7
ATOM      7  C   UNL A   1     -24.716  -2.480  28.897  0.00  0.00    +0.000 A 
ATOM      8  C   UNL A   1     -25.720  -2.727  29.453  0.00  0.00    +0.000 A 
ATOM      9  C   UNL A   1     -26.239  -4.078  29.700  0.00  0.00    +0.000 A 
ATOM     10  C   UNL A   1     -25.554  -4.950  29.394  0.00  0.00    +0.000 A 
ATOM     11  C   UNL A   1     -23.934  -3.798  28.585  0.00  0.00    +0.000 A 
ATOM     12  C   UNL A   1     -24.339  -4.965  28.754  0.00  0.00    +0.000 A 
ENDBRANCH   3   7
TORSDOF 1
ENDMDL
ENDMDL
