MODEL 3583
MODEL 1
REMARK VINA RESULT:    -6.543      0.000      0.000
REMARK INTER + INTRA:          -6.543
REMARK INTER:                  -6.543
REMARK INTRA:                   0.000
REMARK UNBOUND:                 0.000
REMARK  Name = No_3583-gen_results/8p0m/2024-11-26-14-13-15/
REMARK  0 active torsions:
REMARK  status: ('A' for Active; 'I' for Inactive)
REMARK                            x       y       z     vdW  Elec       q    Type
REMARK                         _______ _______ _______ _____ _____    ______ ____
ROOT
ATOM      1  O   UNL A   1     -21.732   0.083  28.988  0.00  0.00    -0.273 OA
ATOM      2  C   UNL A   1     -22.633  -0.464  29.454  0.00  0.00    +0.249 C 
ATOM      3  C   UNL A   1     -23.445  -0.309  30.155  0.00  0.00    +0.105 C 
ATOM      4  N   UNL A   1     -22.730  -1.918  28.945  0.00  0.00    -0.179 NA
ATOM      5  C   UNL A   1     -23.719   0.928  30.830  0.00  0.00    -0.023 C 
ATOM      6  C   UNL A   1     -23.775  -2.756  29.216  0.00  0.00    +0.069 A 
ATOM      7  C   UNL A   1     -23.967  -3.960  28.623  0.00  0.00    +0.016 A 
ATOM      8  C   UNL A   1     -25.238  -4.672  28.919  0.00  0.00    +0.001 A 
ATOM      9  C   UNL A   1     -26.167  -4.059  29.740  0.00  0.00    -0.000 A 
ATOM     10  C   UNL A   1     -25.045  -2.409  29.937  0.00  0.00    -0.006 A 
ATOM     11  C   UNL A   1     -26.083  -3.094  30.191  0.00  0.00    -0.003 A 
ATOM     12  C   UNL A   1     -24.696   1.323  31.727  0.00  0.00    -0.018 C 
ATOM     13  C   UNL A   1     -24.809  -0.927  30.571  0.00  0.00    +0.046 C 
ATOM     14  C   UNL A   1     -25.679  -0.328  31.474  0.00  0.00    +0.066 C 
ATOM     15  C   UNL A   1     -26.847  -0.176  32.031  0.00  0.00    +0.071 C 
ATOM     16  N   UNL A   1     -26.943   0.960  32.687  0.00  0.00    -0.269 NA
ATOM     17  C   UNL A   1     -25.858   1.891  32.477  0.00  0.00    +0.147 C 
ENDROOT
TORSDOF 0
ENDMDL
ENDMDL
