REMARK  Name = No_3583-gen_results/8p0m/2024-11-26-14-13-15/
REMARK  0 active torsions:
REMARK  status: ('A' for Active; 'I' for Inactive)
REMARK                            x       y       z     vdW  Elec       q    Type
REMARK                         _______ _______ _______ _____ _____    ______ ____
ROOT
ATOM      1  O   UNL A   1     -28.123  -1.335  28.487  0.00  0.00    -0.273 OA
ATOM      2  C   UNL A   1     -27.481  -0.404  28.709  0.00  0.00    +0.249 C 
ATOM      3  C   UNL A   1     -27.190   0.246  29.527  0.00  0.00    +0.105 C 
ATOM      4  N   UNL A   1     -26.816   0.137  27.426  0.00  0.00    -0.179 NA
ATOM      5  C   UNL A   1     -27.579   0.064  30.896  0.00  0.00    -0.023 C 
ATOM      6  C   UNL A   1     -25.890   1.142  27.409  0.00  0.00    +0.069 A 
ATOM      7  C   UNL A   1     -25.160   1.494  26.322  0.00  0.00    +0.016 A 
ATOM      8  C   UNL A   1     -24.087   2.504  26.518  0.00  0.00    +0.001 A 
ATOM      9  C   UNL A   1     -23.861   2.994  27.792  0.00  0.00    -0.000 A 
ATOM     10  C   UNL A   1     -25.270   1.817  28.597  0.00  0.00    -0.006 A 
ATOM     11  C   UNL A   1     -24.376   2.713  28.685  0.00  0.00    -0.003 A 
ATOM     12  C   UNL A   1     -27.303   0.757  32.061  0.00  0.00    -0.018 C 
ATOM     13  C   UNL A   1     -26.120   1.312  29.892  0.00  0.00    +0.046 C 
ATOM     14  C   UNL A   1     -25.982   1.855  31.164  0.00  0.00    +0.066 C 
ATOM     15  C   UNL A   1     -25.320   2.500  32.083  0.00  0.00    +0.071 C 
ATOM     16  N   UNL A   1     -25.826   2.316  33.283  0.00  0.00    -0.269 NA
ATOM     17  C   UNL A   1     -26.837   1.288  33.379  0.00  0.00    +0.147 C 
ENDROOT
TORSDOF 0
