MODEL 3584
MODEL 1
REMARK VINA RESULT:    -4.553      0.000      0.000
REMARK INTER + INTRA:          -4.553
REMARK INTER:                  -4.553
REMARK INTRA:                   0.000
REMARK UNBOUND:                 0.000
REMARK  Name = No_3584-gen_results/8p0m/2024-11-26-14-13-15/
REMARK  0 active torsions:
REMARK  status: ('A' for Active; 'I' for Inactive)
REMARK                            x       y       z     vdW  Elec       q    Type
REMARK                         _______ _______ _______ _____ _____    ______ ____
ROOT
ATOM      1  C   UNL A   1      -9.511  -9.257  19.972  0.00  0.00    +0.011 A 
ATOM      2  C   UNL A   1     -10.191  -9.301  19.168  0.00  0.00    +0.001 A 
ATOM      3  C   UNL A   1      -8.263  -9.988  19.723  0.00  0.00    +0.058 A 
ATOM      4  C   UNL A   1      -8.095 -10.778  18.662  0.00  0.00    +0.011 A 
ATOM      5  C   UNL A   1     -10.240 -10.085  17.958  0.00  0.00    +0.000 A 
ATOM      6  C   UNL A   1      -9.082 -10.776  17.757  0.00  0.00    +0.001 A 
ATOM      7 CL   UNL A   1      -7.033  -9.853  20.966  0.00  0.00    -0.082 Cl
ENDROOT
TORSDOF 0
ENDMDL
ENDMDL
