MODEL 3586
MODEL 1
REMARK VINA RESULT:    -6.445      0.000      0.000
REMARK INTER + INTRA:          -6.894
REMARK INTER:                  -6.821
REMARK INTRA:                  -0.073
REMARK UNBOUND:                -0.073
REMARK  Name = No_3586-gen_results/8p0m/2024-11-26-14-13-15/
REMARK  1 active torsions:
REMARK  status: ('A' for Active; 'I' for Inactive)
REMARK    1  A    between atoms: C_5  and  C_12
REMARK                            x       y       z     vdW  Elec       q    Type
REMARK                         _______ _______ _______ _____ _____    ______ ____
ROOT
ATOM      1  C   UNL A   1     -31.150 -10.055  29.836  0.00  0.00    +0.052 C 
ATOM      2  C   UNL A   1     -30.264 -10.354  30.603  0.00  0.00    -0.018 A 
ATOM      3  C   UNL A   1     -30.237  -9.850  31.899  0.00  0.00    -0.004 A 
ATOM      4  C   UNL A   1     -29.199 -10.133  32.932  0.00  0.00    +0.008 A 
ATOM      5  C   UNL A   1     -28.240 -11.132  32.595  0.00  0.00    +0.098 A 
ATOM      6  C   UNL A   1     -28.321 -11.674  31.296  0.00  0.00    +0.008 A 
ATOM      7  C   UNL A   1     -29.251 -11.339  30.390  0.00  0.00    -0.003 A 
ATOM      8  C   UNL A   1     -30.688  -9.729  28.462  0.00  0.00    -0.021 C 
ATOM      9  C   UNL A   1     -30.401 -10.828  27.744  0.00  0.00    -0.004 C 
ATOM     10  C   UNL A   1     -29.389 -11.825  28.000  0.00  0.00    -0.000 C 
ATOM     11  C   UNL A   1     -28.897 -11.945  29.086  0.00  0.00    -0.000 C 
ENDROOT
BRANCH   5  12
ATOM     12  C   UNL A   1     -27.304 -11.487  33.637  0.00  0.00    +0.477 C 
ATOM     13  N   UNL A   1     -26.825 -12.695  33.650  0.00  0.00    +0.205 NA
ATOM     14  N   UNL A   1     -26.896 -10.697  34.633  0.00  0.00    +0.205 NA
ENDBRANCH   5  12
TORSDOF 1
ENDMDL
ENDMDL
