MODEL 3587
MODEL 1
REMARK VINA RESULT:    -5.352      0.000      0.000
REMARK INTER + INTRA:          -5.352
REMARK INTER:                  -5.352
REMARK INTRA:                   0.000
REMARK UNBOUND:                 0.000
REMARK  Name = No_3587-gen_results/8p0m/2024-11-26-14-13-15/
REMARK  0 active torsions:
REMARK  status: ('A' for Active; 'I' for Inactive)
REMARK                            x       y       z     vdW  Elec       q    Type
REMARK                         _______ _______ _______ _____ _____    ______ ____
ROOT
ATOM      1 CL   UNL A   1     -24.112  -3.163  29.316  0.00  0.00    -0.082 Cl
ATOM      2  C   UNL A   1     -23.959  -1.739  29.142  0.00  0.00    +0.058 A 
ATOM      3  C   UNL A   1     -24.610  -1.069  28.117  0.00  0.00    +0.011 A 
ATOM      4  C   UNL A   1     -24.072   0.020  27.427  0.00  0.00    +0.001 A 
ATOM      5  C   UNL A   1     -24.613   0.739  26.379  0.00  0.00    +0.000 A 
ATOM      6  C   UNL A   1     -22.616  -1.084  29.276  0.00  0.00    +0.011 A 
ATOM      7  C   UNL A   1     -22.111   0.030  28.820  0.00  0.00    +0.001 A 
ATOM      8  C   UNL A   1     -22.799   0.648  27.843  0.00  0.00    +0.000 A 
ATOM      9  C   UNL A   1     -22.410   1.840  27.177  0.00  0.00    +0.000 A 
ATOM     10  C   UNL A   1     -23.148   2.617  26.387  0.00  0.00    +0.000 A 
ATOM     11  C   UNL A   1     -24.313   2.005  25.988  0.00  0.00    +0.000 A 
ENDROOT
TORSDOF 0
ENDMDL
ENDMDL
