REMARK  Name = No_3587-gen_results/8p0m/2024-11-26-14-13-15/
REMARK  0 active torsions:
REMARK  status: ('A' for Active; 'I' for Inactive)
REMARK                            x       y       z     vdW  Elec       q    Type
REMARK                         _______ _______ _______ _____ _____    ______ ____
ROOT
ATOM      1 CL   UNL A   1     -28.149  -0.820  28.908  0.00  0.00    -0.082 Cl
ATOM      2  C   UNL A   1     -26.912  -0.080  28.945  0.00  0.00    +0.058 A 
ATOM      3  C   UNL A   1     -26.049  -0.072  27.859  0.00  0.00    +0.011 A 
ATOM      4  C   UNL A   1     -24.657  -0.037  27.964  0.00  0.00    +0.001 A 
ATOM      5  C   UNL A   1     -23.709  -0.056  26.960  0.00  0.00    +0.000 A 
ATOM      6  C   UNL A   1     -26.039  -0.094  30.165  0.00  0.00    +0.011 A 
ATOM      7  C   UNL A   1     -24.767   0.123  30.361  0.00  0.00    +0.001 A 
ATOM      8  C   UNL A   1     -23.983   0.144  29.268  0.00  0.00    +0.000 A 
ATOM      9  C   UNL A   1     -22.574   0.318  29.257  0.00  0.00    +0.000 A 
ATOM     10  C   UNL A   1     -21.788   0.584  28.216  0.00  0.00    +0.000 A 
ATOM     11  C   UNL A   1     -22.423   0.382  27.013  0.00  0.00    +0.000 A 
ENDROOT
TORSDOF 0
