REMARK  Name = No_3588-gen_results/8p0m/2024-11-26-14-13-15/
REMARK  3 active torsions:
REMARK  status: ('A' for Active; 'I' for Inactive)
REMARK    1  A    between atoms: C_3  and  C_14
REMARK    2  A    between atoms: C_4  and  C_5
REMARK    3  A    between atoms: C_14  and  C_15
REMARK                            x       y       z     vdW  Elec       q    Type
REMARK                         _______ _______ _______ _____ _____    ______ ____
ROOT
ATOM      1  C   UNL A   1     -28.016  -0.814  28.878  0.00  0.00    +0.042 A 
ATOM      2  C   UNL A   1     -27.064  -0.119  28.608  0.00  0.00    -0.001 A 
ATOM      3  C   UNL A   1     -26.876   1.133  28.913  0.00  0.00    -0.018 A 
ATOM      4  C   UNL A   1     -27.901   1.807  29.644  0.00  0.00    -0.000 A 
ATOM      5  C   UNL A   1     -29.070  -0.311  29.689  0.00  0.00    +0.196 A 
ATOM      6  C   UNL A   1     -28.966   1.026  30.068  0.00  0.00    +0.042 A 
ATOM      7  O   UNL A   1     -30.052  -1.103  30.091  0.00  0.00    -0.287 OA
ENDROOT
BRANCH   4   8
ATOM      8  C   UNL A   1     -27.790   3.151  30.002  0.00  0.00    +0.003 A 
ATOM      9  C   UNL A   1     -27.260   4.123  29.676  0.00  0.00    +0.000 A 
ATOM     10  C   UNL A   1     -26.904   5.218  29.863  0.00  0.00    +0.003 A 
ATOM     11  C   UNL A   1     -27.447   5.800  31.111  0.00  0.00    +0.042 A 
ATOM     12  C   UNL A   1     -28.201   4.855  31.833  0.00  0.00    +0.196 A 
ATOM     13  C   UNL A   1     -28.347   3.505  31.434  0.00  0.00    +0.042 A 
ATOM     14  O   UNL A   1     -28.737   5.201  33.067  0.00  0.00    -0.287 OA
ENDBRANCH   4   8
BRANCH   3  15
ATOM     15  C   UNL A   1     -25.684   1.944  28.451  0.00  0.00    +0.045 C 
ATOM     16  C   UNL A   1     -25.908   2.257  26.971  0.00  0.00    +0.009 C 
BRANCH  15  17
ATOM     17  C   UNL A   1     -24.440   1.495  28.684  0.00  0.00    -0.018 A 
ATOM     18  C   UNL A   1     -23.421   1.967  27.840  0.00  0.00    -0.004 A 
ATOM     19  C   UNL A   1     -24.070   0.786  29.846  0.00  0.00    -0.004 A 
ATOM     20  C   UNL A   1     -22.090   1.526  28.049  0.00  0.00    -0.000 A 
ATOM     21  C   UNL A   1     -22.744   0.334  30.034  0.00  0.00    -0.000 A 
ATOM     22  C   UNL A   1     -21.710   0.752  29.109  0.00  0.00    -0.000 A 
ENDBRANCH  15  17
ENDBRANCH   3  15
TORSDOF 3
