REMARK  Name = No_3589-gen_results/8p0m/2024-11-26-14-13-15/
REMARK  0 active torsions:
REMARK  status: ('A' for Active; 'I' for Inactive)
REMARK                            x       y       z     vdW  Elec       q    Type
REMARK                         _______ _______ _______ _____ _____    ______ ____
ROOT
ATOM      1  O   UNL A   1     -28.123  -1.335  28.487  0.00  0.00    -0.273 OA
ATOM      2  C   UNL A   1     -27.481  -0.404  28.709  0.00  0.00    +0.241 C 
ATOM      3  C   UNL A   1     -27.190   0.246  29.527  0.00  0.00    +0.078 C 
ATOM      4  N   UNL A   1     -26.602  -0.158  27.552  0.00  0.00    -0.205 NA
ATOM      5  C   UNL A   1     -25.642   0.903  27.582  0.00  0.00    +0.115 C 
ATOM      6  C   UNL A   1     -26.253   1.373  29.793  0.00  0.00    +0.011 C 
ATOM      7  C   UNL A   1     -25.474   1.655  28.693  0.00  0.00    +0.024 C 
ATOM      8  C   UNL A   1     -28.016   0.008  30.926  0.00  0.00    +0.010 C 
ENDROOT
TORSDOF 0
