MODEL 358
MODEL 1
REMARK VINA RESULT:    -5.831      0.000      0.000
REMARK INTER + INTRA:          -7.550
REMARK INTER:                  -7.195
REMARK INTRA:                  -0.355
REMARK UNBOUND:                -0.355
REMARK  Name = No_358-gen_results/8p0m/2024-11-26-14-13-15/
REMARK  4 active torsions:
REMARK  status: ('A' for Active; 'I' for Inactive)
REMARK    1  A    between atoms: C_6  and  O_7
REMARK    2  A    between atoms: O_7  and  C_8
REMARK    3  A    between atoms: C_8  and  C_10
REMARK    4  A    between atoms: N_12  and  C_13
REMARK                            x       y       z     vdW  Elec       q    Type
REMARK                         _______ _______ _______ _____ _____    ______ ____
ROOT
ATOM      1  O   UNL A   1     -23.895  -1.061  30.577  0.00  0.00    -0.466 OA
ENDROOT
BRANCH   1   7
ATOM      2  C   UNL A   1     -23.763  -3.082  29.162  0.00  0.00    +0.067 A 
ATOM      3  C   UNL A   1     -24.321  -4.091  28.798  0.00  0.00    +0.143 A 
ATOM      4  C   UNL A   1     -25.646  -4.342  29.140  0.00  0.00    +0.030 A 
ATOM      5  C   UNL A   1     -26.240  -3.721  29.798  0.00  0.00    +0.005 A 
ATOM      6  C   UNL A   1     -25.719  -2.459  30.388  0.00  0.00    +0.037 A 
ATOM      7  C   UNL A   1     -24.474  -2.193  30.067  0.00  0.00    +0.141 A 
ATOM      8  F   UNL A   1     -23.642  -5.010  28.004  0.00  0.00    -0.204 F 
ENDBRANCH   1   7
BRANCH   1   9
ATOM      9  C   UNL A   1     -22.647  -0.694  30.216  0.00  0.00    +0.291 C 
BRANCH   9  10
ATOM     10  C   UNL A   1     -22.630   0.653  29.535  0.00  0.00    +0.290 C 
ATOM     11  O   UNL A   1     -23.458   1.304  29.907  0.00  0.00    -0.269 OA
ATOM     12  N   UNL A   1     -22.189   0.721  28.284  0.00  0.00    -0.175 NA
BRANCH  12  13
ATOM     13  C   UNL A   1     -22.352   1.911  27.521  0.00  0.00    +0.084 C 
ATOM     14  C   UNL A   1     -22.917   1.761  26.468  0.00  0.00    -0.008 C 
ATOM     15  C   UNL A   1     -23.272   2.599  25.605  0.00  0.00    +0.032 C 
ENDBRANCH  12  13
ENDBRANCH   9  10
ENDBRANCH   1   9
TORSDOF 4
ENDMDL
ENDMDL
