REMARK  Name = No_359-gen_results/8p0m/2024-11-26-14-13-15/
REMARK  1 active torsions:
REMARK  status: ('A' for Active; 'I' for Inactive)
REMARK    1  A    between atoms: N_16  and  C_17
REMARK                            x       y       z     vdW  Elec       q    Type
REMARK                         _______ _______ _______ _____ _____    ______ ____
ROOT
ATOM      1  C   UNL A   1     -28.016  -0.814  28.878  0.00  0.00    +0.059 A 
ATOM      2  C   UNL A   1     -27.064  -0.119  28.608  0.00  0.00    +0.045 A 
ATOM      3  C   UNL A   1     -25.765  -0.390  29.036  0.00  0.00    +0.141 A 
ATOM      4  C   UNL A   1     -25.530  -1.530  29.901  0.00  0.00    +0.030 A 
ATOM      5  C   UNL A   1     -26.689  -2.289  30.181  0.00  0.00    +0.008 A 
ATOM      6  C   UNL A   1     -27.873  -1.951  29.737  0.00  0.00    +0.067 A 
ATOM      7  F   UNL A   1     -24.699   0.360  28.775  0.00  0.00    -0.204 F 
ATOM      8  C   UNL A   1     -29.033  -2.814  30.151  0.00  0.00    +0.251 C 
ATOM      9  N   UNL A   1     -30.207  -2.250  30.277  0.00  0.00    -0.261 N 
ATOM     10  O   UNL A   1     -28.883  -4.025  30.398  0.00  0.00    -0.270 OA
ATOM     11  C   UNL A   1     -31.381  -3.034  30.645  0.00  0.00    +0.095 C 
ATOM     12  C   UNL A   1     -32.383  -2.396  30.972  0.00  0.00    +0.022 C 
ATOM     13  C   UNL A   1     -32.447  -0.954  30.787  0.00  0.00    +0.005 C 
ATOM     14  C   UNL A   1     -31.329  -0.230  30.428  0.00  0.00    +0.041 C 
ATOM     15  C   UNL A   1     -30.214  -0.837  30.266  0.00  0.00    +0.156 C 
ATOM     16  N   UNL A   1     -29.348  -0.278  29.075  0.00  0.00    -0.272 N 
ENDROOT
BRANCH  16  17
ATOM     17  C   UNL A   1     -29.787   0.675  28.207  0.00  0.00    +0.053 A 
ATOM     18  C   UNL A   1     -29.471   1.918  28.498  0.00  0.00    +0.015 A 
ATOM     19  C   UNL A   1     -30.555   0.236  27.150  0.00  0.00    +0.015 A 
ATOM     20  C   UNL A   1     -29.861   2.970  27.639  0.00  0.00    +0.001 A 
ATOM     21  C   UNL A   1     -31.039   1.216  26.284  0.00  0.00    +0.001 A 
ATOM     22  C   UNL A   1     -30.673   2.599  26.524  0.00  0.00    +0.000 A 
ENDBRANCH  16  17
TORSDOF 1
