MODEL 3590
MODEL 1
REMARK VINA RESULT:    -9.774      0.000      0.000
REMARK INTER + INTRA:         -15.124
REMARK INTER:                 -12.631
REMARK INTRA:                  -2.493
REMARK UNBOUND:                -2.493
REMARK  Name = No_3590-gen_results/8p0m/2024-11-26-14-13-15/
REMARK  5 active torsions:
REMARK  status: ('A' for Active; 'I' for Inactive)
REMARK    1  A    between atoms: C_3  and  C_9
REMARK    2  A    between atoms: C_9  and  C_23
REMARK    3  A    between atoms: C_10  and  C_11
REMARK    4  A    between atoms: C_11  and  C_12
REMARK    5  A    between atoms: C_25  and  C_27
REMARK                            x       y       z     vdW  Elec       q    Type
REMARK                         _______ _______ _______ _____ _____    ______ ____
ROOT
ATOM      1  C   UNL A   1     -25.102   1.041  26.339  0.00  0.00    -0.003 C 
ATOM      2  C   UNL A   1     -25.613   0.550  25.142  0.00  0.00    -0.021 C 
ENDROOT
BRANCH   1   5
ATOM      3  C   UNL A   1     -24.636   4.660  26.311  0.00  0.00    +0.012 A 
ATOM      4  C   UNL A   1     -24.502   3.476  26.104  0.00  0.00    +0.058 A 
ATOM      5  C   UNL A   1     -25.360   2.525  26.556  0.00  0.00    +0.011 A 
ATOM      6  C   UNL A   1     -26.474   2.936  27.312  0.00  0.00    +0.012 A 
ATOM      7  C   UNL A   1     -25.803   5.158  26.994  0.00  0.00    +0.012 A 
ATOM      8  C   UNL A   1     -26.680   4.242  27.493  0.00  0.00    +0.058 A 
ATOM      9 CL   UNL A   1     -23.164   2.864  25.173  0.00  0.00    -0.082 Cl
ATOM     10 CL   UNL A   1     -28.057   4.817  28.360  0.00  0.00    -0.082 Cl
ENDBRANCH   1   5
BRANCH   1  11
ATOM     11  C   UNL A   1     -24.467   0.337  27.309  0.00  0.00    -0.000 A 
ATOM     12  C   UNL A   1     -24.857  -0.741  27.730  0.00  0.00    -0.000 A 
ATOM     13  C   UNL A   1     -24.100  -1.578  28.678  0.00  0.00    -0.000 A 
ATOM     14  C   UNL A   1     -23.316   0.931  27.886  0.00  0.00    -0.000 A 
ATOM     15  C   UNL A   1     -22.975  -1.001  29.041  0.00  0.00    -0.000 A 
ATOM     16  C   UNL A   1     -22.596   0.255  28.675  0.00  0.00    -0.000 A 
BRANCH  13  17
ATOM     17  C   UNL A   1     -24.602  -2.842  29.027  0.00  0.00    -0.000 A 
ATOM     18  C   UNL A   1     -25.711  -3.024  29.491  0.00  0.00    +0.000 A 
ATOM     19  C   UNL A   1     -26.294  -4.376  29.727  0.00  0.00    +0.000 A 
ATOM     20  C   UNL A   1     -25.576  -5.488  29.329  0.00  0.00    +0.000 A 
ATOM     21  C   UNL A   1     -23.905  -4.072  28.576  0.00  0.00    +0.000 A 
ATOM     22  C   UNL A   1     -24.405  -5.306  28.696  0.00  0.00    +0.000 A 
ENDBRANCH  13  17
ENDBRANCH   1  11
BRANCH   2  23
ATOM     23  C   UNL A   1     -26.530   1.088  24.249  0.00  0.00    +0.052 C 
BRANCH  23  24
ATOM     24  C   UNL A   1     -27.833   0.612  24.244  0.00  0.00    -0.014 A 
ATOM     25  C   UNL A   1     -28.874   1.046  24.114  0.00  0.00    +0.048 A 
ATOM     26  C   UNL A   1     -30.196   0.400  23.896  0.00  0.00    -0.016 A 
ATOM     27  C   UNL A   1     -31.431   0.938  24.095  0.00  0.00    +0.050 C 
ATOM     28  C   UNL A   1     -29.139   2.539  24.322  0.00  0.00    +0.264 C 
ATOM     29  C   UNL A   1     -31.504   2.315  24.188  0.00  0.00    +0.120 C 
ATOM     30  N   UNL A   1     -30.408   3.071  24.302  0.00  0.00    -0.201 NA
ATOM     31  C   UNL A   1     -27.881  -0.904  23.813  0.00  0.00    -0.004 A 
ATOM     32  C   UNL A   1     -29.032  -1.608  23.510  0.00  0.00    -0.001 A 
ATOM     33  C   UNL A   1     -30.135  -1.021  23.653  0.00  0.00    -0.004 A 
ATOM     34  O   UNL A   1     -28.198   3.338  24.383  0.00  0.00    -0.268 OA
ENDBRANCH  23  24
ENDBRANCH   2  23
TORSDOF 5
ENDMDL
ENDMDL
