REMARK  Name = No_3590-gen_results/8p0m/2024-11-26-14-13-15/
REMARK  5 active torsions:
REMARK  status: ('A' for Active; 'I' for Inactive)
REMARK    1  A    between atoms: C_3  and  C_9
REMARK    2  A    between atoms: C_9  and  C_23
REMARK    3  A    between atoms: C_10  and  C_11
REMARK    4  A    between atoms: C_11  and  C_12
REMARK    5  A    between atoms: C_25  and  C_27
REMARK                            x       y       z     vdW  Elec       q    Type
REMARK                         _______ _______ _______ _____ _____    ______ ____
ROOT
ATOM      1  C   UNL A   1     -25.749   2.029  28.573  0.00  0.00    -0.003 C 
ATOM      2  C   UNL A   1     -24.598   1.826  29.326  0.00  0.00    -0.021 C 
ENDROOT
BRANCH   1   5
ATOM      3  C   UNL A   1     -28.016  -0.814  28.878  0.00  0.00    +0.012 A 
ATOM      4  C   UNL A   1     -27.064  -0.119  28.608  0.00  0.00    +0.058 A 
ATOM      5  C   UNL A   1     -26.929   1.171  29.008  0.00  0.00    +0.011 A 
ATOM      6  C   UNL A   1     -27.956   1.741  29.784  0.00  0.00    +0.012 A 
ATOM      7  C   UNL A   1     -29.057  -0.327  29.747  0.00  0.00    +0.012 A 
ATOM      8  C   UNL A   1     -28.983   0.972  30.152  0.00  0.00    +0.058 A 
ATOM      9 CL   UNL A   1     -25.735  -0.730  27.663  0.00  0.00    -0.082 Cl
ATOM     10 CL   UNL A   1     -30.248   1.590  31.151  0.00  0.00    -0.082 Cl
ENDBRANCH   1   5
BRANCH   1  11
ATOM     11  C   UNL A   1     -25.923   2.918  27.564  0.00  0.00    -0.000 A 
ATOM     12  C   UNL A   1     -26.255   4.081  27.734  0.00  0.00    -0.000 A 
ATOM     13  C   UNL A   1     -26.307   5.089  26.661  0.00  0.00    -0.000 A 
ATOM     14  C   UNL A   1     -25.751   2.434  26.242  0.00  0.00    -0.000 A 
ATOM     15  C   UNL A   1     -25.989   4.571  25.494  0.00  0.00    -0.000 A 
ATOM     16  C   UNL A   1     -25.742   3.249  25.277  0.00  0.00    -0.000 A 
BRANCH  13  17
ATOM     17  C   UNL A   1     -26.617   6.420  26.986  0.00  0.00    -0.000 A 
ATOM     18  C   UNL A   1     -26.245   7.378  26.336  0.00  0.00    +0.000 A 
ATOM     19  C   UNL A   1     -26.692   8.776  26.600  0.00  0.00    +0.000 A 
ATOM     20  C   UNL A   1     -27.638   8.997  27.583  0.00  0.00    +0.000 A 
ATOM     21  C   UNL A   1     -27.667   6.717  27.991  0.00  0.00    +0.000 A 
ATOM     22  C   UNL A   1     -28.159   7.938  28.225  0.00  0.00    +0.000 A 
ENDBRANCH  13  17
ENDBRANCH   1  11
BRANCH   2  23
ATOM     23  C   UNL A   1     -24.402   1.196  30.548  0.00  0.00    +0.052 C 
BRANCH  23  24
ATOM     24  C   UNL A   1     -25.295   1.430  31.583  0.00  0.00    -0.014 A 
ATOM     25  C   UNL A   1     -25.538   0.963  32.589  0.00  0.00    +0.048 A 
ATOM     26  C   UNL A   1     -26.368   1.441  33.728  0.00  0.00    -0.016 A 
ATOM     27  C   UNL A   1     -26.899   0.703  34.741  0.00  0.00    +0.050 C 
ATOM     28  C   UNL A   1     -25.128  -0.475  32.913  0.00  0.00    +0.264 C 
ATOM     29  C   UNL A   1     -26.361  -0.553  34.947  0.00  0.00    +0.120 C 
ATOM     30  N   UNL A   1     -25.522  -1.111  34.068  0.00  0.00    -0.201 NA
ATOM     31  C   UNL A   1     -25.718   2.948  31.636  0.00  0.00    -0.004 A 
ATOM     32  C   UNL A   1     -26.426   3.540  32.666  0.00  0.00    -0.001 A 
ATOM     33  C   UNL A   1     -26.825   2.804  33.604  0.00  0.00    -0.004 A 
ATOM     34  O   UNL A   1     -24.312  -1.068  32.198  0.00  0.00    -0.268 OA
ENDBRANCH  23  24
ENDBRANCH   2  23
TORSDOF 5
