REMARK  Name = No_3591-gen_results/8p0m/2024-11-26-14-13-15/
REMARK  3 active torsions:
REMARK  status: ('A' for Active; 'I' for Inactive)
REMARK    1  A    between atoms: C_2  and  C_10
REMARK    2  A    between atoms: C_5  and  C_7
REMARK    3  A    between atoms: C_11  and  C_17
REMARK                            x       y       z     vdW  Elec       q    Type
REMARK                         _______ _______ _______ _____ _____    ______ ____
ROOT
ATOM      1  C   UNL A   1     -25.706  -0.208  29.419  0.00  0.00    +0.023 C 
ATOM      2  C   UNL A   1     -25.105   1.040  29.830  0.00  0.00    +0.026 C 
ATOM      3  C   UNL A   1     -23.737   0.974  29.966  0.00  0.00    +0.005 C 
ATOM      4  C   UNL A   1     -23.088   0.090  29.459  0.00  0.00    +0.000 C 
ATOM      5  C   UNL A   1     -23.588  -1.142  28.937  0.00  0.00    +0.000 C 
ATOM      6  C   UNL A   1     -24.747  -0.967  28.478  0.00  0.00    +0.004 C 
ATOM      7  C   UNL A   1     -25.968  -1.077  30.666  0.00  0.00    +0.005 C 
ENDROOT
BRANCH   1   9
ATOM      8  C   UNL A   1     -28.016  -0.814  28.878  0.00  0.00    -0.004 A 
ATOM      9  C   UNL A   1     -27.064  -0.119  28.608  0.00  0.00    -0.022 A 
ATOM     10  C   UNL A   1     -27.001   0.691  27.491  0.00  0.00    -0.004 A 
ATOM     11  C   UNL A   1     -28.137   0.736  26.635  0.00  0.00    +0.006 A 
ATOM     12  C   UNL A   1     -29.236   0.076  27.069  0.00  0.00    +0.080 A 
ATOM     13  C   UNL A   1     -29.218  -0.643  28.175  0.00  0.00    +0.006 A 
BRANCH  12  14
ATOM     14  C   UNL A   1     -30.415   0.159  26.182  0.00  0.00    +0.388 C 
ATOM     15  O   UNL A   1     -31.277  -0.512  26.408  0.00  0.00    -0.241 OA
ATOM     16  O   UNL A   1     -30.598   1.163  25.377  0.00  0.00    -0.241 OA
ENDBRANCH  12  14
ENDBRANCH   1   9
BRANCH   2  17
ATOM     17  C   UNL A   1     -25.851   2.097  30.475  0.00  0.00    -0.022 A 
ATOM     18  C   UNL A   1     -26.771   2.620  29.945  0.00  0.00    -0.004 A 
ATOM     19  C   UNL A   1     -27.464   3.561  30.250  0.00  0.00    -0.000 A 
ATOM     20  C   UNL A   1     -27.229   4.152  31.511  0.00  0.00    -0.000 A 
ATOM     21  C   UNL A   1     -26.180   3.655  32.300  0.00  0.00    -0.000 A 
ATOM     22  C   UNL A   1     -25.435   2.677  31.746  0.00  0.00    -0.004 A 
ENDBRANCH   2  17
TORSDOF 3
