MODEL 3591
MODEL 1
REMARK VINA RESULT:    -7.655      0.000      0.000
REMARK INTER + INTRA:         -10.545
REMARK INTER:                  -8.998
REMARK INTRA:                  -1.548
REMARK UNBOUND:                -1.548
REMARK  Name = No_3591-gen_results/8p0m/2024-11-26-14-13-15/
REMARK  3 active torsions:
REMARK  status: ('A' for Active; 'I' for Inactive)
REMARK    1  A    between atoms: C_2  and  C_10
REMARK    2  A    between atoms: C_5  and  C_7
REMARK    3  A    between atoms: C_11  and  C_17
REMARK                            x       y       z     vdW  Elec       q    Type
REMARK                         _______ _______ _______ _____ _____    ______ ____
ROOT
ATOM      1  C   UNL A   1     -24.307  -0.173  29.087  0.00  0.00    +0.023 C 
ATOM      2  C   UNL A   1     -24.661  -1.230  30.007  0.00  0.00    +0.026 C 
ATOM      3  C   UNL A   1     -24.360  -0.942  31.319  0.00  0.00    +0.005 C 
ATOM      4  C   UNL A   1     -24.159   0.189  31.693  0.00  0.00    +0.000 C 
ATOM      5  C   UNL A   1     -23.891   1.324  30.870  0.00  0.00    +0.000 C 
ATOM      6  C   UNL A   1     -24.490   1.199  29.770  0.00  0.00    +0.004 C 
ATOM      7  C   UNL A   1     -22.827  -0.332  28.682  0.00  0.00    +0.005 C 
ENDROOT
BRANCH   1   9
ATOM      8  C   UNL A   1     -24.632  -0.017  26.665  0.00  0.00    -0.004 A 
ATOM      9  C   UNL A   1     -25.156  -0.066  27.754  0.00  0.00    -0.022 A 
ATOM     10  C   UNL A   1     -26.508   0.126  27.961  0.00  0.00    -0.004 A 
ATOM     11  C   UNL A   1     -27.331   0.354  26.823  0.00  0.00    +0.006 A 
ATOM     12  C   UNL A   1     -26.728   0.230  25.618  0.00  0.00    +0.080 A 
ATOM     13  C   UNL A   1     -25.433   0.004  25.514  0.00  0.00    +0.006 A 
BRANCH  12  14
ATOM     14  C   UNL A   1     -27.606   0.440  24.447  0.00  0.00    +0.388 C 
ATOM     15  O   UNL A   1     -28.372  -0.341  24.232  0.00  0.00    -0.241 OA
ATOM     16  O   UNL A   1     -27.718   1.602  23.875  0.00  0.00    -0.241 OA
ENDBRANCH  12  14
ENDBRANCH   1   9
BRANCH   2  17
ATOM     17  C   UNL A   1     -24.867  -2.598  29.590  0.00  0.00    -0.022 A 
ATOM     18  C   UNL A   1     -25.855  -3.189  29.866  0.00  0.00    -0.004 A 
ATOM     19  C   UNL A   1     -26.193  -4.338  29.706  0.00  0.00    -0.000 A 
ATOM     20  C   UNL A   1     -25.310  -5.175  28.988  0.00  0.00    -0.000 A 
ATOM     21  C   UNL A   1     -24.083  -4.645  28.559  0.00  0.00    -0.000 A 
ATOM     22  C   UNL A   1     -23.824  -3.375  28.932  0.00  0.00    -0.004 A 
ENDBRANCH   2  17
TORSDOF 3
ENDMDL
ENDMDL
