MODEL 3592
MODEL 1
REMARK VINA RESULT:    -4.912      0.000      0.000
REMARK INTER + INTRA:          -5.973
REMARK INTER:                  -5.774
REMARK INTRA:                  -0.199
REMARK UNBOUND:                -0.199
REMARK  Name = No_3592-gen_results/8p0m/2024-11-26-14-13-15/
REMARK  3 active torsions:
REMARK  status: ('A' for Active; 'I' for Inactive)
REMARK    1  A    between atoms: C_1  and  C_2
REMARK    2  A    between atoms: C_1  and  N_8
REMARK    3  A    between atoms: N_8  and  C_9
REMARK                            x       y       z     vdW  Elec       q    Type
REMARK                         _______ _______ _______ _____ _____    ______ ____
ROOT
ATOM      1  C   UNL A   1     -24.752  -2.484  29.449  0.00  0.00    -0.001 A 
ATOM      2  C   UNL A   1     -25.903  -3.081  29.851  0.00  0.00    -0.003 A 
ATOM      3  C   UNL A   1     -26.202  -4.522  29.696  0.00  0.00    -0.000 A 
ATOM      4  C   UNL A   1     -25.203  -5.326  29.053  0.00  0.00    -0.000 A 
ATOM      5  C   UNL A   1     -24.051  -4.654  28.585  0.00  0.00    -0.000 A 
ATOM      6  C   UNL A   1     -23.842  -3.312  28.765  0.00  0.00    -0.003 A 
ENDROOT
BRANCH   1   7
ATOM      7  C   UNL A   1     -24.521  -1.304  29.581  0.00  0.00    +0.139 C 
BRANCH   7   8
ATOM      8  N   UNL A   1     -23.401  -0.874  30.284  0.00  0.00    -0.232 NA
BRANCH   8   9
ATOM      9  C   UNL A   1     -22.465  -0.284  30.114  0.00  0.00    +0.081 C 
ATOM     10  C   UNL A   1     -21.570  -0.287  28.940  0.00  0.00    +0.019 C 
ENDBRANCH   8   9
ENDBRANCH   7   8
ENDBRANCH   1   7
TORSDOF 3
ENDMDL
ENDMDL
