REMARK  Name = No_3593-gen_results/8p0m/2024-11-26-14-13-15/
REMARK  5 active torsions:
REMARK  status: ('A' for Active; 'I' for Inactive)
REMARK    1  A    between atoms: C_3  and  O_7
REMARK    2  A    between atoms: O_7  and  C_8
REMARK    3  A    between atoms: C_8  and  N_10
REMARK    4  A    between atoms: N_10  and  C_11
REMARK    5  A    between atoms: C_11  and  C_13
REMARK                            x       y       z     vdW  Elec       q    Type
REMARK                         _______ _______ _______ _____ _____    ______ ____
ROOT
ATOM      1  N   UNL A   1     -28.502   1.844  25.590  0.00  0.00    -0.201 NA
ENDROOT
BRANCH   1   2
ATOM      2  C   UNL A   1     -27.619   0.902  25.911  0.00  0.00    +0.211 C 
ATOM      3  C   UNL A   1     -26.729   0.557  24.773  0.00  0.00    +0.029 C 
ATOM      4  C   UNL A   1     -25.630  -0.355  24.952  0.00  0.00    +0.035 C 
BRANCH   2   5
ATOM      5  O   UNL A   1     -27.500   0.358  26.816  0.00  0.00    -0.439 OA
BRANCH   5   8
ATOM      6  C   UNL A   1     -28.016  -0.814  28.878  0.00  0.00    +0.037 A 
ATOM      7  C   UNL A   1     -28.469  -0.785  29.829  0.00  0.00    +0.003 A 
ATOM      8  C   UNL A   1     -28.196   0.348  28.055  0.00  0.00    +0.147 A 
ATOM      9  C   UNL A   1     -29.019   1.350  28.378  0.00  0.00    +0.037 A 
ATOM     10  C   UNL A   1     -29.411   0.180  30.378  0.00  0.00    +0.000 A 
ATOM     11  C   UNL A   1     -29.606   1.250  29.619  0.00  0.00    +0.003 A 
ENDBRANCH   5   8
ENDBRANCH   2   5
ENDBRANCH   1   2
BRANCH   1  12
ATOM     12  C   UNL A   1     -28.625   2.356  24.320  0.00  0.00    +0.143 C 
BRANCH  12  13
ATOM     13  C   UNL A   1     -29.725   2.146  23.774  0.00  0.00    +0.019 A 
ATOM     14  C   UNL A   1     -30.758   3.109  23.502  0.00  0.00    +0.001 A 
ATOM     15  C   UNL A   1     -31.976   2.756  22.885  0.00  0.00    +0.017 A 
ATOM     16  C   UNL A   1     -32.934   3.674  22.514  0.00  0.00    +0.002 A 
ATOM     17  C   UNL A   1     -33.868   3.447  21.539  0.00  0.00    +0.000 A 
ATOM     18  C   UNL A   1     -33.933   2.139  20.972  0.00  0.00    +0.002 A 
ATOM     19  C   UNL A   1     -33.033   1.159  21.303  0.00  0.00    +0.019 A 
ATOM     20  C   UNL A   1     -31.991   1.474  22.132  0.00  0.00    +0.081 A 
ATOM     21  C   UNL A   1     -30.049   0.773  23.433  0.00  0.00    +0.096 A 
ATOM     22  N   UNL A   1     -31.109   0.512  22.549  0.00  0.00    -0.244 NA
ENDBRANCH  12  13
ENDBRANCH   1  12
TORSDOF 5
