MODEL 3593
MODEL 1
REMARK VINA RESULT:    -7.378      0.000      0.000
REMARK INTER + INTRA:         -10.660
REMARK INTER:                  -9.535
REMARK INTRA:                  -1.125
REMARK UNBOUND:                -1.125
REMARK  Name = No_3593-gen_results/8p0m/2024-11-26-14-13-15/
REMARK  5 active torsions:
REMARK  status: ('A' for Active; 'I' for Inactive)
REMARK    1  A    between atoms: C_3  and  O_7
REMARK    2  A    between atoms: O_7  and  C_8
REMARK    3  A    between atoms: C_8  and  N_10
REMARK    4  A    between atoms: N_10  and  C_11
REMARK    5  A    between atoms: C_11  and  C_13
REMARK                            x       y       z     vdW  Elec       q    Type
REMARK                         _______ _______ _______ _____ _____    ______ ____
ROOT
ATOM      1  N   UNL A   1     -23.488   1.676  28.762  0.00  0.00    -0.201 NA
ENDROOT
BRANCH   1   2
ATOM      2  C   UNL A   1     -23.513   1.998  27.472  0.00  0.00    +0.211 C 
ATOM      3  C   UNL A   1     -22.158   1.976  26.863  0.00  0.00    +0.029 C 
ATOM      4  C   UNL A   1     -21.986   2.180  25.449  0.00  0.00    +0.035 C 
BRANCH   2   5
ATOM      5  O   UNL A   1     -24.327   2.297  26.858  0.00  0.00    -0.439 OA
BRANCH   5   8
ATOM      6  C   UNL A   1     -24.994   0.230  25.774  0.00  0.00    +0.037 A 
ATOM      7  C   UNL A   1     -25.755  -0.317  25.292  0.00  0.00    +0.003 A 
ATOM      8  C   UNL A   1     -25.310   1.588  26.115  0.00  0.00    +0.147 A 
ATOM      9  C   UNL A   1     -26.427   2.201  25.712  0.00  0.00    +0.037 A 
ATOM     10  C   UNL A   1     -27.025   0.143  24.748  0.00  0.00    +0.000 A 
ATOM     11  C   UNL A   1     -27.322   1.403  25.035  0.00  0.00    +0.003 A 
ENDBRANCH   5   8
ENDBRANCH   2   5
ENDBRANCH   1   2
BRANCH   1  12
ATOM     12  C   UNL A   1     -22.958   0.498  29.232  0.00  0.00    +0.143 C 
BRANCH  12  13
ATOM     13  C   UNL A   1     -23.735  -0.476  29.204  0.00  0.00    +0.019 A 
ATOM     14  C   UNL A   1     -23.416  -1.832  28.848  0.00  0.00    +0.001 A 
ATOM     15  C   UNL A   1     -24.383  -2.858  28.840  0.00  0.00    +0.017 A 
ATOM     16  C   UNL A   1     -24.083  -4.184  28.612  0.00  0.00    +0.002 A 
ATOM     17  C   UNL A   1     -24.864  -5.225  29.038  0.00  0.00    +0.000 A 
ATOM     18  C   UNL A   1     -26.121  -4.912  29.635  0.00  0.00    +0.002 A 
ATOM     19  C   UNL A   1     -26.508  -3.619  29.877  0.00  0.00    +0.019 A 
ATOM     20  C   UNL A   1     -25.623  -2.607  29.620  0.00  0.00    +0.081 A 
ATOM     21  C   UNL A   1     -25.135  -0.220  29.486  0.00  0.00    +0.096 A 
ATOM     22  N   UNL A   1     -25.990  -1.296  29.777  0.00  0.00    -0.244 NA
ENDBRANCH  12  13
ENDBRANCH   1  12
TORSDOF 5
ENDMDL
ENDMDL
