REMARK  Name = No_3594-gen_results/8p0m/2024-11-26-14-13-15/
REMARK  6 active torsions:
REMARK  status: ('A' for Active; 'I' for Inactive)
REMARK    1  A    between atoms: C_4  and  C_11
REMARK    2  A    between atoms: C_7  and  C_18
REMARK    3  A    between atoms: C_13  and  O_21
REMARK    4  A    between atoms: O_21  and  C_22
REMARK    5  A    between atoms: C_29  and  C_32
REMARK    6  A    between atoms: C_32  and  C_33
REMARK                            x       y       z     vdW  Elec       q    Type
REMARK                         _______ _______ _______ _____ _____    ______ ____
ROOT
ATOM      1  C   UNL A   1     -24.645   1.658  27.946  0.00  0.00    +0.030 A 
ATOM      2  C   UNL A   1     -24.896   2.756  28.561  0.00  0.00    +0.174 A 
ATOM      3  C   UNL A   1     -25.173   3.934  27.844  0.00  0.00    +0.166 A 
ATOM      4  C   UNL A   1     -24.484   1.557  26.589  0.00  0.00    +0.002 A 
ATOM      5  C   UNL A   1     -24.632   2.694  25.785  0.00  0.00    +0.003 A 
ATOM      6  C   UNL A   1     -24.890   3.923  26.432  0.00  0.00    +0.039 A 
ATOM      7  F   UNL A   1     -25.072   2.906  29.864  0.00  0.00    -0.201 F 
ENDROOT
BRANCH   1  11
ATOM      8  C   UNL A   1     -28.016  -0.814  28.878  0.00  0.00    +0.006 A 
ATOM      9  C   UNL A   1     -27.064  -0.119  28.608  0.00  0.00    +0.000 A 
ATOM     10  C   UNL A   1     -25.765  -0.390  29.036  0.00  0.00    +0.000 A 
ATOM     11  C   UNL A   1     -24.552   0.406  28.765  0.00  0.00    +0.002 A 
ATOM     12  C   UNL A   1     -23.230   0.118  29.258  0.00  0.00    +0.000 A 
ATOM     13  C   UNL A   1     -23.094  -1.131  29.873  0.00  0.00    +0.000 A 
ATOM     14  C   UNL A   1     -27.798  -1.934  29.856  0.00  0.00    +0.068 A 
ATOM     15  C   UNL A   1     -26.542  -2.327  30.258  0.00  0.00    +0.006 A 
ATOM     16  C   UNL A   1     -25.451  -1.552  29.908  0.00  0.00    +0.000 A 
ATOM     17  C   UNL A   1     -24.156  -1.910  30.281  0.00  0.00    +0.000 A 
BRANCH  14  18
ATOM     18  C   UNL A   1     -29.011  -2.752  30.232  0.00  0.00    +0.333 C 
ATOM     19  O   UNL A   1     -28.965  -3.778  30.039  0.00  0.00    -0.254 OA
ATOM     20  F   UNL A   1     -29.985  -2.158  30.648  0.00  0.00    -0.159 F 
ENDBRANCH  14  18
ENDBRANCH   1  11
BRANCH   3  21
ATOM     21  O   UNL A   1     -25.333   5.176  28.385  0.00  0.00    -0.476 OA
BRANCH  21  22
ATOM     22  C   UNL A   1     -25.774   6.220  27.749  0.00  0.00    +0.173 C 
ATOM     23  C   UNL A   1     -25.768   7.427  28.584  0.00  0.00    +0.052 C 
ATOM     24  C   UNL A   1     -25.149   7.358  29.743  0.00  0.00    +0.007 C 
ATOM     25  C   UNL A   1     -24.588   8.502  30.369  0.00  0.00    +0.000 C 
ATOM     26  C   UNL A   1     -24.357   9.594  29.642  0.00  0.00    +0.000 C 
ATOM     27  C   UNL A   1     -24.944   9.716  28.330  0.00  0.00    +0.000 C 
ATOM     28  C   UNL A   1     -24.902   8.446  27.675  0.00  0.00    +0.007 C 
ATOM     29  C   UNL A   1     -27.154   7.905  28.695  0.00  0.00    -0.041 C 
ATOM     30  C   UNL A   1     -28.047   7.521  27.866  0.00  0.00    -0.030 C 
ATOM     31  C   UNL A   1     -27.153   6.033  27.140  0.00  0.00    +0.069 C 
BRANCH  29  32
ATOM     32  C   UNL A   1     -27.889   7.719  30.144  0.00  0.00    +0.047 C 
BRANCH  32  33
ATOM     33  C   UNL A   1     -28.118   6.523  30.585  0.00  0.00    -0.026 C 
ATOM     34  C   UNL A   1     -28.512   6.296  31.884  0.00  0.00    -0.030 C 
ATOM     35  C   UNL A   1     -28.685   4.994  32.385  0.00  0.00    +0.030 C 
ENDBRANCH  32  33
ENDBRANCH  29  32
ENDBRANCH  21  22
ENDBRANCH   3  21
TORSDOF 6
