MODEL 3594
MODEL 1
REMARK VINA RESULT:    -7.161      0.000      0.000
REMARK INTER + INTRA:         -13.088
REMARK INTER:                  -9.673
REMARK INTRA:                  -3.415
REMARK UNBOUND:                -3.415
REMARK  Name = No_3594-gen_results/8p0m/2024-11-26-14-13-15/
REMARK  6 active torsions:
REMARK  status: ('A' for Active; 'I' for Inactive)
REMARK    1  A    between atoms: C_4  and  C_11
REMARK    2  A    between atoms: C_7  and  C_18
REMARK    3  A    between atoms: C_13  and  O_21
REMARK    4  A    between atoms: O_21  and  C_22
REMARK    5  A    between atoms: C_29  and  C_32
REMARK    6  A    between atoms: C_32  and  C_33
REMARK                            x       y       z     vdW  Elec       q    Type
REMARK                         _______ _______ _______ _____ _____    ______ ____
ROOT
ATOM      1  C   UNL A   1     -31.863  -8.863   9.989  0.00  0.00    +0.030 A 
ATOM      2  C   UNL A   1     -30.960  -8.599   9.117  0.00  0.00    +0.174 A 
ATOM      3  C   UNL A   1     -30.256  -7.381   9.157  0.00  0.00    +0.166 A 
ATOM      4  C   UNL A   1     -32.317  -7.966  10.921  0.00  0.00    +0.002 A 
ATOM      5  C   UNL A   1     -31.759  -6.683  10.980  0.00  0.00    +0.003 A 
ATOM      6  C   UNL A   1     -30.775  -6.353  10.021  0.00  0.00    +0.039 A 
ATOM      7  F   UNL A   1     -30.479  -9.429   8.206  0.00  0.00    -0.201 F 
ENDROOT
BRANCH   1  11
ATOM      8  C   UNL A   1     -29.970 -12.176  11.934  0.00  0.00    +0.006 A 
ATOM      9  C   UNL A   1     -30.507 -11.238  11.392  0.00  0.00    +0.000 A 
ATOM     10  C   UNL A   1     -31.716 -11.333  10.703  0.00  0.00    +0.000 A 
ATOM     11  C   UNL A   1     -32.433 -10.249  10.005  0.00  0.00    +0.002 A 
ATOM     12  C   UNL A   1     -33.662 -10.392   9.268  0.00  0.00    +0.000 A 
ATOM     13  C   UNL A   1     -34.293 -11.631   9.418  0.00  0.00    +0.000 A 
ATOM     14  C   UNL A   1     -30.567 -13.537  11.711  0.00  0.00    +0.068 A 
ATOM     15  C   UNL A   1     -31.799 -13.714  11.124  0.00  0.00    +0.006 A 
ATOM     16  C   UNL A   1     -32.430 -12.627  10.545  0.00  0.00    +0.000 A 
ATOM     17  C   UNL A   1     -33.683 -12.750   9.945  0.00  0.00    +0.000 A 
BRANCH  14  18
ATOM     18  C   UNL A   1     -29.847 -14.705  12.343  0.00  0.00    +0.333 C 
ATOM     19  O   UNL A   1     -29.461 -15.426  11.693  0.00  0.00    -0.254 OA
ATOM     20  F   UNL A   1     -29.841 -14.775  13.555  0.00  0.00    -0.159 F 
ENDBRANCH  14  18
ENDBRANCH   1  11
BRANCH   3  21
ATOM     21  O   UNL A   1     -29.368  -6.945   8.218  0.00  0.00    -0.476 OA
BRANCH  21  22
ATOM     22  C   UNL A   1     -28.099  -7.224   8.199  0.00  0.00    +0.173 C 
ATOM     23  C   UNL A   1     -27.687  -7.866   6.946  0.00  0.00    +0.052 C 
ATOM     24  C   UNL A   1     -28.558  -7.885   5.960  0.00  0.00    +0.007 C 
ATOM     25  C   UNL A   1     -28.159  -7.940   4.599  0.00  0.00    +0.000 C 
ATOM     26  C   UNL A   1     -26.909  -7.613   4.274  0.00  0.00    +0.000 C 
ATOM     27  C   UNL A   1     -25.908  -7.504   5.306  0.00  0.00    +0.000 C 
ATOM     28  C   UNL A   1     -26.487  -6.895   6.463  0.00  0.00    +0.007 C 
ATOM     29  C   UNL A   1     -27.156  -9.197   7.274  0.00  0.00    -0.041 C 
ATOM     30  C   UNL A   1     -26.790  -9.480   8.465  0.00  0.00    -0.030 C 
ATOM     31  C   UNL A   1     -27.636  -8.067   9.375  0.00  0.00    +0.069 C 
BRANCH  29  32
ATOM     32  C   UNL A   1     -28.069 -10.486   6.852  0.00  0.00    +0.047 C 
BRANCH  32  33
ATOM     33  C   UNL A   1     -27.914 -11.603   7.487  0.00  0.00    -0.026 C 
ATOM     34  C   UNL A   1     -28.991 -12.353   7.903  0.00  0.00    -0.030 C 
ATOM     35  C   UNL A   1     -28.825 -13.525   8.660  0.00  0.00    +0.030 C 
ENDBRANCH  32  33
ENDBRANCH  29  32
ENDBRANCH  21  22
ENDBRANCH   3  21
TORSDOF 6
ENDMDL
ENDMDL
