REMARK  Name = No_3597-gen_results/8p0m/2024-11-26-14-13-15/
REMARK  1 active torsions:
REMARK  status: ('A' for Active; 'I' for Inactive)
REMARK    1  A    between atoms: C_3  and  C_7
REMARK                            x       y       z     vdW  Elec       q    Type
REMARK                         _______ _______ _______ _____ _____    ______ ____
ROOT
ATOM      1  C   UNL A   1     -28.016  -0.814  28.878  0.00  0.00    +0.004 A 
ATOM      2  C   UNL A   1     -28.469  -0.785  29.829  0.00  0.00    -0.000 A 
ATOM      3  C   UNL A   1     -28.182   0.428  28.113  0.00  0.00    +0.071 A 
ATOM      4  C   UNL A   1     -28.984   1.415  28.515  0.00  0.00    +0.004 A 
ATOM      5  C   UNL A   1     -29.380   0.138  30.461  0.00  0.00    -0.000 A 
ATOM      6  C   UNL A   1     -29.541   1.274  29.724  0.00  0.00    -0.000 A 
ENDROOT
BRANCH   3   7
ATOM      7  C   UNL A   1     -27.459   0.493  26.770  0.00  0.00    +0.419 C 
ATOM      8  F   UNL A   1     -28.152   0.203  25.848  0.00  0.00    -0.166 F 
ATOM      9  F   UNL A   1     -26.929   1.788  26.564  0.00  0.00    -0.166 F 
ATOM     10  F   UNL A   1     -26.244  -0.230  26.798  0.00  0.00    -0.166 F 
ENDBRANCH   3   7
TORSDOF 1
