MODEL 3597
MODEL 1
REMARK VINA RESULT:    -5.211      0.000      0.000
REMARK INTER + INTRA:          -5.712
REMARK INTER:                  -5.516
REMARK INTRA:                  -0.197
REMARK UNBOUND:                -0.197
REMARK  Name = No_3597-gen_results/8p0m/2024-11-26-14-13-15/
REMARK  1 active torsions:
REMARK  status: ('A' for Active; 'I' for Inactive)
REMARK    1  A    between atoms: C_3  and  C_7
REMARK                            x       y       z     vdW  Elec       q    Type
REMARK                         _______ _______ _______ _____ _____    ______ ____
ROOT
ATOM      1  C   UNL A   1     -25.686  -2.614  29.869  0.00  0.00    +0.004 A 
ATOM      2  C   UNL A   1     -26.270  -3.491  29.895  0.00  0.00    -0.000 A 
ATOM      3  C   UNL A   1     -24.400  -2.788  29.182  0.00  0.00    +0.071 A 
ATOM      4  C   UNL A   1     -23.948  -3.983  28.799  0.00  0.00    +0.004 A 
ATOM      5  C   UNL A   1     -25.995  -4.870  29.572  0.00  0.00    -0.000 A 
ATOM      6  C   UNL A   1     -24.786  -5.014  28.957  0.00  0.00    -0.000 A 
ENDROOT
BRANCH   3   7
ATOM      7  C   UNL A   1     -23.551  -1.530  29.015  0.00  0.00    +0.419 C 
ATOM      8  F   UNL A   1     -22.390  -1.758  28.891  0.00  0.00    -0.166 F 
ATOM      9  F   UNL A   1     -24.000  -0.783  27.901  0.00  0.00    -0.166 F 
ATOM     10  F   UNL A   1     -23.823  -0.581  30.028  0.00  0.00    -0.166 F 
ENDBRANCH   3   7
TORSDOF 1
ENDMDL
ENDMDL
