REMARK  Name = No_3598-gen_results/8p0m/2024-11-26-14-13-15/
REMARK  6 active torsions:
REMARK  status: ('A' for Active; 'I' for Inactive)
REMARK    1  A    between atoms: C_2  and  C_12
REMARK    2  A    between atoms: C_12  and  O_14
REMARK    3  A    between atoms: O_14  and  C_15
REMARK    4  A    between atoms: C_15  and  C_16
REMARK    5  A    between atoms: C_15  and  C_20
REMARK    6  A    between atoms: C_16  and  O_17
REMARK                            x       y       z     vdW  Elec       q    Type
REMARK                         _______ _______ _______ _____ _____    ______ ____
ROOT
ATOM      1  C   UNL A   1     -28.016  -0.814  28.878  0.00  0.00    +0.006 A 
ATOM      2  C   UNL A   1     -28.469  -0.785  29.829  0.00  0.00    +0.076 A 
ATOM      3  C   UNL A   1     -26.546  -0.876  28.850  0.00  0.00    +0.000 A 
ATOM      4  C   UNL A   1     -25.804  -1.032  30.057  0.00  0.00    +0.001 A 
ATOM      5  C   UNL A   1     -26.537  -1.039  31.217  0.00  0.00    +0.000 A 
ATOM      6  C   UNL A   1     -27.893  -0.960  31.174  0.00  0.00    +0.006 A 
ATOM      7  C   UNL A   1     -25.712  -0.810  27.626  0.00  0.00    +0.001 A 
ATOM      8  C   UNL A   1     -24.407  -0.208  27.729  0.00  0.00    +0.007 A 
ATOM      9  C   UNL A   1     -23.692  -0.421  28.947  0.00  0.00    +0.035 A 
ATOM     10  C   UNL A   1     -24.364  -0.738  30.081  0.00  0.00    +0.007 A 
ATOM     11 BR   UNL A   1     -21.858  -0.064  28.872  0.00  0.00    -0.049 Br
ENDROOT
BRANCH   2  12
ATOM     12  C   UNL A   1     -30.075  -0.841  29.907  0.00  0.00    +0.341 C 
ATOM     13  O   UNL A   1     -30.678  -0.143  29.196  0.00  0.00    -0.245 OA
BRANCH  12  14
ATOM     14  O   UNL A   1     -30.688  -1.595  30.782  0.00  0.00    -0.441 OA
BRANCH  14  15
ATOM     15  C   UNL A   1     -31.856  -2.200  30.503  0.00  0.00    +0.260 C 
BRANCH  15  16
ATOM     16  C   UNL A   1     -32.562  -1.988  31.908  0.00  0.00    +0.197 C 
ATOM     17  O   UNL A   1     -32.115  -2.458  32.849  0.00  0.00    -0.219 OA
ATOM     18  C   UNL A   1     -34.049  -2.301  31.620  0.00  0.00    +0.040 C 
ENDBRANCH  15  16
BRANCH  15  19
ATOM     19  C   UNL A   1     -31.776  -3.439  30.186  0.00  0.00    +0.322 C 
ATOM     20  F   UNL A   1     -32.925  -4.096  30.273  0.00  0.00    -0.200 F 
BRANCH  19  21
ATOM     21  O   UNL A   1     -30.899  -4.193  30.560  0.00  0.00    -0.321 OA
ATOM     22  C   UNL A   1     -30.006  -4.952  29.747  0.00  0.00    +0.177 C 
ENDBRANCH  19  21
ENDBRANCH  15  19
ENDBRANCH  14  15
ENDBRANCH  12  14
ENDBRANCH   2  12
TORSDOF 6
