MODEL 3598
MODEL 1
REMARK VINA RESULT:    -6.330      0.000      0.000
REMARK INTER + INTRA:          -9.274
REMARK INTER:                  -8.551
REMARK INTRA:                  -0.723
REMARK UNBOUND:                -0.723
REMARK  Name = No_3598-gen_results/8p0m/2024-11-26-14-13-15/
REMARK  6 active torsions:
REMARK  status: ('A' for Active; 'I' for Inactive)
REMARK    1  A    between atoms: C_2  and  C_12
REMARK    2  A    between atoms: C_12  and  O_14
REMARK    3  A    between atoms: O_14  and  C_15
REMARK    4  A    between atoms: C_15  and  C_16
REMARK    5  A    between atoms: C_15  and  C_20
REMARK    6  A    between atoms: C_16  and  O_17
REMARK                            x       y       z     vdW  Elec       q    Type
REMARK                         _______ _______ _______ _____ _____    ______ ____
ROOT
ATOM      1  C   UNL A   1     -24.026   0.857  26.435  0.00  0.00    +0.006 A 
ATOM      2  C   UNL A   1     -23.758   1.641  27.085  0.00  0.00    +0.076 A 
ATOM      3  C   UNL A   1     -25.216   1.072  25.597  0.00  0.00    +0.000 A 
ATOM      4  C   UNL A   1     -25.872   2.338  25.581  0.00  0.00    +0.001 A 
ATOM      5  C   UNL A   1     -25.372   3.285  26.439  0.00  0.00    +0.000 A 
ATOM      6  C   UNL A   1     -24.279   3.015  27.200  0.00  0.00    +0.006 A 
ATOM      7  C   UNL A   1     -25.826   0.059  24.703  0.00  0.00    +0.001 A 
ATOM      8  C   UNL A   1     -27.251   0.107  24.500  0.00  0.00    +0.007 A 
ATOM      9  C   UNL A   1     -27.854   1.401  24.460  0.00  0.00    +0.035 A 
ATOM     10  C   UNL A   1     -27.235   2.456  25.045  0.00  0.00    +0.007 A 
ATOM     11 BR   UNL A   1     -29.571   1.462  23.721  0.00  0.00    -0.049 Br
ENDROOT
BRANCH   2  12
ATOM     12  C   UNL A   1     -22.395   1.498  27.928  0.00  0.00    +0.341 C 
ATOM     13  O   UNL A   1     -21.395   1.764  27.393  0.00  0.00    -0.245 OA
BRANCH  12  14
ATOM     14  O   UNL A   1     -22.397   1.036  29.151  0.00  0.00    -0.441 OA
BRANCH  14  15
ATOM     15  C   UNL A   1     -23.111  -0.049  29.500  0.00  0.00    +0.260 C 
BRANCH  15  16
ATOM     16  C   UNL A   1     -23.395   0.342  31.011  0.00  0.00    +0.197 C 
ATOM     17  O   UNL A   1     -23.592  -0.475  31.785  0.00  0.00    -0.219 OA
ATOM     18  C   UNL A   1     -24.455   1.463  30.905  0.00  0.00    +0.040 C 
ENDBRANCH  15  16
BRANCH  15  19
ATOM     19  C   UNL A   1     -22.500  -1.171  29.398  0.00  0.00    +0.322 C 
ATOM     20  F   UNL A   1     -21.223  -1.063  29.056  0.00  0.00    -0.200 F 
BRANCH  19  21
ATOM     21  O   UNL A   1     -22.944  -2.152  28.835  0.00  0.00    -0.321 OA
ATOM     22  C   UNL A   1     -24.056  -2.950  29.236  0.00  0.00    +0.177 C 
ENDBRANCH  19  21
ENDBRANCH  15  19
ENDBRANCH  14  15
ENDBRANCH  12  14
ENDBRANCH   2  12
TORSDOF 6
ENDMDL
ENDMDL
