REMARK  Name = No_3599-gen_results/8p0m/2024-11-26-14-13-15/
REMARK  9 active torsions:
REMARK  status: ('A' for Active; 'I' for Inactive)
REMARK    1  A    between atoms: C_2  and  C_14
REMARK    2  A    between atoms: C_9  and  C_11
REMARK    3  A    between atoms: C_14  and  O_15
REMARK    4  A    between atoms: O_15  and  C_18
REMARK    5  A    between atoms: C_18  and  C_19
REMARK    6  A    between atoms: C_19  and  O_21
REMARK    7  A    between atoms: O_21  and  C_23
REMARK    8  A    between atoms: C_24  and  C_25
REMARK    9  A    between atoms: C_28  and  C_31
REMARK                            x       y       z     vdW  Elec       q    Type
REMARK                         _______ _______ _______ _____ _____    ______ ____
ROOT
ATOM      1  C   UNL A   1     -31.881  -0.558  28.483  0.00  0.00    +0.347 C 
ATOM      2 CL   UNL A   1     -32.748  -1.308  29.571  0.00  0.00    -0.057 Cl
ENDROOT
BRANCH   1   3
ATOM      3  C   UNL A   1     -32.444   0.652  27.953  0.00  0.00    +0.379 C 
ATOM      4  O   UNL A   1     -33.500   0.624  27.538  0.00  0.00    -0.244 OA
BRANCH   3   5
ATOM      5  O   UNL A   1     -31.928   1.801  28.358  0.00  0.00    -0.415 OA
BRANCH   5   6
ATOM      6  C   UNL A   1     -31.987   2.887  27.678  0.00  0.00    +0.212 C 
ATOM      7  C   UNL A   1     -30.846   3.425  27.416  0.00  0.00    +0.177 C 
ATOM      8  F   UNL A   1     -30.888   4.811  27.158  0.00  0.00    -0.201 F 
BRANCH   7   9
ATOM      9  C   UNL A   1     -29.666   3.252  28.149  0.00  0.00    +0.027 A 
ATOM     10  C   UNL A   1     -29.710   3.182  29.515  0.00  0.00    +0.002 A 
ATOM     11  C   UNL A   1     -28.521   2.892  30.296  0.00  0.00    +0.005 A 
ATOM     12  C   UNL A   1     -27.336   2.843  29.622  0.00  0.00    +0.056 A 
ATOM     13  C   UNL A   1     -27.200   3.037  28.257  0.00  0.00    +0.000 A 
ATOM     14  C   UNL A   1     -28.370   3.206  27.560  0.00  0.00    -0.019 A 
ATOM     15  C   UNL A   1     -28.227   3.310  26.092  0.00  0.00    +0.031 C 
BRANCH  12  16
ATOM     16  C   UNL A   1     -26.082   2.651  30.472  0.00  0.00    +0.284 C 
ATOM     17  N   UNL A   1     -24.897   2.834  29.862  0.00  0.00    -0.084 NA
ATOM     18  O   UNL A   1     -26.209   2.418  31.696  0.00  0.00    -0.267 OA
ENDBRANCH  12  16
ENDBRANCH   7   9
ENDBRANCH   5   6
ENDBRANCH   3   5
ENDBRANCH   1   3
BRANCH   1  19
ATOM     19  O   UNL A   1     -30.540  -0.301  29.015  0.00  0.00    -0.422 OA
BRANCH  19  20
ATOM     20  C   UNL A   1     -30.067  -0.883  29.877  0.00  0.00    +0.343 C 
ATOM     21  O   UNL A   1     -30.727  -1.467  30.809  0.00  0.00    -0.245 OA
BRANCH  20  23
ATOM     22  C   UNL A   1     -28.016  -0.814  28.878  0.00  0.00    +0.006 A 
ATOM     23  C   UNL A   1     -28.469  -0.785  29.829  0.00  0.00    +0.076 A 
ATOM     24  C   UNL A   1     -26.504  -0.778  28.877  0.00  0.00    +0.000 A 
ATOM     25  C   UNL A   1     -25.654  -0.660  27.719  0.00  0.00    +0.000 A 
ATOM     26  C   UNL A   1     -27.918  -0.937  31.182  0.00  0.00    +0.006 A 
ATOM     27  C   UNL A   1     -26.542  -0.940  31.261  0.00  0.00    +0.000 A 
ATOM     28  C   UNL A   1     -25.783  -0.893  30.120  0.00  0.00    +0.000 A 
ATOM     29  C   UNL A   1     -24.310  -0.301  27.853  0.00  0.00    +0.005 A 
ATOM     30  C   UNL A   1     -23.667  -0.460  29.099  0.00  0.00    +0.055 A 
ATOM     31  C   UNL A   1     -24.370  -0.664  30.203  0.00  0.00    +0.005 A 
BRANCH  30  32
ATOM     32  C   UNL A   1     -22.195  -0.229  29.131  0.00  0.00    +0.265 C 
ATOM     33  N   UNL A   1     -21.288   0.567  28.772  0.00  0.00    -0.200 NA
ATOM     34  O   UNL A   1     -21.635  -1.371  29.721  0.00  0.00    -0.268 OA
ATOM     35  C   UNL A   1     -21.643   1.736  27.974  0.00  0.00    +0.139 C 
ENDBRANCH  30  32
ENDBRANCH  20  23
ENDBRANCH  19  20
ENDBRANCH   1  19
TORSDOF 9
