MODEL 3599
MODEL 1
REMARK VINA RESULT:    -7.694      0.000      0.000
REMARK INTER + INTRA:         -13.700
REMARK INTER:                 -11.742
REMARK INTRA:                  -1.958
REMARK UNBOUND:                -1.958
REMARK  Name = No_3599-gen_results/8p0m/2024-11-26-14-13-15/
REMARK  9 active torsions:
REMARK  status: ('A' for Active; 'I' for Inactive)
REMARK    1  A    between atoms: C_2  and  C_14
REMARK    2  A    between atoms: C_9  and  C_11
REMARK    3  A    between atoms: C_14  and  O_15
REMARK    4  A    between atoms: O_15  and  C_18
REMARK    5  A    between atoms: C_18  and  C_19
REMARK    6  A    between atoms: C_19  and  O_21
REMARK    7  A    between atoms: O_21  and  C_23
REMARK    8  A    between atoms: C_24  and  C_25
REMARK    9  A    between atoms: C_28  and  C_31
REMARK                            x       y       z     vdW  Elec       q    Type
REMARK                         _______ _______ _______ _____ _____    ______ ____
ROOT
ATOM      1  C   UNL A   1     -24.869   1.158  27.451  0.00  0.00    +0.347 C 
ATOM      2 CL   UNL A   1     -26.121   1.014  28.405  0.00  0.00    -0.057 Cl
ENDROOT
BRANCH   1   3
ATOM      3  C   UNL A   1     -23.582   1.090  28.085  0.00  0.00    +0.379 C 
ATOM      4  O   UNL A   1     -23.162   2.029  28.565  0.00  0.00    -0.244 OA
BRANCH   3   5
ATOM      5  O   UNL A   1     -23.150  -0.097  28.478  0.00  0.00    -0.415 OA
BRANCH   5   6
ATOM      6  C   UNL A   1     -22.468  -0.289  29.547  0.00  0.00    +0.212 C 
ATOM      7  C   UNL A   1     -22.939  -1.191  30.337  0.00  0.00    +0.177 C 
ATOM      8  F   UNL A   1     -22.551  -1.060  31.687  0.00  0.00    -0.201 F 
BRANCH   7   9
ATOM      9  C   UNL A   1     -24.274  -1.608  30.408  0.00  0.00    +0.027 A 
ATOM     10  C   UNL A   1     -25.158  -0.949  31.218  0.00  0.00    +0.002 A 
ATOM     11  C   UNL A   1     -26.570  -1.287  31.229  0.00  0.00    +0.005 A 
ATOM     12  C   UNL A   1     -26.948  -2.384  30.511  0.00  0.00    +0.056 A 
ATOM     13  C   UNL A   1     -26.084  -3.177  29.774  0.00  0.00    +0.000 A 
ATOM     14  C   UNL A   1     -24.781  -2.748  29.721  0.00  0.00    -0.019 A 
ATOM     15  C   UNL A   1     -23.886  -3.540  28.851  0.00  0.00    +0.031 C 
BRANCH  12  16
ATOM     16  C   UNL A   1     -28.415  -2.792  30.624  0.00  0.00    +0.284 C 
ATOM     17  N   UNL A   1     -28.686  -3.908  31.325  0.00  0.00    -0.084 NA
ATOM     18  O   UNL A   1     -29.293  -2.041  30.141  0.00  0.00    -0.267 OA
ENDBRANCH  12  16
ENDBRANCH   7   9
ENDBRANCH   5   6
ENDBRANCH   3   5
ENDBRANCH   1   3
BRANCH   1  19
ATOM     19  O   UNL A   1     -24.954   0.167  26.375  0.00  0.00    -0.422 OA
BRANCH  19  20
ATOM     20  C   UNL A   1     -25.039   0.427  25.266  0.00  0.00    +0.343 C 
ATOM     21  O   UNL A   1     -24.047   0.737  24.514  0.00  0.00    -0.245 OA
BRANCH  20  23
ATOM     22  C   UNL A   1     -26.982  -0.448  24.448  0.00  0.00    +0.006 A 
ATOM     23  C   UNL A   1     -26.570   0.457  24.796  0.00  0.00    +0.076 A 
ATOM     24  C   UNL A   1     -28.411  -0.366  23.959  0.00  0.00    +0.000 A 
ATOM     25  C   UNL A   1     -29.246  -1.475  23.573  0.00  0.00    +0.000 A 
ATOM     26  C   UNL A   1     -27.036   1.847  24.702  0.00  0.00    +0.006 A 
ATOM     27  C   UNL A   1     -28.324   2.006  24.238  0.00  0.00    +0.000 A 
ATOM     28  C   UNL A   1     -29.049   0.920  23.821  0.00  0.00    +0.000 A 
ATOM     29  C   UNL A   1     -30.631  -1.323  23.464  0.00  0.00    +0.005 A 
ATOM     30  C   UNL A   1     -31.180  -0.032  23.313  0.00  0.00    +0.055 A 
ATOM     31  C   UNL A   1     -30.453   1.047  23.560  0.00  0.00    +0.005 A 
BRANCH  30  32
ATOM     32  C   UNL A   1     -32.640   0.048  23.024  0.00  0.00    +0.265 C 
ATOM     33  N   UNL A   1     -33.482   0.408  22.160  0.00  0.00    -0.200 NA
ATOM     34  O   UNL A   1     -33.292  -0.372  24.192  0.00  0.00    -0.268 OA
ATOM     35  C   UNL A   1     -33.014   1.050  20.936  0.00  0.00    +0.139 C 
ENDBRANCH  30  32
ENDBRANCH  20  23
ENDBRANCH  19  20
ENDBRANCH   1  19
TORSDOF 9
ENDMDL
ENDMDL
