MODEL 359
MODEL 1
REMARK VINA RESULT:    -8.218      0.000      0.000
REMARK INTER + INTRA:          -9.024
REMARK INTER:                  -8.699
REMARK INTRA:                  -0.325
REMARK UNBOUND:                -0.325
REMARK  Name = No_359-gen_results/8p0m/2024-11-26-14-13-15/
REMARK  1 active torsions:
REMARK  status: ('A' for Active; 'I' for Inactive)
REMARK    1  A    between atoms: N_16  and  C_17
REMARK                            x       y       z     vdW  Elec       q    Type
REMARK                         _______ _______ _______ _____ _____    ______ ____
ROOT
ATOM      1  C   UNL A   1     -24.733  -2.195  29.115  0.00  0.00    +0.059 A 
ATOM      2  C   UNL A   1     -24.023  -3.014  28.579  0.00  0.00    +0.045 A 
ATOM      3  C   UNL A   1     -24.292  -4.382  28.571  0.00  0.00    +0.141 A 
ATOM      4  C   UNL A   1     -25.452  -4.877  29.287  0.00  0.00    +0.030 A 
ATOM      5  C   UNL A   1     -26.229  -3.865  29.896  0.00  0.00    +0.008 A 
ATOM      6  C   UNL A   1     -25.891  -2.601  29.854  0.00  0.00    +0.067 A 
ATOM      7  F   UNL A   1     -23.526  -5.312  28.010  0.00  0.00    -0.204 F 
ATOM      8  C   UNL A   1     -26.775  -1.630  30.587  0.00  0.00    +0.251 C 
ATOM      9  N   UNL A   1     -26.226  -0.555  31.090  0.00  0.00    -0.261 N 
ATOM     10  O   UNL A   1     -27.990  -1.851  30.741  0.00  0.00    -0.270 OA
ATOM     11  C   UNL A   1     -27.030   0.444  31.786  0.00  0.00    +0.095 C 
ATOM     12  C   UNL A   1     -26.410   1.294  32.427  0.00  0.00    +0.022 C 
ATOM     13  C   UNL A   1     -24.964   1.414  32.311  0.00  0.00    +0.005 C 
ATOM     14  C   UNL A   1     -24.221   0.466  31.640  0.00  0.00    +0.041 C 
ATOM     15  C   UNL A   1     -24.813  -0.543  31.120  0.00  0.00    +0.156 C 
ATOM     16  N   UNL A   1     -24.215  -0.992  29.734  0.00  0.00    -0.272 N 
ENDROOT
BRANCH  16  17
ATOM     17  C   UNL A   1     -23.245  -0.302  29.073  0.00  0.00    +0.053 A 
ATOM     18  C   UNL A   1     -23.656   0.632  28.244  0.00  0.00    +0.015 A 
ATOM     19  C   UNL A   1     -21.944  -0.693  29.309  0.00  0.00    +0.015 A 
ATOM     20  C   UNL A   1     -22.717   1.417  27.536  0.00  0.00    +0.001 A 
ATOM     21  C   UNL A   1     -20.952  -0.014  28.602  0.00  0.00    +0.001 A 
ATOM     22  C   UNL A   1     -21.345   1.065  27.716  0.00  0.00    +0.000 A 
ENDBRANCH  16  17
TORSDOF 1
ENDMDL
ENDMDL
