REMARK  Name = No_360-gen_results/8p0m/2024-11-26-14-13-15/
REMARK  1 active torsions:
REMARK  status: ('A' for Active; 'I' for Inactive)
REMARK    1  A    between atoms: C_2  and  C_5
REMARK                            x       y       z     vdW  Elec       q    Type
REMARK                         _______ _______ _______ _____ _____    ______ ____
ROOT
ATOM      1  C   UNL A   1     -28.016  -0.814  28.878  0.00  0.00    +0.007 A 
ATOM      2  C   UNL A   1     -28.469  -0.785  29.829  0.00  0.00    +0.080 A 
ATOM      3  C   UNL A   1     -27.087   0.290  28.638  0.00  0.00    +0.000 A 
ATOM      4  C   UNL A   1     -26.252   0.411  27.422  0.00  0.00    +0.000 A 
ATOM      5  C   UNL A   1     -28.272   0.210  30.987  0.00  0.00    +0.007 A 
ATOM      6  C   UNL A   1     -27.438   1.235  30.777  0.00  0.00    +0.000 A 
ATOM      7  C   UNL A   1     -26.752   1.295  29.599  0.00  0.00    +0.000 A 
ATOM      8  C   UNL A   1     -25.202   1.045  27.209  0.00  0.00    +0.000 A 
ATOM      9  C   UNL A   1     -24.916   2.064  28.255  0.00  0.00    +0.000 A 
ATOM     10  C   UNL A   1     -25.583   2.138  29.421  0.00  0.00    +0.000 A 
ENDROOT
BRANCH   2  11
ATOM     11  C   UNL A   1     -29.431  -1.931  30.271  0.00  0.00    +0.388 C 
ATOM     12  O   UNL A   1     -28.977  -3.037  30.598  0.00  0.00    -0.241 OA
ATOM     13  O   UNL A   1     -30.657  -1.746  30.316  0.00  0.00    -0.241 OA
ENDBRANCH   2  11
TORSDOF 1
