MODEL 3600
MODEL 1
REMARK VINA RESULT:    -7.086      0.000      0.000
REMARK INTER + INTRA:          -8.894
REMARK INTER:                  -8.743
REMARK INTRA:                  -0.151
REMARK UNBOUND:                -0.151
REMARK  Name = No_3600-gen_results/8p0m/2024-11-26-14-13-15/
REMARK  4 active torsions:
REMARK  status: ('A' for Active; 'I' for Inactive)
REMARK    1  A    between atoms: C_4  and  C_15
REMARK    2  A    between atoms: C_7  and  C_17
REMARK    3  A    between atoms: C_8  and  C_24
REMARK    4  A    between atoms: N_18  and  C_19
REMARK                            x       y       z     vdW  Elec       q    Type
REMARK                         _______ _______ _______ _____ _____    ______ ____
ROOT
ATOM      1  C   UNL A   1     -29.077 -10.393  32.536  0.00  0.00    +0.007 A 
ATOM      2  C   UNL A   1     -29.588 -10.086  31.484  0.00  0.00    +0.004 A 
ATOM      3  C   UNL A   1     -29.634 -10.980  30.420  0.00  0.00    -0.004 A 
ATOM      4  C   UNL A   1     -30.223 -10.719  29.075  0.00  0.00    -0.022 A 
ATOM      5  C   UNL A   1     -30.937  -9.493  28.934  0.00  0.00    -0.004 A 
ATOM      6  C   UNL A   1     -30.929  -8.626  30.046  0.00  0.00    +0.004 A 
ATOM      7  C   UNL A   1     -30.333  -8.896  31.216  0.00  0.00    +0.054 A 
ATOM      8  C   UNL A   1     -28.004 -11.440  32.587  0.00  0.00    +0.080 A 
ATOM      9  C   UNL A   1     -28.084 -12.453  31.564  0.00  0.00    +0.007 A 
ATOM     10  C   UNL A   1     -28.812 -12.193  30.406  0.00  0.00    -0.000 A 
ATOM     11  C   UNL A   1     -31.620  -9.218  27.665  0.00  0.00    -0.000 A 
ATOM     12  C   UNL A   1     -31.884  -7.990  27.427  0.00  0.00    -0.000 A 
ATOM     13  C   UNL A   1     -31.920  -6.942  28.542  0.00  0.00    +0.000 A 
ATOM     14  C   UNL A   1     -31.446  -7.305  29.789  0.00  0.00    +0.000 A 
ENDROOT
BRANCH   7  15
ATOM     15  C   UNL A   1     -30.400  -7.923  32.333  0.00  0.00    +0.260 C 
ATOM     16  N   UNL A   1     -31.340  -7.899  33.163  0.00  0.00    -0.213 N 
ATOM     17  C   UNL A   1     -31.004  -6.786  34.204  0.00  0.00    +0.131 C 
ATOM     18  O   UNL A   1     -29.358  -7.122  32.236  0.00  0.00    -0.269 OA
BRANCH  16  19
ATOM     19  C   UNL A   1     -32.300  -8.383  33.293  0.00  0.00    +0.020 C 
ATOM     20  C   UNL A   1     -33.053  -9.217  33.569  0.00  0.00    +0.008 C 
ENDBRANCH  16  19
ENDBRANCH   7  15
BRANCH   4  21
ATOM     21  C   UNL A   1     -30.204 -11.672  27.988  0.00  0.00    +0.022 C 
ATOM     22  C   UNL A   1     -28.979 -12.004  27.419  0.00  0.00    +0.005 C 
ATOM     23  C   UNL A   1     -30.980 -12.946  28.264  0.00  0.00    +0.005 C 
ENDBRANCH   4  21
BRANCH   8  24
ATOM     24  C   UNL A   1     -27.347 -11.764  33.853  0.00  0.00    +0.388 C 
ATOM     25  O   UNL A   1     -26.830 -12.757  34.118  0.00  0.00    -0.241 OA
ATOM     26  O   UNL A   1     -26.979 -10.691  34.548  0.00  0.00    -0.241 OA
ENDBRANCH   8  24
TORSDOF 4
ENDMDL
ENDMDL
