REMARK  Name = No_3600-gen_results/8p0m/2024-11-26-14-13-15/
REMARK  4 active torsions:
REMARK  status: ('A' for Active; 'I' for Inactive)
REMARK    1  A    between atoms: C_4  and  C_15
REMARK    2  A    between atoms: C_7  and  C_17
REMARK    3  A    between atoms: C_8  and  C_24
REMARK    4  A    between atoms: N_18  and  C_19
REMARK                            x       y       z     vdW  Elec       q    Type
REMARK                         _______ _______ _______ _____ _____    ______ ____
ROOT
ATOM      1  C   UNL A   1     -28.016  -0.814  28.878  0.00  0.00    +0.007 A 
ATOM      2  C   UNL A   1     -27.064  -0.119  28.608  0.00  0.00    +0.004 A 
ATOM      3  C   UNL A   1     -25.792  -0.430  29.076  0.00  0.00    -0.004 A 
ATOM      4  C   UNL A   1     -24.546   0.349  28.823  0.00  0.00    -0.022 A 
ATOM      5  C   UNL A   1     -24.659   1.420  27.888  0.00  0.00    -0.004 A 
ATOM      6  C   UNL A   1     -25.947   1.681  27.379  0.00  0.00    +0.004 A 
ATOM      7  C   UNL A   1     -27.044   0.974  27.687  0.00  0.00    +0.054 A 
ATOM      8  C   UNL A   1     -28.024  -1.647  30.126  0.00  0.00    +0.080 A 
ATOM      9  C   UNL A   1     -26.728  -2.085  30.581  0.00  0.00    +0.007 A 
ATOM     10  C   UNL A   1     -25.591  -1.406  30.149  0.00  0.00    -0.000 A 
ATOM     11  C   UNL A   1     -23.449   2.167  27.524  0.00  0.00    -0.000 A 
ATOM     12  C   UNL A   1     -23.639   3.332  27.032  0.00  0.00    -0.000 A 
ATOM     13  C   UNL A   1     -24.986   3.746  26.436  0.00  0.00    +0.000 A 
ATOM     14  C   UNL A   1     -26.068   2.910  26.634  0.00  0.00    +0.000 A 
ENDROOT
BRANCH   7  15
ATOM     15  C   UNL A   1     -28.352   1.318  27.080  0.00  0.00    +0.260 C 
ATOM     16  N   UNL A   1     -29.140   2.155  27.582  0.00  0.00    -0.213 N 
ATOM     17  C   UNL A   1     -30.358   2.277  26.614  0.00  0.00    +0.131 C 
ATOM     18  O   UNL A   1     -28.510   0.570  26.006  0.00  0.00    -0.269 OA
BRANCH  16  19
ATOM     19  C   UNL A   1     -29.213   2.731  28.496  0.00  0.00    +0.020 C 
ATOM     20  C   UNL A   1     -29.540   3.588  29.201  0.00  0.00    +0.008 C 
ENDBRANCH  16  19
ENDBRANCH   7  15
BRANCH   4  21
ATOM     21  C   UNL A   1     -23.254   0.004  29.372  0.00  0.00    +0.022 C 
ATOM     22  C   UNL A   1     -22.366  -0.712  28.576  0.00  0.00    +0.005 C 
ATOM     23  C   UNL A   1     -22.517   1.168  30.008  0.00  0.00    +0.005 C 
ENDBRANCH   4  21
BRANCH   8  24
ATOM     24  C   UNL A   1     -29.202  -2.438  30.479  0.00  0.00    +0.388 C 
ATOM     25  O   UNL A   1     -29.222  -3.565  30.709  0.00  0.00    -0.241 OA
ATOM     26  O   UNL A   1     -30.204  -1.708  30.962  0.00  0.00    -0.241 OA
ENDBRANCH   8  24
TORSDOF 4
