MODEL 3601
MODEL 1
REMARK VINA RESULT:    -4.692      0.000      0.000
REMARK INTER + INTRA:          -5.419
REMARK INTER:                  -5.241
REMARK INTRA:                  -0.178
REMARK UNBOUND:                -0.178
REMARK  Name = No_3601-gen_results/8p0m/2024-11-26-14-13-15/
REMARK  2 active torsions:
REMARK  status: ('A' for Active; 'I' for Inactive)
REMARK    1  A    between atoms: C_2  and  O_7
REMARK    2  A    between atoms: C_4  and  C_9
REMARK                            x       y       z     vdW  Elec       q    Type
REMARK                         _______ _______ _______ _____ _____    ______ ____
ROOT
ATOM      1  C   UNL A   1     -24.962  -4.287  29.188  0.00  0.00    +0.037 A 
ATOM      2  C   UNL A   1     -25.813  -3.870  29.651  0.00  0.00    +0.139 A 
ATOM      3  C   UNL A   1     -23.881  -3.353  28.835  0.00  0.00    +0.003 A 
ATOM      4  C   UNL A   1     -23.942  -1.987  29.237  0.00  0.00    -0.000 A 
ATOM      5  C   UNL A   1     -26.100  -2.524  30.218  0.00  0.00    +0.037 A 
ATOM      6  C   UNL A   1     -25.123  -1.627  29.902  0.00  0.00    +0.003 A 
ENDROOT
BRANCH   4   7
ATOM      7  C   UNL A   1     -22.913  -1.032  28.911  0.00  0.00    -0.005 C 
ATOM      8  C   UNL A   1     -23.100   0.024  28.162  0.00  0.00    -0.026 C 
ATOM      9  C   UNL A   1     -22.086   1.082  28.024  0.00  0.00    +0.031 C 
ENDBRANCH   4   7
BRANCH   2  10
ATOM     10  O   UNL A   1     -26.895  -4.781  30.011  0.00  0.00    -0.471 OA
ATOM     11  C   UNL A   1     -28.027  -4.503  30.406  0.00  0.00    +0.253 C 
ENDBRANCH   2  10
TORSDOF 2
ENDMDL
ENDMDL
