REMARK  Name = No_3602-gen_results/8p0m/2024-11-26-14-13-15/
REMARK  3 active torsions:
REMARK  status: ('A' for Active; 'I' for Inactive)
REMARK    1  A    between atoms: C_3  and  C_7
REMARK    2  A    between atoms: C_7  and  C_8
REMARK    3  A    between atoms: C_7  and  C_15
REMARK                            x       y       z     vdW  Elec       q    Type
REMARK                         _______ _______ _______ _____ _____    ______ ____
ROOT
ATOM      1  C   UNL A   1     -27.459   0.493  26.770  0.00  0.00    +0.109 C 
ENDROOT
BRANCH   1   2
ATOM      2  C   UNL A   1     -26.026   0.384  26.762  0.00  0.00    -0.011 A 
ATOM      3  C   UNL A   1     -25.290   0.932  25.783  0.00  0.00    -0.008 A 
ATOM      4  C   UNL A   1     -23.897   0.907  25.841  0.00  0.00    -0.022 A 
ATOM      5  C   UNL A   1     -23.213   1.952  25.203  0.00  0.00    +0.031 C 
ATOM      6  C   UNL A   1     -25.301   0.176  28.017  0.00  0.00    -0.004 A 
ATOM      7  C   UNL A   1     -23.907   0.353  28.157  0.00  0.00    -0.001 A 
ATOM      8  C   UNL A   1     -23.366   0.871  27.209  0.00  0.00    -0.004 A 
ENDBRANCH   1   2
BRANCH   1  11
ATOM      9  C   UNL A   1     -28.016  -0.814  28.878  0.00  0.00    -0.004 A 
ATOM     10  C   UNL A   1     -28.469  -0.785  29.829  0.00  0.00    -0.000 A 
ATOM     11  C   UNL A   1     -28.182   0.428  28.113  0.00  0.00    -0.011 A 
ATOM     12  C   UNL A   1     -28.984   1.415  28.515  0.00  0.00    -0.004 A 
ATOM     13  C   UNL A   1     -29.380   0.138  30.461  0.00  0.00    -0.000 A 
ATOM     14  C   UNL A   1     -29.541   1.274  29.724  0.00  0.00    -0.000 A 
ENDBRANCH   1  11
BRANCH   1  15
ATOM     15  C   UNL A   1     -28.205   0.530  25.625  0.00  0.00    +0.216 C 
ATOM     16  O   UNL A   1     -28.242   1.677  25.145  0.00  0.00    -0.288 OA
ENDBRANCH   1  15
TORSDOF 3
