MODEL 3603
MODEL 1
REMARK VINA RESULT:    -6.941      0.000      0.000
REMARK INTER + INTRA:         -10.960
REMARK INTER:                  -9.376
REMARK INTRA:                  -1.583
REMARK UNBOUND:                -1.583
REMARK  Name = No_3603-gen_results/8p0m/2024-11-26-14-13-15/
REMARK  6 active torsions:
REMARK  status: ('A' for Active; 'I' for Inactive)
REMARK    1  A    between atoms: C_2  and  C_7
REMARK    2  A    between atoms: C_3  and  C_11
REMARK    3  A    between atoms: N_12  and  C_20
REMARK    4  A    between atoms: C_15  and  C_16
REMARK    5  A    between atoms: C_21  and  C_22
REMARK    6  A    between atoms: C_23  and  C_24
REMARK                            x       y       z     vdW  Elec       q    Type
REMARK                         _______ _______ _______ _____ _____    ______ ____
ROOT
ATOM      1  C   UNL A   1      -9.507   2.608  36.106  0.00  0.00    +0.096 C 
ATOM      2  N   UNL A   1      -8.934   1.471  36.462  0.00  0.00    -0.304 N 
ATOM      3  C   UNL A   1      -7.864   1.026  36.089  0.00  0.00    +0.092 C 
ATOM      4  C   UNL A   1      -7.175   1.558  34.978  0.00  0.00    +0.033 C 
ATOM      5  C   UNL A   1      -7.676   2.644  34.288  0.00  0.00    +0.107 C 
ATOM      6  C   UNL A   1      -8.687   3.659  35.455  0.00  0.00    +0.036 C 
ENDROOT
BRANCH   1   9
ATOM      7  C   UNL A   1     -11.519   1.864  34.506  0.00  0.00    +0.001 A 
ATOM      8  C   UNL A   1     -12.542   2.026  34.311  0.00  0.00    +0.071 A 
ATOM      9  C   UNL A   1     -10.951   2.564  35.669  0.00  0.00    -0.004 A 
ATOM     10  C   UNL A   1     -11.791   3.303  36.552  0.00  0.00    -0.003 A 
ATOM     11  C   UNL A   1     -13.628   2.685  35.087  0.00  0.00    +0.004 A 
ATOM     12  C   UNL A   1     -13.138   3.354  36.168  0.00  0.00    -0.000 A 
BRANCH   8  13
ATOM     13  C   UNL A   1     -12.986   1.266  33.012  0.00  0.00    +0.419 C 
ATOM     14  F   UNL A   1     -12.078   0.805  32.295  0.00  0.00    -0.166 F 
ATOM     15  F   UNL A   1     -13.764   2.057  32.336  0.00  0.00    -0.166 F 
ATOM     16  F   UNL A   1     -13.791   0.236  33.393  0.00  0.00    -0.166 F 
ENDBRANCH   8  13
ENDBRANCH   1   9
BRANCH   5  17
ATOM     17  C   UNL A   1      -7.234   3.263  33.067  0.00  0.00    +0.364 C 
ATOM     18  O   UNL A   1      -6.085   3.631  33.066  0.00  0.00    -0.246 OA
ATOM     19  O   UNL A   1      -8.104   3.402  32.091  0.00  0.00    -0.246 OA
ENDBRANCH   5  17
BRANCH   2  20
ATOM     20  C   UNL A   1      -9.743   0.638  37.297  0.00  0.00    +0.061 C 
ATOM     21  C   UNL A   1     -10.001  -0.697  36.775  0.00  0.00    +0.016 C 
BRANCH  21  22
ATOM     22  C   UNL A   1     -10.779  -1.504  37.537  0.00  0.00    +0.001 C 
ATOM     23  C   UNL A   1     -11.304  -1.090  38.712  0.00  0.00    -0.000 C 
BRANCH  23  24
ATOM     24  C   UNL A   1     -12.009  -1.984  39.529  0.00  0.00    -0.005 C 
ATOM     25  C   UNL A   1     -11.513  -2.382  40.802  0.00  0.00    -0.026 C 
ATOM     26  C   UNL A   1     -10.596  -1.944  41.184  0.00  0.00    +0.031 C 
ENDBRANCH  23  24
ENDBRANCH  21  22
ENDBRANCH   2  20
TORSDOF 6
ENDMDL
ENDMDL
