MODEL 3604
MODEL 1
REMARK VINA RESULT:    -6.507      0.000      0.000
REMARK INTER + INTRA:          -7.719
REMARK INTER:                  -7.268
REMARK INTRA:                  -0.451
REMARK UNBOUND:                -0.451
REMARK  Name = No_3604-gen_results/8p0m/2024-11-26-14-13-15/
REMARK  2 active torsions:
REMARK  status: ('A' for Active; 'I' for Inactive)
REMARK    1  A    between atoms: C_2  and  C_7
REMARK    2  A    between atoms: C_7  and  C_8
REMARK                            x       y       z     vdW  Elec       q    Type
REMARK                         _______ _______ _______ _____ _____    ______ ____
ROOT
ATOM      1  C   UNL A   1     -24.252  -1.220  29.484  0.00  0.00    +0.053 C 
ENDROOT
BRANCH   1   3
ATOM      2  C   UNL A   1     -23.802  -3.444  28.711  0.00  0.00    -0.004 A 
ATOM      3  C   UNL A   1     -24.569  -2.690  29.263  0.00  0.00    -0.018 A 
ATOM      4  C   UNL A   1     -25.780  -3.062  29.751  0.00  0.00    -0.004 A 
ATOM      5  C   UNL A   1     -26.173  -4.407  29.608  0.00  0.00    -0.000 A 
ATOM      6  C   UNL A   1     -24.098  -4.851  28.615  0.00  0.00    -0.000 A 
ATOM      7  C   UNL A   1     -25.314  -5.271  29.064  0.00  0.00    -0.000 A 
ENDBRANCH   1   3
BRANCH   1   8
ATOM      8  C   UNL A   1     -24.131  -0.392  28.300  0.00  0.00    -0.018 A 
ATOM      9  C   UNL A   1     -24.754  -0.213  27.335  0.00  0.00    -0.004 A 
ATOM     10  C   UNL A   1     -24.488   0.718  26.272  0.00  0.00    -0.000 A 
ATOM     11  C   UNL A   1     -23.334   1.539  26.525  0.00  0.00    -0.000 A 
ATOM     12  C   UNL A   1     -22.901   0.557  28.354  0.00  0.00    -0.004 A 
ATOM     13  C   UNL A   1     -22.592   1.449  27.489  0.00  0.00    -0.000 A 
ENDBRANCH   1   8
TORSDOF 2
ENDMDL
ENDMDL
