MODEL 3605
MODEL 1
REMARK VINA RESULT:    -6.343      0.000      0.000
REMARK INTER + INTRA:          -7.132
REMARK INTER:                  -6.714
REMARK INTRA:                  -0.417
REMARK UNBOUND:                -0.417
REMARK  Name = No_3605-gen_results/8p0m/2024-11-26-14-13-15/
REMARK  1 active torsions:
REMARK  status: ('A' for Active; 'I' for Inactive)
REMARK    1  A    between atoms: C_3  and  C_4
REMARK                            x       y       z     vdW  Elec       q    Type
REMARK                         _______ _______ _______ _____ _____    ______ ____
ROOT
ATOM      1  C   UNL A   1     -24.628  -0.181  28.073  0.00  0.00    +0.000 A 
ATOM      2  C   UNL A   1     -23.919   0.324  27.479  0.00  0.00    +0.000 A 
ATOM      3  C   UNL A   1     -24.074  -1.279  28.954  0.00  0.00    +0.000 A 
ATOM      4  C   UNL A   1     -22.556   0.814  27.893  0.00  0.00    +0.000 A 
ATOM      5  C   UNL A   1     -22.034  -0.015  28.907  0.00  0.00    +0.000 A 
ATOM      6  C   UNL A   1     -22.698  -1.042  29.396  0.00  0.00    +0.000 A 
ENDROOT
BRANCH   3   7
ATOM      7  C   UNL A   1     -24.713  -2.519  29.115  0.00  0.00    +0.000 A 
ATOM      8  C   UNL A   1     -25.748  -2.768  29.466  0.00  0.00    +0.000 A 
ATOM      9  C   UNL A   1     -26.307  -4.043  29.723  0.00  0.00    +0.000 A 
ATOM     10  C   UNL A   1     -25.544  -5.162  29.321  0.00  0.00    +0.000 A 
ATOM     11  C   UNL A   1     -24.311  -4.975  28.713  0.00  0.00    +0.000 A 
ATOM     12  C   UNL A   1     -23.851  -3.695  28.564  0.00  0.00    +0.000 A 
ENDBRANCH   3   7
TORSDOF 1
ENDMDL
ENDMDL
