MODEL 3606
MODEL 1
REMARK VINA RESULT:    -4.422      0.000      0.000
REMARK INTER + INTRA:          -4.422
REMARK INTER:                  -4.422
REMARK INTRA:                   0.000
REMARK UNBOUND:                 0.000
REMARK  Name = No_3606-gen_results/8p0m/2024-11-26-14-13-15/
REMARK  0 active torsions:
REMARK  status: ('A' for Active; 'I' for Inactive)
REMARK                            x       y       z     vdW  Elec       q    Type
REMARK                         _______ _______ _______ _____ _____    ______ ____
ROOT
ATOM      1  C   UNL A   1      -8.083 -10.618  18.809  0.00  0.00    +0.011 A 
ATOM      2  C   UNL A   1      -8.144 -10.022  19.859  0.00  0.00    +0.058 A 
ATOM      3  C   UNL A   1      -9.267  -9.274  20.196  0.00  0.00    +0.011 A 
ATOM      4  C   UNL A   1     -10.374  -9.148  19.284  0.00  0.00    +0.001 A 
ATOM      5  C   UNL A   1     -10.210  -9.849  18.083  0.00  0.00    +0.000 A 
ATOM      6  C   UNL A   1      -9.121 -10.529  17.805  0.00  0.00    +0.001 A 
ATOM      7 CL   UNL A   1      -7.015 -10.038  21.208  0.00  0.00    -0.082 Cl
ENDROOT
TORSDOF 0
ENDMDL
ENDMDL
