REMARK  Name = No_3607-gen_results/8p0m/2024-11-26-14-13-15/
REMARK  1 active torsions:
REMARK  status: ('A' for Active; 'I' for Inactive)
REMARK    1  A    between atoms: C_7  and  C_15
REMARK                            x       y       z     vdW  Elec       q    Type
REMARK                         _______ _______ _______ _____ _____    ______ ____
ROOT
ATOM      1  C   UNL A   1     -28.016  -0.814  28.878  0.00  0.00    +0.000 A 
ATOM      2  C   UNL A   1     -27.064  -0.119  28.608  0.00  0.00    +0.006 A 
ATOM      3  C   UNL A   1     -25.792  -0.430  29.076  0.00  0.00    +0.000 A 
ATOM      4  C   UNL A   1     -25.576  -1.565  29.936  0.00  0.00    +0.000 A 
ATOM      5  C   UNL A   1     -26.735  -2.300  30.217  0.00  0.00    +0.000 A 
ATOM      6  C   UNL A   1     -27.918  -1.954  29.763  0.00  0.00    +0.000 A 
ATOM      7  C   UNL A   1     -27.106   1.102  27.759  0.00  0.00    +0.080 A 
ATOM      8  C   UNL A   1     -26.122   1.482  27.023  0.00  0.00    +0.007 A 
ATOM      9  C   UNL A   1     -24.714   1.130  27.489  0.00  0.00    +0.000 A 
ATOM     10  C   UNL A   1     -24.572   0.097  28.407  0.00  0.00    +0.000 A 
ATOM     11  C   UNL A   1     -23.549   1.779  26.903  0.00  0.00    +0.000 A 
ATOM     12  C   UNL A   1     -22.389   1.902  27.678  0.00  0.00    +0.000 A 
ATOM     13  C   UNL A   1     -22.153   0.911  28.695  0.00  0.00    +0.000 A 
ATOM     14  C   UNL A   1     -23.285   0.046  29.146  0.00  0.00    +0.000 A 
ENDROOT
BRANCH   7  15
ATOM     15  C   UNL A   1     -28.482   1.627  27.489  0.00  0.00    +0.388 C 
ATOM     16  O   UNL A   1     -28.867   2.412  28.198  0.00  0.00    -0.241 OA
ATOM     17  O   UNL A   1     -29.225   0.874  26.645  0.00  0.00    -0.241 OA
ENDBRANCH   7  15
TORSDOF 1
