MODEL 3607
MODEL 1
REMARK VINA RESULT:    -6.729      0.000      0.000
REMARK INTER + INTRA:          -7.126
REMARK INTER:                  -7.123
REMARK INTRA:                  -0.003
REMARK UNBOUND:                -0.003
REMARK  Name = No_3607-gen_results/8p0m/2024-11-26-14-13-15/
REMARK  1 active torsions:
REMARK  status: ('A' for Active; 'I' for Inactive)
REMARK    1  A    between atoms: C_7  and  C_15
REMARK                            x       y       z     vdW  Elec       q    Type
REMARK                         _______ _______ _______ _____ _____    ______ ____
ROOT
ATOM      1  C   UNL A   1     -28.528  -9.679  34.095  0.00  0.00    +0.000 A 
ATOM      2  C   UNL A   1     -28.802 -10.277  33.080  0.00  0.00    +0.006 A 
ATOM      3  C   UNL A   1     -29.645  -9.722  32.124  0.00  0.00    +0.000 A 
ATOM      4  C   UNL A   1     -30.256  -8.434  32.333  0.00  0.00    +0.000 A 
ATOM      5  C   UNL A   1     -29.904  -7.823  33.543  0.00  0.00    +0.000 A 
ATOM      6  C   UNL A   1     -29.115  -8.398  34.422  0.00  0.00    +0.000 A 
ATOM      7  C   UNL A   1     -28.286 -11.623  32.712  0.00  0.00    +0.080 A 
ATOM      8  C   UNL A   1     -28.086 -11.992  31.496  0.00  0.00    +0.007 A 
ATOM      9  C   UNL A   1     -28.971 -11.379  30.417  0.00  0.00    +0.000 A 
ATOM     10  C   UNL A   1     -29.628 -10.191  30.712  0.00  0.00    +0.000 A 
ATOM     11  C   UNL A   1     -29.034 -11.960  29.083  0.00  0.00    +0.000 A 
ATOM     12  C   UNL A   1     -30.203 -11.789  28.331  0.00  0.00    +0.000 A 
ATOM     13  C   UNL A   1     -30.993 -10.612  28.578  0.00  0.00    +0.000 A 
ATOM     14  C   UNL A   1     -30.776  -9.839  29.838  0.00  0.00    +0.000 A 
ENDROOT
BRANCH   7  15
ATOM     15  C   UNL A   1     -27.627 -12.366  33.832  0.00  0.00    +0.388 C 
ATOM     16  O   UNL A   1     -26.583 -12.741  33.639  0.00  0.00    -0.241 OA
ATOM     17  O   UNL A   1     -28.464 -12.790  34.807  0.00  0.00    -0.241 OA
ENDBRANCH   7  15
TORSDOF 1
ENDMDL
ENDMDL
