MODEL 3608
MODEL 1
REMARK VINA RESULT:    -6.836      0.000      0.000
REMARK INTER + INTRA:          -9.777
REMARK INTER:                  -9.234
REMARK INTRA:                  -0.543
REMARK UNBOUND:                -0.543
REMARK  Name = No_3608-gen_results/8p0m/2024-11-26-14-13-15/
REMARK  6 active torsions:
REMARK  status: ('A' for Active; 'I' for Inactive)
REMARK    1  A    between atoms: C_1  and  C_8
REMARK    2  A    between atoms: C_4  and  C_14
REMARK    3  A    between atoms: C_5  and  C_11
REMARK    4  A    between atoms: C_28  and  C_29
REMARK    5  A    between atoms: C_30  and  C_31
REMARK    6  A    between atoms: C_32  and  C_33
REMARK                            x       y       z     vdW  Elec       q    Type
REMARK                         _______ _______ _______ _____ _____    ______ ____
ROOT
ATOM      1  C   UNL A   1     -30.212 -15.150  31.210  0.00  0.00    +0.226 C 
ATOM      2  O   UNL A   1     -29.330 -15.943  31.149  0.00  0.00    -0.275 OA
ATOM      3  N   UNL A   1     -31.222 -15.074  30.370  0.00  0.00    -0.279 N 
ATOM      4  C   UNL A   1     -31.319 -15.990  29.193  0.00  0.00    +0.098 C 
ATOM      5  C   UNL A   1     -32.360 -14.161  30.455  0.00  0.00    +0.098 C 
ATOM      6  C   UNL A   1     -30.866 -15.425  28.021  0.00  0.00    +0.048 C 
ATOM      7  C   UNL A   1     -30.390 -14.359  27.822  0.00  0.00    -0.025 A 
ATOM      8  C   UNL A   1     -29.878 -13.863  26.888  0.00  0.00    -0.004 A 
ATOM      9  C   UNL A   1     -29.245 -12.514  26.778  0.00  0.00    -0.001 A 
ATOM     10  C   UNL A   1     -29.341 -11.784  27.970  0.00  0.00    -0.005 A 
ATOM     11  C   UNL A   1     -29.916 -12.271  29.088  0.00  0.00    -0.026 A 
ATOM     12  C   UNL A   1     -29.964 -11.495  30.237  0.00  0.00    +0.030 C 
ATOM     13  C   UNL A   1     -30.392 -13.498  29.031  0.00  0.00    -0.028 A 
ATOM     14  C   UNL A   1     -31.608 -13.619  29.896  0.00  0.00    +0.046 C 
ATOM     15  C   UNL A   1     -31.685 -12.242  30.378  0.00  0.00    +0.028 C 
ENDROOT
BRANCH   1  19
ATOM     16  C   UNL A   1     -28.576 -11.147  33.455  0.00  0.00    +0.078 C 
ATOM     17  C   UNL A   1     -29.277 -12.129  33.370  0.00  0.00    -0.037 C 
ATOM     18  C   UNL A   1     -29.319 -12.999  32.402  0.00  0.00    +0.032 C 
ATOM     19  C   UNL A   1     -30.192 -14.197  32.336  0.00  0.00    +0.091 C 
ATOM     20  C   UNL A   1     -31.026 -14.434  33.466  0.00  0.00    +0.113 C 
ATOM     21  C   UNL A   1     -30.941 -13.553  34.514  0.00  0.00    +0.016 C 
ATOM     22  C   UNL A   1     -30.119 -12.478  34.540  0.00  0.00    +0.023 C 
BRANCH  16  23
ATOM     23  C   UNL A   1     -27.134 -11.354  33.938  0.00  0.00    +0.387 C 
ATOM     24  O   UNL A   1     -26.717 -10.592  34.884  0.00  0.00    -0.241 OA
ATOM     25  O   UNL A   1     -26.452 -12.289  33.512  0.00  0.00    -0.241 OA
ENDBRANCH  16  23
BRANCH  20  26
ATOM     26  C   UNL A   1     -31.905 -15.587  33.534  0.00  0.00    +0.365 C 
ATOM     27  O   UNL A   1     -33.040 -15.564  33.465  0.00  0.00    -0.246 OA
ATOM     28  O   UNL A   1     -31.285 -16.803  33.850  0.00  0.00    -0.246 OA
ENDBRANCH  20  26
ENDBRANCH   1  19
BRANCH  15  29
ATOM     29  C   UNL A   1     -32.571 -11.314  29.626  0.00  0.00    -0.043 C 
ATOM     30  C   UNL A   1     -32.930 -10.335  29.975  0.00  0.00    -0.009 C 
ATOM     31  C   UNL A   1     -33.236 -11.902  28.371  0.00  0.00    +0.026 C 
BRANCH  30  32
ATOM     32  C   UNL A   1     -33.657  -9.368  29.194  0.00  0.00    -0.001 C 
ATOM     33  C   UNL A   1     -33.099  -8.340  28.409  0.00  0.00    -0.000 C 
BRANCH  33  34
ATOM     34  C   UNL A   1     -31.683  -8.327  28.266  0.00  0.00    -0.000 C 
ATOM     35  C   UNL A   1     -31.135  -8.856  27.051  0.00  0.00    -0.000 C 
ENDBRANCH  33  34
ENDBRANCH  30  32
ENDBRANCH  15  29
TORSDOF 6
ENDMDL
ENDMDL
