REMARK  Name = No_3608-gen_results/8p0m/2024-11-26-14-13-15/
REMARK  6 active torsions:
REMARK  status: ('A' for Active; 'I' for Inactive)
REMARK    1  A    between atoms: C_1  and  C_8
REMARK    2  A    between atoms: C_4  and  C_14
REMARK    3  A    between atoms: C_5  and  C_11
REMARK    4  A    between atoms: C_28  and  C_29
REMARK    5  A    between atoms: C_30  and  C_31
REMARK    6  A    between atoms: C_32  and  C_33
REMARK                            x       y       z     vdW  Elec       q    Type
REMARK                         _______ _______ _______ _____ _____    ______ ____
ROOT
ATOM      1  C   UNL A   1     -25.526   3.374  28.927  0.00  0.00    +0.226 C 
ATOM      2  O   UNL A   1     -24.921   3.621  29.918  0.00  0.00    -0.275 OA
ATOM      3  N   UNL A   1     -26.037   4.268  28.108  0.00  0.00    -0.279 N 
ATOM      4  C   UNL A   1     -25.932   5.730  28.397  0.00  0.00    +0.098 C 
ATOM      5  C   UNL A   1     -26.722   4.002  26.845  0.00  0.00    +0.098 C 
ATOM      6  C   UNL A   1     -27.064   6.256  28.980  0.00  0.00    +0.048 C 
ATOM      7  C   UNL A   1     -28.069   5.723  29.310  0.00  0.00    -0.025 A 
ATOM      8  C   UNL A   1     -29.013   6.079  29.913  0.00  0.00    -0.004 A 
ATOM      9  C   UNL A   1     -30.207   5.283  30.331  0.00  0.00    -0.001 A 
ATOM     10  C   UNL A   1     -30.145   3.957  29.882  0.00  0.00    -0.005 A 
ATOM     11  C   UNL A   1     -29.105   3.465  29.179  0.00  0.00    -0.026 A 
ATOM     12  C   UNL A   1     -29.106   2.137  28.778  0.00  0.00    +0.030 C 
ATOM     13  C   UNL A   1     -28.109   4.290  28.927  0.00  0.00    -0.028 A 
ATOM     14  C   UNL A   1     -27.500   3.969  27.597  0.00  0.00    +0.046 C 
ATOM     15  C   UNL A   1     -28.371   2.864  27.206  0.00  0.00    +0.028 C 
ENDROOT
BRANCH   1  19
ATOM     16  C   UNL A   1     -28.016  -0.814  28.878  0.00  0.00    +0.078 C 
ATOM     17  C   UNL A   1     -27.064  -0.119  28.608  0.00  0.00    -0.037 C 
ATOM     18  C   UNL A   1     -26.876   1.133  28.913  0.00  0.00    +0.032 C 
ATOM     19  C   UNL A   1     -25.688   1.952  28.567  0.00  0.00    +0.091 C 
ATOM     20  C   UNL A   1     -24.639   1.283  27.875  0.00  0.00    +0.113 C 
ATOM     21  C   UNL A   1     -24.807  -0.051  27.604  0.00  0.00    +0.016 C 
ATOM     22  C   UNL A   1     -25.902  -0.767  27.951  0.00  0.00    +0.023 C 
BRANCH  16  23
ATOM     23  C   UNL A   1     -28.061  -1.429  30.283  0.00  0.00    +0.387 C 
ATOM     24  O   UNL A   1     -28.955  -2.324  30.504  0.00  0.00    -0.241 OA
ATOM     25  O   UNL A   1     -27.198  -1.156  31.121  0.00  0.00    -0.241 OA
ENDBRANCH  16  23
BRANCH  20  26
ATOM     26  C   UNL A   1     -23.415   1.968  27.505  0.00  0.00    +0.365 C 
ATOM     27  O   UNL A   1     -23.302   2.719  26.658  0.00  0.00    -0.246 OA
ATOM     28  O   UNL A   1     -22.259   1.547  28.175  0.00  0.00    -0.246 OA
ENDBRANCH  20  26
ENDBRANCH   1  19
BRANCH  15  29
ATOM     29  C   UNL A   1     -29.542   3.200  26.352  0.00  0.00    -0.043 C 
ATOM     30  C   UNL A   1     -30.253   4.022  26.521  0.00  0.00    -0.009 C 
ATOM     31  C   UNL A   1     -29.921   2.146  25.299  0.00  0.00    +0.026 C 
BRANCH  30  32
ATOM     32  C   UNL A   1     -31.291   4.447  25.618  0.00  0.00    -0.001 C 
ATOM     33  C   UNL A   1     -32.252   5.447  25.862  0.00  0.00    -0.000 C 
BRANCH  33  34
ATOM     34  C   UNL A   1     -32.113   6.204  27.059  0.00  0.00    -0.000 C 
ATOM     35  C   UNL A   1     -33.128   7.173  27.352  0.00  0.00    -0.000 C 
ENDBRANCH  33  34
ENDBRANCH  30  32
ENDBRANCH  15  29
TORSDOF 6
