MODEL 3609
MODEL 1
REMARK VINA RESULT:    -4.777      0.000      0.000
REMARK INTER + INTRA:          -4.934
REMARK INTER:                  -5.056
REMARK INTRA:                   0.122
REMARK UNBOUND:                 0.122
REMARK  Name = No_3609-gen_results/8p0m/2024-11-26-14-13-15/
REMARK  1 active torsions:
REMARK  status: ('A' for Active; 'I' for Inactive)
REMARK    1  A    between atoms: C_6  and  C_8
REMARK                            x       y       z     vdW  Elec       q    Type
REMARK                         _______ _______ _______ _____ _____    ______ ____
ROOT
ATOM      1  C   UNL A   1     -23.828   0.291  27.717  0.00  0.00    +0.011 A 
ATOM      2  C   UNL A   1     -22.708   0.426  28.152  0.00  0.00    +0.058 A 
ATOM      3  C   UNL A   1     -22.210  -0.281  29.197  0.00  0.00    +0.011 A 
ATOM      4  C   UNL A   1     -23.042  -1.231  29.819  0.00  0.00    +0.001 A 
ATOM      5  C   UNL A   1     -24.700  -0.728  28.241  0.00  0.00    +0.001 A 
ATOM      6  C   UNL A   1     -24.258  -1.446  29.312  0.00  0.00    -0.000 A 
ATOM      7 CL   UNL A   1     -21.594   1.567  27.449  0.00  0.00    -0.082 Cl
ENDROOT
BRANCH   6   8
ATOM      8  C   UNL A   1     -25.170  -2.473  29.903  0.00  0.00    -0.005 C 
ATOM      9  C   UNL A   1     -25.239  -3.606  29.290  0.00  0.00    -0.026 C 
ATOM     10  C   UNL A   1     -24.012  -4.041  28.529  0.00  0.00    +0.031 C 
ENDBRANCH   6   8
TORSDOF 1
ENDMDL
ENDMDL
