MODEL 360
MODEL 1
REMARK VINA RESULT:    -6.506      0.000      0.000
REMARK INTER + INTRA:          -6.959
REMARK INTER:                  -6.887
REMARK INTRA:                  -0.072
REMARK UNBOUND:                -0.072
REMARK  Name = No_360-gen_results/8p0m/2024-11-26-14-13-15/
REMARK  1 active torsions:
REMARK  status: ('A' for Active; 'I' for Inactive)
REMARK    1  A    between atoms: C_2  and  C_5
REMARK                            x       y       z     vdW  Elec       q    Type
REMARK                         _______ _______ _______ _____ _____    ______ ____
ROOT
ATOM      1  C   UNL A   1     -28.093 -11.967  31.606  0.00  0.00    +0.007 A 
ATOM      2  C   UNL A   1     -28.180 -11.420  32.502  0.00  0.00    +0.080 A 
ATOM      3  C   UNL A   1     -29.022 -11.534  30.563  0.00  0.00    +0.000 A 
ATOM      4  C   UNL A   1     -29.020 -12.077  29.185  0.00  0.00    +0.000 A 
ATOM      5  C   UNL A   1     -29.100 -10.236  32.851  0.00  0.00    +0.007 A 
ATOM      6  C   UNL A   1     -29.968  -9.839  31.913  0.00  0.00    +0.000 A 
ATOM      7  C   UNL A   1     -29.932 -10.438  30.687  0.00  0.00    +0.000 A 
ATOM      8  C   UNL A   1     -29.465 -11.610  28.121  0.00  0.00    +0.000 A 
ATOM      9  C   UNL A   1     -30.396 -10.468  28.331  0.00  0.00    +0.000 A 
ATOM     10  C   UNL A   1     -30.560  -9.853  29.516  0.00  0.00    +0.000 A 
ENDROOT
BRANCH   2  11
ATOM     11  C   UNL A   1     -27.211 -11.708  33.691  0.00  0.00    +0.388 C 
ATOM     12  O   UNL A   1     -26.652 -12.809  33.788  0.00  0.00    -0.241 OA
ATOM     13  O   UNL A   1     -26.977 -10.836  34.542  0.00  0.00    -0.241 OA
ENDBRANCH   2  11
TORSDOF 1
ENDMDL
ENDMDL
