REMARK  Name = No_361-gen_results/8p0m/2024-11-26-14-13-15/
REMARK  6 active torsions:
REMARK  status: ('A' for Active; 'I' for Inactive)
REMARK    1  A    between atoms: C_6  and  O_7
REMARK    2  A    between atoms: O_7  and  C_15
REMARK    3  A    between atoms: C_9  and  C_12
REMARK    4  A    between atoms: C_15  and  C_16
REMARK    5  A    between atoms: C_16  and  C_17
REMARK    6  A    between atoms: C_17  and  C_19
REMARK                            x       y       z     vdW  Elec       q    Type
REMARK                         _______ _______ _______ _____ _____    ______ ____
ROOT
ATOM      1  C   UNL A   1     -28.016  -0.814  28.878  0.00  0.00    +0.037 A 
ATOM      2  C   UNL A   1     -27.064  -0.119  28.608  0.00  0.00    +0.003 A 
ATOM      3  C   UNL A   1     -25.765  -0.390  29.036  0.00  0.00    +0.000 A 
ATOM      4  C   UNL A   1     -25.530  -1.530  29.901  0.00  0.00    +0.003 A 
ATOM      5  C   UNL A   1     -26.689  -2.289  30.181  0.00  0.00    +0.037 A 
ATOM      6  C   UNL A   1     -27.873  -1.951  29.737  0.00  0.00    +0.139 A 
ATOM      7  C   UNL A   1     -24.539   0.421  28.742  0.00  0.00    +0.007 A 
ATOM      8  C   UNL A   1     -23.346   0.114  29.169  0.00  0.00    +0.080 A 
ATOM      9  C   UNL A   1     -23.112  -1.015  29.917  0.00  0.00    +0.007 A 
ATOM     10  C   UNL A   1     -24.250  -1.880  30.324  0.00  0.00    +0.000 A 
ENDROOT
BRANCH   8  11
ATOM     11  C   UNL A   1     -22.160   0.890  28.740  0.00  0.00    +0.388 C 
ATOM     12  O   UNL A   1     -21.039   0.752  29.092  0.00  0.00    -0.241 OA
ATOM     13  O   UNL A   1     -22.373   1.996  27.940  0.00  0.00    -0.241 OA
ENDBRANCH   8  11
BRANCH   6  14
ATOM     14  O   UNL A   1     -28.930  -2.730  30.115  0.00  0.00    -0.468 OA
BRANCH  14  15
ATOM     15  C   UNL A   1     -30.064  -2.215  30.593  0.00  0.00    +0.269 C 
BRANCH  15  16
ATOM     16  C   UNL A   1     -30.462  -2.906  31.741  0.00  0.00    +0.194 C 
ATOM     17  O   UNL A   1     -31.751  -2.768  32.162  0.00  0.00    -0.292 OA
BRANCH  16  18
ATOM     18  C   UNL A   1     -29.621  -3.685  32.413  0.00  0.00    +0.069 C 
BRANCH  18  19
ATOM     19  C   UNL A   1     -30.126  -4.994  32.668  0.00  0.00    +0.008 C 
ATOM     20  C   UNL A   1     -31.242  -5.337  31.980  0.00  0.00    +0.001 C 
ENDBRANCH  18  19
ENDBRANCH  16  18
ENDBRANCH  15  16
ENDBRANCH  14  15
ENDBRANCH   6  14
TORSDOF 6
