REMARK  Name = No_3610-gen_results/8p0m/2024-11-26-14-13-15/
REMARK  5 active torsions:
REMARK  status: ('A' for Active; 'I' for Inactive)
REMARK    1  A    between atoms: C_2  and  C_11
REMARK    2  A    between atoms: C_3  and  C_7
REMARK    3  A    between atoms: N_12  and  C_14
REMARK    4  A    between atoms: N_12  and  C_15
REMARK    5  A    between atoms: C_20  and  C_21
REMARK                            x       y       z     vdW  Elec       q    Type
REMARK                         _______ _______ _______ _____ _____    ______ ____
ROOT
ATOM      1  C   UNL A   1     -29.381  -2.098  30.067  0.00  0.00    +0.257 C 
ATOM      2  N   UNL A   1     -30.542  -1.889  30.030  0.00  0.00    -0.234 N 
ATOM      3  O   UNL A   1     -28.860  -3.207  30.429  0.00  0.00    -0.269 OA
ENDROOT
BRANCH   1   5
ATOM      4  C   UNL A   1     -28.016  -0.814  28.878  0.00  0.00    +0.008 A 
ATOM      5  C   UNL A   1     -28.469  -0.785  29.829  0.00  0.00    +0.054 A 
ATOM      6  C   UNL A   1     -27.087   0.290  28.638  0.00  0.00    +0.072 A 
ATOM      7  C   UNL A   1     -26.832   1.249  29.587  0.00  0.00    +0.004 A 
ATOM      8  C   UNL A   1     -28.391   0.080  31.006  0.00  0.00    +0.004 A 
ATOM      9  C   UNL A   1     -27.494   1.152  30.784  0.00  0.00    +0.000 A 
BRANCH   6  10
ATOM     10  C   UNL A   1     -26.317   0.399  27.365  0.00  0.00    +0.419 C 
ATOM     11  F   UNL A   1     -26.948   0.346  26.360  0.00  0.00    -0.166 F 
ATOM     12  F   UNL A   1     -25.633   1.651  27.325  0.00  0.00    -0.166 F 
ATOM     13  F   UNL A   1     -25.233  -0.494  27.419  0.00  0.00    -0.166 F 
ENDBRANCH   6  10
ENDBRANCH   1   5
BRANCH   2  14
ATOM     14  C   UNL A   1     -31.524  -2.957  30.199  0.00  0.00    +0.058 A 
ATOM     15  C   UNL A   1     -31.727  -3.752  29.137  0.00  0.00    +0.015 A 
ATOM     16  C   UNL A   1     -32.304  -4.869  29.273  0.00  0.00    +0.001 A 
ATOM     17  C   UNL A   1     -32.803  -5.298  30.507  0.00  0.00    +0.000 A 
ATOM     18  C   UNL A   1     -32.646  -4.443  31.596  0.00  0.00    +0.001 A 
ATOM     19  C   UNL A   1     -31.908  -3.300  31.496  0.00  0.00    +0.015 A 
ENDBRANCH   2  14
BRANCH   2  20
ATOM     20  C   UNL A   1     -31.218  -0.610  29.629  0.00  0.00    +0.059 A 
ATOM     21  C   UNL A   1     -31.998  -0.053  30.666  0.00  0.00    +0.015 A 
ATOM     22  C   UNL A   1     -32.501   1.153  30.409  0.00  0.00    +0.002 A 
ATOM     23  C   UNL A   1     -32.361   1.811  29.171  0.00  0.00    +0.007 A 
ATOM     24  C   UNL A   1     -30.987  -0.016  28.463  0.00  0.00    +0.022 A 
ATOM     25  C   UNL A   1     -31.557   1.239  28.210  0.00  0.00    +0.081 A 
BRANCH  25  26
ATOM     26  C   UNL A   1     -31.306   1.941  26.930  0.00  0.00    +0.388 C 
ATOM     27  O   UNL A   1     -31.092   1.500  25.954  0.00  0.00    -0.241 OA
ATOM     28  O   UNL A   1     -31.195   3.303  27.068  0.00  0.00    -0.241 OA
ENDBRANCH  25  26
ENDBRANCH   2  20
TORSDOF 5
