MODEL 3610
MODEL 1
REMARK VINA RESULT:    -7.468      0.000      0.000
REMARK INTER + INTRA:         -10.569
REMARK INTER:                  -9.651
REMARK INTRA:                  -0.918
REMARK UNBOUND:                -0.918
REMARK  Name = No_3610-gen_results/8p0m/2024-11-26-14-13-15/
REMARK  5 active torsions:
REMARK  status: ('A' for Active; 'I' for Inactive)
REMARK    1  A    between atoms: C_2  and  C_11
REMARK    2  A    between atoms: C_3  and  C_7
REMARK    3  A    between atoms: N_12  and  C_14
REMARK    4  A    between atoms: N_12  and  C_15
REMARK    5  A    between atoms: C_20  and  C_21
REMARK                            x       y       z     vdW  Elec       q    Type
REMARK                         _______ _______ _______ _____ _____    ______ ____
ROOT
ATOM      1  C   UNL A   1      -8.613   1.609  34.638  0.00  0.00    +0.257 C 
ATOM      2  N   UNL A   1      -8.136   0.807  35.360  0.00  0.00    -0.234 N 
ATOM      3  O   UNL A   1      -8.099   1.974  33.527  0.00  0.00    -0.269 OA
ENDROOT
BRANCH   1   5
ATOM      4  C   UNL A   1     -10.781   2.032  34.854  0.00  0.00    +0.008 A 
ATOM      5  C   UNL A   1      -9.880   2.389  35.268  0.00  0.00    +0.054 A 
ATOM      6  C   UNL A   1     -11.963   2.771  35.297  0.00  0.00    +0.072 A 
ATOM      7  C   UNL A   1     -11.877   3.838  36.156  0.00  0.00    +0.004 A 
ATOM      8  C   UNL A   1      -9.495   3.472  36.173  0.00  0.00    +0.004 A 
ATOM      9  C   UNL A   1     -10.632   4.193  36.608  0.00  0.00    +0.000 A 
BRANCH   6  10
ATOM     10  C   UNL A   1     -13.326   2.440  34.788  0.00  0.00    +0.419 C 
ATOM     11  F   UNL A   1     -13.761   3.152  33.943  0.00  0.00    -0.166 F 
ATOM     12  F   UNL A   1     -13.321   1.129  34.223  0.00  0.00    -0.166 F 
ATOM     13  F   UNL A   1     -14.181   2.251  35.888  0.00  0.00    -0.166 F 
ENDBRANCH   6  10
ENDBRANCH   1   5
BRANCH   2  14
ATOM     14  C   UNL A   1      -6.998  -0.015  34.957  0.00  0.00    +0.058 A 
ATOM     15  C   UNL A   1      -5.789   0.401  35.365  0.00  0.00    +0.015 A 
ATOM     16  C   UNL A   1      -4.799  -0.385  35.342  0.00  0.00    +0.001 A 
ATOM     17  C   UNL A   1      -4.900  -1.688  34.842  0.00  0.00    +0.000 A 
ATOM     18  C   UNL A   1      -6.142  -2.096  34.361  0.00  0.00    +0.001 A 
ATOM     19  C   UNL A   1      -7.249  -1.311  34.504  0.00  0.00    +0.015 A 
ENDBRANCH   2  14
BRANCH   2  20
ATOM     20  C   UNL A   1      -8.678   0.344  36.681  0.00  0.00    +0.059 A 
ATOM     21  C   UNL A   1      -8.074   0.993  37.780  0.00  0.00    +0.015 A 
ATOM     22  C   UNL A   1      -8.620   0.723  38.965  0.00  0.00    +0.002 A 
ATOM     23  C   UNL A   1      -9.662  -0.206  39.152  0.00  0.00    +0.007 A 
ATOM     24  C   UNL A   1      -9.708  -0.491  36.777  0.00  0.00    +0.022 A 
ATOM     25  C   UNL A   1     -10.239  -0.780  38.041  0.00  0.00    +0.081 A 
BRANCH  25  26
ATOM     26  C   UNL A   1     -11.399  -1.690  38.186  0.00  0.00    +0.388 C 
ATOM     27  O   UNL A   1     -12.106  -1.749  39.016  0.00  0.00    -0.241 OA
ATOM     28  O   UNL A   1     -11.464  -2.650  37.205  0.00  0.00    -0.241 OA
ENDBRANCH  25  26
ENDBRANCH   2  20
TORSDOF 5
ENDMDL
ENDMDL
