REMARK  Name = No_3611-gen_results/8p0m/2024-11-26-14-13-15/
REMARK  3 active torsions:
REMARK  status: ('A' for Active; 'I' for Inactive)
REMARK    1  A    between atoms: C_3  and  O_11
REMARK    2  A    between atoms: C_5  and  C_7
REMARK    3  A    between atoms: O_11  and  C_12
REMARK                            x       y       z     vdW  Elec       q    Type
REMARK                         _______ _______ _______ _____ _____    ______ ____
ROOT
ATOM      1  C   UNL A   1     -28.016  -0.814  28.878  0.00  0.00    +0.003 A 
ATOM      2  C   UNL A   1     -27.064  -0.119  28.608  0.00  0.00    +0.037 A 
ATOM      3  C   UNL A   1     -27.001   0.691  27.491  0.00  0.00    +0.145 A 
ATOM      4  C   UNL A   1     -28.137   0.736  26.635  0.00  0.00    +0.041 A 
ATOM      5  C   UNL A   1     -29.236   0.076  27.069  0.00  0.00    +0.074 A 
ATOM      6  C   UNL A   1     -29.218  -0.643  28.175  0.00  0.00    +0.004 A 
ENDROOT
BRANCH   5   7
ATOM      7  C   UNL A   1     -30.415   0.159  26.182  0.00  0.00    +0.419 C 
ATOM      8  F   UNL A   1     -30.235  -0.047  25.029  0.00  0.00    -0.166 F 
ATOM      9  F   UNL A   1     -31.285  -0.830  26.646  0.00  0.00    -0.166 F 
ATOM     10  F   UNL A   1     -31.027   1.345  26.314  0.00  0.00    -0.166 F 
ENDBRANCH   5   7
BRANCH   3  11
ATOM     11  O   UNL A   1     -25.833   1.365  27.108  0.00  0.00    -0.454 OA
BRANCH  11  12
ATOM     12  C   UNL A   1     -24.797   1.199  27.955  0.00  0.00    +0.145 A 
ATOM     13  C   UNL A   1     -24.028   2.313  28.292  0.00  0.00    +0.037 A 
ATOM     14  C   UNL A   1     -22.742   2.149  28.963  0.00  0.00    +0.003 A 
ATOM     15  C   UNL A   1     -22.297   0.769  29.273  0.00  0.00    +0.000 A 
ATOM     16  C   UNL A   1     -23.094  -0.330  28.921  0.00  0.00    +0.003 A 
ATOM     17  C   UNL A   1     -24.237  -0.111  28.168  0.00  0.00    +0.037 A 
ENDBRANCH  11  12
ENDBRANCH   3  11
TORSDOF 3
