MODEL 3611
MODEL 1
REMARK VINA RESULT:    -7.165      0.000      0.000
REMARK INTER + INTRA:          -9.029
REMARK INTER:                  -8.421
REMARK INTRA:                  -0.607
REMARK UNBOUND:                -0.607
REMARK  Name = No_3611-gen_results/8p0m/2024-11-26-14-13-15/
REMARK  3 active torsions:
REMARK  status: ('A' for Active; 'I' for Inactive)
REMARK    1  A    between atoms: C_3  and  O_11
REMARK    2  A    between atoms: C_5  and  C_7
REMARK    3  A    between atoms: O_11  and  C_12
REMARK                            x       y       z     vdW  Elec       q    Type
REMARK                         _______ _______ _______ _____ _____    ______ ____
ROOT
ATOM      1  C   UNL A   1     -25.541  -0.215  25.833  0.00  0.00    +0.003 A 
ATOM      2  C   UNL A   1     -25.685  -0.732  26.916  0.00  0.00    +0.037 A 
ATOM      3  C   UNL A   1     -24.861  -0.485  27.997  0.00  0.00    +0.145 A 
ATOM      4  C   UNL A   1     -23.811   0.461  27.832  0.00  0.00    +0.041 A 
ATOM      5  C   UNL A   1     -23.796   1.136  26.659  0.00  0.00    +0.074 A 
ATOM      6  C   UNL A   1     -24.652   0.861  25.693  0.00  0.00    +0.004 A 
ENDROOT
BRANCH   5   7
ATOM      7  C   UNL A   1     -22.716   2.135  26.517  0.00  0.00    +0.419 C 
ATOM      8  F   UNL A   1     -21.675   1.874  27.019  0.00  0.00    -0.166 F 
ATOM      9  F   UNL A   1     -22.497   2.236  25.142  0.00  0.00    -0.166 F 
ATOM     10  F   UNL A   1     -23.117   3.334  26.963  0.00  0.00    -0.166 F 
ENDBRANCH   5   7
BRANCH   3  11
ATOM     11  O   UNL A   1     -24.943  -1.210  29.194  0.00  0.00    -0.454 OA
BRANCH  11  12
ATOM     12  C   UNL A   1     -25.088  -2.540  29.026  0.00  0.00    +0.145 A 
ATOM     13  C   UNL A   1     -26.172  -3.173  29.633  0.00  0.00    +0.037 A 
ATOM     14  C   UNL A   1     -26.221  -4.629  29.726  0.00  0.00    +0.003 A 
ATOM     15  C   UNL A   1     -25.091  -5.396  29.150  0.00  0.00    +0.000 A 
ATOM     16  C   UNL A   1     -24.015  -4.728  28.545  0.00  0.00    +0.003 A 
ATOM     17  C   UNL A   1     -23.968  -3.344  28.610  0.00  0.00    +0.037 A 
ENDBRANCH  11  12
ENDBRANCH   3  11
TORSDOF 3
ENDMDL
ENDMDL
