MODEL 3613
MODEL 1
REMARK VINA RESULT:    -4.282      0.000      0.000
REMARK INTER + INTRA:          -4.282
REMARK INTER:                  -4.282
REMARK INTRA:                   0.000
REMARK UNBOUND:                 0.000
REMARK  Name = No_3613-gen_results/8p0m/2024-11-26-14-13-15/
REMARK  0 active torsions:
REMARK  status: ('A' for Active; 'I' for Inactive)
REMARK                            x       y       z     vdW  Elec       q    Type
REMARK                         _______ _______ _______ _____ _____    ______ ____
ROOT
ATOM      1  C   UNL A   1     -24.125  -4.862  28.620  0.00  0.00    +0.000 A 
ATOM      2  C   UNL A   1     -25.013  -5.275  29.008  0.00  0.00    +0.000 A 
ATOM      3  C   UNL A   1     -24.057  -3.405  28.738  0.00  0.00    +0.000 A 
ATOM      4  C   UNL A   1     -25.061  -2.673  29.323  0.00  0.00    +0.000 A 
ATOM      5  C   UNL A   1     -26.213  -4.762  29.670  0.00  0.00    +0.000 A 
ATOM      6  C   UNL A   1     -26.157  -3.352  29.789  0.00  0.00    +0.000 A 
ENDROOT
TORSDOF 0
ENDMDL
ENDMDL
