MODEL 3614
MODEL 1
REMARK VINA RESULT:    -5.410      0.000      0.000
REMARK INTER + INTRA:          -8.028
REMARK INTER:                  -6.992
REMARK INTRA:                  -1.036
REMARK UNBOUND:                -1.036
REMARK  Name = No_3614-gen_results/8p0m/2024-11-26-14-13-15/
REMARK  5 active torsions:
REMARK  status: ('A' for Active; 'I' for Inactive)
REMARK    1  A    between atoms: C_3  and  O_12
REMARK    2  A    between atoms: C_4  and  C_5
REMARK    3  A    between atoms: C_5  and  C_8
REMARK    4  A    between atoms: C_8  and  C_9
REMARK    5  A    between atoms: O_12  and  C_13
REMARK                            x       y       z     vdW  Elec       q    Type
REMARK                         _______ _______ _______ _____ _____    ______ ____
ROOT
ATOM      1  C   UNL A   1     -26.534  -3.964  29.765  0.00  0.00    +0.037 A 
ATOM      2  C   UNL A   1     -25.914  -4.803  29.617  0.00  0.00    +0.003 A 
ATOM      3  C   UNL A   1     -25.931  -2.646  29.512  0.00  0.00    +0.141 A 
ATOM      4  C   UNL A   1     -24.621  -2.542  28.959  0.00  0.00    +0.013 A 
ATOM      5  C   UNL A   1     -24.591  -5.013  28.995  0.00  0.00    -0.000 A 
ATOM      6  C   UNL A   1     -23.959  -3.769  28.660  0.00  0.00    -0.001 A 
ENDROOT
BRANCH   4   7
ATOM      7  C   UNL A   1     -23.999  -1.276  28.694  0.00  0.00    +0.035 C 
BRANCH   7   8
ATOM      8  C   UNL A   1     -23.058  -0.872  29.685  0.00  0.00    +0.071 C 
ATOM      9  C   UNL A   1     -21.649  -0.674  29.032  0.00  0.00    +0.006 C 
BRANCH   8  10
ATOM     10  C   UNL A   1     -23.215  -0.674  30.908  0.00  0.00    +0.319 C 
ATOM     11  F   UNL A   1     -23.288   0.434  31.340  0.00  0.00    -0.198 F 
ATOM     12  F   UNL A   1     -23.138  -1.597  31.745  0.00  0.00    -0.198 F 
ENDBRANCH   8  10
ENDBRANCH   7   8
ENDBRANCH   4   7
BRANCH   3  13
ATOM     13  O   UNL A   1     -26.551  -1.482  29.765  0.00  0.00    -0.451 OA
BRANCH  13  14
ATOM     14  C   UNL A   1     -27.257  -1.328  30.985  0.00  0.00    +0.180 C 
ATOM     15  C   UNL A   1     -26.617  -0.764  32.017  0.00  0.00    +0.044 C 
ENDBRANCH  13  14
ENDBRANCH   3  13
TORSDOF 5
ENDMDL
ENDMDL
