MODEL 3615
MODEL 1
REMARK VINA RESULT:    -8.859      0.000      0.000
REMARK INTER + INTRA:         -12.532
REMARK INTER:                 -11.448
REMARK INTRA:                  -1.084
REMARK UNBOUND:                -1.084
REMARK  Name = No_3615-gen_results/8p0m/2024-11-26-14-13-15/
REMARK  5 active torsions:
REMARK  status: ('A' for Active; 'I' for Inactive)
REMARK    1  A    between atoms: C_2  and  C_3
REMARK    2  A    between atoms: C_3  and  C_5
REMARK    3  A    between atoms: C_3  and  C_16
REMARK    4  A    between atoms: C_16  and  C_17
REMARK    5  A    between atoms: C_19  and  C_23
REMARK                            x       y       z     vdW  Elec       q    Type
REMARK                         _______ _______ _______ _____ _____    ______ ____
ROOT
ATOM      1  C   UNL A   1     -24.815  -1.213  29.899  0.00  0.00    +0.103 C 
ENDROOT
BRANCH   1   3
ATOM      2  O   UNL A   1     -26.723  -0.198  30.375  0.00  0.00    -0.275 OA
ATOM      3  C   UNL A   1     -25.781  -0.738  30.763  0.00  0.00    +0.230 C 
ATOM      4  N   UNL A   1     -25.395  -0.747  32.170  0.00  0.00    -0.279 N 
ATOM      5  C   UNL A   1     -24.173  -1.222  32.723  0.00  0.00    +0.093 C 
ATOM      6  C   UNL A   1     -23.773  -1.232  33.677  0.00  0.00    +0.022 C 
ATOM      7  C   UNL A   1     -24.519  -0.804  34.834  0.00  0.00    +0.004 C 
ATOM      8  C   UNL A   1     -25.812  -0.322  34.471  0.00  0.00    +0.022 C 
ATOM      9  C   UNL A   1     -26.248  -0.328  33.182  0.00  0.00    +0.093 C 
ENDBRANCH   1   3
BRANCH   1  10
ATOM     10  C   UNL A   1     -24.845  -2.572  29.560  0.00  0.00    -0.013 A 
ATOM     11  C   UNL A   1     -23.964  -3.301  28.855  0.00  0.00    -0.004 A 
ATOM     12  C   UNL A   1     -23.995  -4.666  28.640  0.00  0.00    -0.000 A 
ATOM     13  C   UNL A   1     -25.177  -5.233  29.049  0.00  0.00    -0.000 A 
ATOM     14  C   UNL A   1     -26.258  -4.645  29.674  0.00  0.00    -0.000 A 
ATOM     15  C   UNL A   1     -26.072  -3.272  29.943  0.00  0.00    -0.004 A 
ENDBRANCH   1  10
BRANCH   1  16
ATOM     16  C   UNL A   1     -23.969  -0.309  29.246  0.00  0.00    +0.040 C 
BRANCH  16  17
ATOM     17  C   UNL A   1     -23.881   0.219  28.356  0.00  0.00    -0.021 A 
ATOM     18  C   UNL A   1     -24.674  -0.231  27.153  0.00  0.00    -0.000 A 
ATOM     19  C   UNL A   1     -24.635   0.620  25.950  0.00  0.00    +0.071 A 
ATOM     20  C   UNL A   1     -23.711   1.555  25.904  0.00  0.00    +0.004 A 
ATOM     21  C   UNL A   1     -22.956   1.995  26.944  0.00  0.00    -0.000 A 
ATOM     22  C   UNL A   1     -23.037   1.354  28.183  0.00  0.00    -0.004 A 
BRANCH  19  23
ATOM     23  C   UNL A   1     -25.385   0.228  24.807  0.00  0.00    +0.419 C 
ATOM     24  F   UNL A   1     -24.538   0.294  23.735  0.00  0.00    -0.166 F 
ATOM     25  F   UNL A   1     -26.437   0.960  24.516  0.00  0.00    -0.166 F 
ATOM     26  F   UNL A   1     -25.717  -1.078  24.880  0.00  0.00    -0.166 F 
ENDBRANCH  19  23
ENDBRANCH  16  17
ENDBRANCH   1  16
TORSDOF 5
ENDMDL
ENDMDL
