REMARK  Name = No_3615-gen_results/8p0m/2024-11-26-14-13-15/
REMARK  5 active torsions:
REMARK  status: ('A' for Active; 'I' for Inactive)
REMARK    1  A    between atoms: C_2  and  C_3
REMARK    2  A    between atoms: C_3  and  C_5
REMARK    3  A    between atoms: C_3  and  C_16
REMARK    4  A    between atoms: C_16  and  C_17
REMARK    5  A    between atoms: C_19  and  C_23
REMARK                            x       y       z     vdW  Elec       q    Type
REMARK                         _______ _______ _______ _____ _____    ______ ____
ROOT
ATOM      1  C   UNL A   1     -26.380  -0.087  27.939  0.00  0.00    +0.103 C 
ENDROOT
BRANCH   1   3
ATOM      2  O   UNL A   1     -28.123  -1.335  28.487  0.00  0.00    -0.275 OA
ATOM      3  C   UNL A   1     -27.481  -0.404  28.709  0.00  0.00    +0.230 C 
ATOM      4  N   UNL A   1     -27.899   0.646  29.632  0.00  0.00    -0.279 N 
ATOM      5  C   UNL A   1     -27.274   1.908  29.837  0.00  0.00    +0.093 C 
ATOM      6  C   UNL A   1     -27.503   2.737  30.413  0.00  0.00    +0.022 C 
ATOM      7  C   UNL A   1     -28.602   2.752  31.346  0.00  0.00    +0.004 C 
ATOM      8  C   UNL A   1     -29.335   1.528  31.308  0.00  0.00    +0.022 C 
ATOM      9  C   UNL A   1     -28.971   0.495  30.501  0.00  0.00    +0.093 C 
ENDBRANCH   1   3
BRANCH   1  10
ATOM     10  C   UNL A   1     -25.124  -0.532  28.371  0.00  0.00    -0.013 A 
ATOM     11  C   UNL A   1     -24.808  -1.551  29.187  0.00  0.00    -0.004 A 
ATOM     12  C   UNL A   1     -23.541  -2.010  29.495  0.00  0.00    -0.000 A 
ATOM     13  C   UNL A   1     -22.556  -1.167  29.044  0.00  0.00    -0.000 A 
ATOM     14  C   UNL A   1     -22.669  -0.008  28.303  0.00  0.00    -0.000 A 
ATOM     15  C   UNL A   1     -23.999   0.305  27.951  0.00  0.00    -0.004 A 
ENDBRANCH   1  10
BRANCH   1  16
ATOM     16  C   UNL A   1     -26.564   0.487  26.675  0.00  0.00    +0.040 C 
BRANCH  16  17
ATOM     17  C   UNL A   1     -27.172   0.419  25.836  0.00  0.00    -0.021 A 
ATOM     18  C   UNL A   1     -28.418  -0.432  25.898  0.00  0.00    -0.000 A 
ATOM     19  C   UNL A   1     -29.330  -0.395  24.741  0.00  0.00    +0.071 A 
ATOM     20  C   UNL A   1     -28.875   0.150  23.633  0.00  0.00    +0.004 A 
ATOM     21  C   UNL A   1     -27.758   0.913  23.509  0.00  0.00    -0.000 A 
ATOM     22  C   UNL A   1     -26.901   1.075  24.601  0.00  0.00    -0.004 A 
BRANCH  19  23
ATOM     23  C   UNL A   1     -30.518  -1.175  24.778  0.00  0.00    +0.419 C 
ATOM     24  F   UNL A   1     -31.347  -0.593  25.698  0.00  0.00    -0.166 F 
ATOM     25  F   UNL A   1     -30.382  -2.436  25.122  0.00  0.00    -0.166 F 
ATOM     26  F   UNL A   1     -31.195  -1.067  23.615  0.00  0.00    -0.166 F 
ENDBRANCH  19  23
ENDBRANCH  16  17
ENDBRANCH   1  16
TORSDOF 5
