MODEL 3616
MODEL 1
REMARK VINA RESULT:    -6.158      0.000      0.000
REMARK INTER + INTRA:          -6.775
REMARK INTER:                  -6.518
REMARK INTRA:                  -0.257
REMARK UNBOUND:                -0.257
REMARK  Name = No_3616-gen_results/8p0m/2024-11-26-14-13-15/
REMARK  1 active torsions:
REMARK  status: ('A' for Active; 'I' for Inactive)
REMARK    1  A    between atoms: C_5  and  C_8
REMARK                            x       y       z     vdW  Elec       q    Type
REMARK                         _______ _______ _______ _____ _____    ______ ____
ROOT
ATOM      1  O   UNL A   1     -22.363   1.573  28.479  0.00  0.00    -0.275 OA
ATOM      2  C   UNL A   1     -23.338   1.018  28.216  0.00  0.00    +0.232 C 
ATOM      3  C   UNL A   1     -23.565  -0.279  28.630  0.00  0.00    +0.090 C 
ATOM      4  N   UNL A   1     -24.126   1.387  27.035  0.00  0.00    -0.228 N 
ATOM      5  C   UNL A   1     -24.471  -1.104  28.127  0.00  0.00    +0.041 C 
ATOM      6  C   UNL A   1     -25.355  -0.546  27.089  0.00  0.00    +0.090 C 
ATOM      7  C   UNL A   1     -25.100   0.647  26.550  0.00  0.00    +0.232 C 
ATOM      8  C   UNL A   1     -23.784   2.747  26.552  0.00  0.00    +0.123 C 
ATOM      9  O   UNL A   1     -25.841   1.128  25.573  0.00  0.00    -0.275 OA
ENDROOT
BRANCH   5  10
ATOM     10  C   UNL A   1     -24.852  -2.431  28.637  0.00  0.00    -0.021 A 
ATOM     11  C   UNL A   1     -24.004  -3.522  28.424  0.00  0.00    -0.004 A 
ATOM     12  C   UNL A   1     -24.418  -4.811  28.944  0.00  0.00    -0.000 A 
ATOM     13  C   UNL A   1     -26.019  -2.672  29.334  0.00  0.00    -0.004 A 
ATOM     14  C   UNL A   1     -26.364  -3.946  29.776  0.00  0.00    -0.000 A 
ATOM     15  C   UNL A   1     -25.539  -4.972  29.541  0.00  0.00    -0.000 A 
ENDBRANCH   5  10
TORSDOF 1
ENDMDL
ENDMDL
