REMARK  Name = No_3616-gen_results/8p0m/2024-11-26-14-13-15/
REMARK  1 active torsions:
REMARK  status: ('A' for Active; 'I' for Inactive)
REMARK    1  A    between atoms: C_5  and  C_8
REMARK                            x       y       z     vdW  Elec       q    Type
REMARK                         _______ _______ _______ _____ _____    ______ ____
ROOT
ATOM      1  O   UNL A   1     -28.123  -1.335  28.487  0.00  0.00    -0.275 OA
ATOM      2  C   UNL A   1     -27.481  -0.404  28.709  0.00  0.00    +0.232 C 
ATOM      3  C   UNL A   1     -26.380  -0.087  27.939  0.00  0.00    +0.090 C 
ATOM      4  N   UNL A   1     -27.423   0.175  30.055  0.00  0.00    -0.228 N 
ATOM      5  C   UNL A   1     -25.407   0.742  28.286  0.00  0.00    +0.041 C 
ATOM      6  C   UNL A   1     -25.570   1.435  29.575  0.00  0.00    +0.090 C 
ATOM      7  C   UNL A   1     -26.534   1.073  30.423  0.00  0.00    +0.232 C 
ATOM      8  C   UNL A   1     -28.565  -0.268  30.891  0.00  0.00    +0.123 C 
ATOM      9  O   UNL A   1     -26.649   1.636  31.608  0.00  0.00    -0.275 OA
ENDROOT
BRANCH   5  10
ATOM     10  C   UNL A   1     -24.303   1.227  27.441  0.00  0.00    -0.021 A 
ATOM     11  C   UNL A   1     -23.027   1.376  27.991  0.00  0.00    -0.004 A 
ATOM     12  C   UNL A   1     -21.968   1.856  27.123  0.00  0.00    -0.000 A 
ATOM     13  C   UNL A   1     -24.451   1.548  26.106  0.00  0.00    -0.004 A 
ATOM     14  C   UNL A   1     -23.393   2.034  25.344  0.00  0.00    -0.000 A 
ATOM     15  C   UNL A   1     -22.188   2.181  25.904  0.00  0.00    -0.000 A 
ENDBRANCH   5  10
TORSDOF 1
