MODEL 3617
MODEL 1
REMARK VINA RESULT:    -7.197      0.000      0.000
REMARK INTER + INTRA:          -8.408
REMARK INTER:                  -8.039
REMARK INTRA:                  -0.369
REMARK UNBOUND:                -0.369
REMARK  Name = No_3617-gen_results/8p0m/2024-11-26-14-13-15/
REMARK  2 active torsions:
REMARK  status: ('A' for Active; 'I' for Inactive)
REMARK    1  A    between atoms: C_2  and  C_11
REMARK    2  A    between atoms: C_3  and  C_7
REMARK                            x       y       z     vdW  Elec       q    Type
REMARK                         _______ _______ _______ _____ _____    ______ ____
ROOT
ATOM      1  C   UNL A   1     -23.736  -2.390  29.658  0.00  0.00    +0.010 A 
ATOM      2  C   UNL A   1     -24.508  -2.801  29.070  0.00  0.00    +0.080 A 
ATOM      3  C   UNL A   1     -23.456  -1.014  29.508  0.00  0.00    +0.072 A 
ATOM      4  C   UNL A   1     -24.150  -0.219  28.618  0.00  0.00    +0.005 A 
ATOM      5  C   UNL A   1     -25.392  -2.183  28.062  0.00  0.00    +0.008 A 
ATOM      6  C   UNL A   1     -25.156  -0.865  27.887  0.00  0.00    +0.018 A 
ATOM      7  C   UNL A   1     -25.936  -0.036  26.916  0.00  0.00    +0.081 A 
ATOM      8  N   UNL A   1     -26.893  -0.088  26.500  0.00  0.00    -0.244 NA
ATOM      9  C   UNL A   1     -25.083   1.131  26.346  0.00  0.00    +0.014 A 
ATOM     10  C   UNL A   1     -23.783   1.484  26.582  0.00  0.00    -0.020 A 
ATOM     11  C   UNL A   1     -25.915   1.954  25.443  0.00  0.00    +0.003 A 
ATOM     12  C   UNL A   1     -27.179   1.774  25.128  0.00  0.00    +0.021 A 
ATOM     13  C   UNL A   1     -27.781   0.635  25.744  0.00  0.00    +0.099 A 
ATOM     14  C   UNL A   1     -23.047   0.668  27.575  0.00  0.00    -0.004 A 
ATOM     15  C   UNL A   1     -23.719   2.961  26.938  0.00  0.00    +0.031 C 
ENDROOT
BRANCH   3  16
ATOM     16  C   UNL A   1     -22.415  -0.293  30.318  0.00  0.00    +0.419 C 
ATOM     17  F   UNL A   1     -21.478  -0.228  29.883  0.00  0.00    -0.166 F 
ATOM     18  F   UNL A   1     -22.254  -0.842  31.611  0.00  0.00    -0.166 F 
ATOM     19  F   UNL A   1     -22.975   1.000  30.650  0.00  0.00    -0.166 F 
ENDBRANCH   3  16
BRANCH   2  20
ATOM     20  C   UNL A   1     -24.951  -4.347  29.284  0.00  0.00    +0.388 C 
ATOM     21  O   UNL A   1     -24.209  -5.149  29.125  0.00  0.00    -0.241 OA
ATOM     22  O   UNL A   1     -26.215  -4.594  29.698  0.00  0.00    -0.241 OA
ENDBRANCH   2  20
TORSDOF 2
ENDMDL
ENDMDL
