MODEL 3618
MODEL 1
REMARK VINA RESULT:    -9.056      0.000      0.000
REMARK INTER + INTRA:         -10.707
REMARK INTER:                 -10.644
REMARK INTRA:                  -0.063
REMARK UNBOUND:                -0.063
REMARK  Name = No_3618-gen_results/8p0m/2024-11-26-14-13-15/
REMARK  3 active torsions:
REMARK  status: ('A' for Active; 'I' for Inactive)
REMARK    1  A    between atoms: C_3  and  C_19
REMARK    2  A    between atoms: C_5  and  C_10
REMARK    3  A    between atoms: C_23  and  C_25
REMARK                            x       y       z     vdW  Elec       q    Type
REMARK                         _______ _______ _______ _____ _____    ______ ____
ROOT
ATOM      1  C   UNL A   1     -23.205  -1.297  32.401  0.00  0.00    +0.026 C 
ATOM      2  C   UNL A   1     -23.456  -0.864  31.300  0.00  0.00    +0.008 C 
ATOM      3  C   UNL A   1     -24.626  -0.677  30.762  0.00  0.00    +0.019 C 
ATOM      4  C   UNL A   1     -24.893  -0.137  29.406  0.00  0.00    +0.013 C 
ATOM      5  C   UNL A   1     -23.754   0.252  28.645  0.00  0.00    +0.096 C 
ATOM      6  C   UNL A   1     -22.522   0.112  29.231  0.00  0.00    +0.009 C 
ATOM      7  C   UNL A   1     -22.322  -0.371  30.480  0.00  0.00    +0.001 C 
ATOM      8  C   UNL A   1     -24.199  -0.881  33.488  0.00  0.00    -0.026 A 
ATOM      9  C   UNL A   1     -24.164  -1.214  34.552  0.00  0.00    -0.005 A 
ATOM     10  C   UNL A   1     -24.956  -0.739  35.599  0.00  0.00    -0.000 A 
ATOM     11  C   UNL A   1     -26.027   0.142  35.267  0.00  0.00    -0.000 A 
ATOM     12  C   UNL A   1     -26.101   0.586  33.976  0.00  0.00    -0.005 A 
ATOM     13  C   UNL A   1     -25.200   0.140  33.089  0.00  0.00    -0.026 A 
ATOM     14  C   UNL A   1     -25.597   0.403  31.750  0.00  0.00    +0.022 C 
ATOM     15  C   UNL A   1     -27.027   0.462  31.432  0.00  0.00    +0.004 C 
ATOM     16  C   UNL A   1     -25.012   1.878  31.394  0.00  0.00    +0.004 C 
ATOM     17  C   UNL A   1     -25.946   2.790  30.940  0.00  0.00    +0.000 C 
ATOM     18  C   UNL A   1     -27.872   1.471  30.939  0.00  0.00    +0.000 C 
ATOM     19  C   UNL A   1     -27.289   2.695  30.713  0.00  0.00    +0.000 C 
ENDROOT
BRANCH   3  20
ATOM     20  C   UNL A   1     -25.468  -2.048  30.672  0.00  0.00    -0.043 C 
ATOM     21  C   UNL A   1     -26.771  -1.975  30.789  0.00  0.00    -0.006 C 
ATOM     22  C   UNL A   1     -27.538  -3.168  30.449  0.00  0.00    +0.137 C 
ATOM     23  C   UNL A   1     -25.233  -2.680  29.283  0.00  0.00    +0.063 C 
ATOM     24  C   UNL A   1     -25.757  -3.995  29.162  0.00  0.00    +0.222 C 
ATOM     25  O   UNL A   1     -26.399  -4.589  30.006  0.00  0.00    -0.343 OA
ATOM     26  C   UNL A   1     -28.837  -3.633  30.516  0.00  0.00    +0.037 C 
BRANCH  24  27
ATOM     27  C   UNL A   1     -24.579  -5.065  28.977  0.00  0.00    +0.392 C 
ATOM     28  O   UNL A   1     -24.761  -6.011  29.657  0.00  0.00    -0.243 OA
ATOM     29  O   UNL A   1     -23.612  -4.894  28.179  0.00  0.00    -0.243 OA
ENDBRANCH  24  27
ENDBRANCH   3  20
BRANCH   5  30
ATOM     30  C   UNL A   1     -23.875   0.768  27.304  0.00  0.00    +0.398 C 
ATOM     31  F   UNL A   1     -22.955   1.118  26.749  0.00  0.00    -0.170 F 
ATOM     32  F   UNL A   1     -24.605  -0.127  26.486  0.00  0.00    -0.170 F 
ATOM     33  F   UNL A   1     -24.822   1.824  27.275  0.00  0.00    -0.170 F 
ENDBRANCH   5  30
TORSDOF 3
ENDMDL
ENDMDL
