REMARK  Name = No_3618-gen_results/8p0m/2024-11-26-14-13-15/
REMARK  3 active torsions:
REMARK  status: ('A' for Active; 'I' for Inactive)
REMARK    1  A    between atoms: C_3  and  C_19
REMARK    2  A    between atoms: C_5  and  C_10
REMARK    3  A    between atoms: C_23  and  C_25
REMARK                            x       y       z     vdW  Elec       q    Type
REMARK                         _______ _______ _______ _____ _____    ______ ____
ROOT
ATOM      1  C   UNL A   1     -28.016  -0.814  28.878  0.00  0.00    +0.026 C 
ATOM      2  C   UNL A   1     -27.064  -0.119  28.608  0.00  0.00    +0.008 C 
ATOM      3  C   UNL A   1     -26.876   1.133  28.913  0.00  0.00    +0.019 C 
ATOM      4  C   UNL A   1     -25.688   1.952  28.567  0.00  0.00    +0.013 C 
ATOM      5  C   UNL A   1     -24.639   1.283  27.875  0.00  0.00    +0.096 C 
ATOM      6  C   UNL A   1     -24.807  -0.051  27.604  0.00  0.00    +0.009 C 
ATOM      7  C   UNL A   1     -25.902  -0.767  27.951  0.00  0.00    +0.001 C 
ATOM      8  C   UNL A   1     -28.645  -0.528  30.243  0.00  0.00    -0.026 A 
ATOM      9  C   UNL A   1     -29.554  -1.030  30.649  0.00  0.00    -0.005 A 
ATOM     10  C   UNL A   1     -30.065  -0.907  31.943  0.00  0.00    -0.000 A 
ATOM     11  C   UNL A   1     -29.474   0.074  32.793  0.00  0.00    -0.000 A 
ATOM     12  C   UNL A   1     -28.349   0.706  32.340  0.00  0.00    -0.005 A 
ATOM     13  C   UNL A   1     -27.892   0.407  31.116  0.00  0.00    -0.026 A 
ATOM     14  C   UNL A   1     -26.950   1.365  30.652  0.00  0.00    +0.022 C 
ATOM     15  C   UNL A   1     -27.060   2.752  31.116  0.00  0.00    +0.004 C 
ATOM     16  C   UNL A   1     -25.498   0.848  31.170  0.00  0.00    +0.004 C 
ATOM     17  C   UNL A   1     -24.773   1.765  31.908  0.00  0.00    +0.000 C 
ATOM     18  C   UNL A   1     -26.217   3.598  31.857  0.00  0.00    +0.000 C 
ATOM     19  C   UNL A   1     -25.032   3.051  32.287  0.00  0.00    +0.000 C 
ENDROOT
BRANCH   3  20
ATOM     20  C   UNL A   1     -28.033   2.075  28.305  0.00  0.00    -0.043 C 
ATOM     21  C   UNL A   1     -27.798   3.362  28.231  0.00  0.00    -0.006 C 
ATOM     22  C   UNL A   1     -28.731   4.166  27.449  0.00  0.00    +0.137 C 
ATOM     23  C   UNL A   1     -28.308   1.641  26.849  0.00  0.00    +0.063 C 
ATOM     24  C   UNL A   1     -29.452   2.262  26.278  0.00  0.00    +0.222 C 
ATOM     25  O   UNL A   1     -30.142   3.112  26.806  0.00  0.00    -0.343 OA
ATOM     26  C   UNL A   1     -28.997   5.493  27.175  0.00  0.00    +0.037 C 
BRANCH  24  27
ATOM     27  C   UNL A   1     -30.601   1.185  25.985  0.00  0.00    +0.392 C 
ATOM     28  O   UNL A   1     -31.445   1.647  25.304  0.00  0.00    -0.243 OA
ATOM     29  O   UNL A   1     -30.561  -0.001  26.423  0.00  0.00    -0.243 OA
ENDBRANCH  24  27
ENDBRANCH   3  20
BRANCH   5  30
ATOM     30  C   UNL A   1     -23.442   1.972  27.460  0.00  0.00    +0.398 C 
ATOM     31  F   UNL A   1     -23.419   2.514  26.468  0.00  0.00    -0.170 F 
ATOM     32  F   UNL A   1     -22.982   2.839  28.480  0.00  0.00    -0.170 F 
ATOM     33  F   UNL A   1     -22.336   1.084  27.490  0.00  0.00    -0.170 F 
ENDBRANCH   5  30
TORSDOF 3
