MODEL 3619
MODEL 1
REMARK VINA RESULT:    -6.802      0.000      0.000
REMARK INTER + INTRA:          -8.542
REMARK INTER:                  -7.994
REMARK INTRA:                  -0.547
REMARK UNBOUND:                -0.547
REMARK  Name = No_3619-gen_results/8p0m/2024-11-26-14-13-15/
REMARK  3 active torsions:
REMARK  status: ('A' for Active; 'I' for Inactive)
REMARK    1  A    between atoms: C_2  and  N_7
REMARK    2  A    between atoms: N_7  and  C_8
REMARK    3  A    between atoms: N_7  and  C_14
REMARK                            x       y       z     vdW  Elec       q    Type
REMARK                         _______ _______ _______ _____ _____    ______ ____
ROOT
ATOM      1  N   UNL A   1     -24.223  -1.304  29.264  0.00  0.00    -0.250 N 
ENDROOT
BRANCH   1   3
ATOM      2  C   UNL A   1     -25.791  -3.136  29.635  0.00  0.00    +0.035 A 
ATOM      3  C   UNL A   1     -24.739  -2.665  29.269  0.00  0.00    +0.139 A 
ATOM      4  N   UNL A   1     -23.750  -3.375  28.707  0.00  0.00    -0.229 NA
ATOM      5  C   UNL A   1     -23.938  -4.754  28.552  0.00  0.00    +0.100 A 
ATOM      6  C   UNL A   1     -25.107  -5.310  28.989  0.00  0.00    +0.021 A 
ATOM      7  C   UNL A   1     -26.023  -4.550  29.531  0.00  0.00    +0.004 A 
ENDBRANCH   1   3
BRANCH   1   8
ATOM      8  C   UNL A   1     -24.262  -0.494  28.328  0.00  0.00    +0.057 A 
ATOM      9  C   UNL A   1     -24.797  -0.238  27.431  0.00  0.00    +0.015 A 
ATOM     10  C   UNL A   1     -24.561   0.842  26.381  0.00  0.00    +0.001 A 
ATOM     11  C   UNL A   1     -23.403   1.587  26.588  0.00  0.00    +0.000 A 
ATOM     12  C   UNL A   1     -22.556   1.275  27.648  0.00  0.00    +0.001 A 
ATOM     13  C   UNL A   1     -22.883   0.325  28.481  0.00  0.00    +0.015 A 
ENDBRANCH   1   8
BRANCH   1  14
ATOM     14  C   UNL A   1     -23.258  -1.144  30.333  0.00  0.00    +0.066 C 
ATOM     15  C   UNL A   1     -23.825  -1.293  31.638  0.00  0.00    -0.009 C 
ATOM     16  C   UNL A   1     -22.953  -1.188  32.689  0.00  0.00    +0.032 C 
ENDBRANCH   1  14
TORSDOF 3
ENDMDL
ENDMDL
