REMARK  Name = No_3619-gen_results/8p0m/2024-11-26-14-13-15/
REMARK  3 active torsions:
REMARK  status: ('A' for Active; 'I' for Inactive)
REMARK    1  A    between atoms: C_2  and  N_7
REMARK    2  A    between atoms: N_7  and  C_8
REMARK    3  A    between atoms: N_7  and  C_14
REMARK                            x       y       z     vdW  Elec       q    Type
REMARK                         _______ _______ _______ _____ _____    ______ ____
ROOT
ATOM      1  N   UNL A   1     -26.918   1.062  27.770  0.00  0.00    -0.250 N 
ENDROOT
BRANCH   1   3
ATOM      2  C   UNL A   1     -28.016  -0.814  28.878  0.00  0.00    +0.035 A 
ATOM      3  C   UNL A   1     -27.064  -0.119  28.608  0.00  0.00    +0.139 A 
ATOM      4  N   UNL A   1     -25.818  -0.343  29.049  0.00  0.00    -0.229 NA
ATOM      5  C   UNL A   1     -25.607  -1.441  29.893  0.00  0.00    +0.100 A 
ATOM      6  C   UNL A   1     -26.676  -2.219  30.236  0.00  0.00    +0.021 A 
ATOM      7  C   UNL A   1     -27.863  -1.932  29.767  0.00  0.00    +0.004 A 
ENDBRANCH   1   3
BRANCH   1   8
ATOM      8  C   UNL A   1     -25.895   1.440  27.183  0.00  0.00    +0.057 A 
ATOM      9  C   UNL A   1     -25.455   1.562  26.209  0.00  0.00    +0.015 A 
ATOM     10  C   UNL A   1     -24.067   2.017  25.772  0.00  0.00    +0.001 A 
ATOM     11  C   UNL A   1     -23.191   2.251  26.829  0.00  0.00    +0.000 A 
ATOM     12  C   UNL A   1     -23.601   2.012  28.137  0.00  0.00    +0.001 A 
ATOM     13  C   UNL A   1     -24.826   1.629  28.373  0.00  0.00    +0.015 A 
ENDBRANCH   1   8
BRANCH   1  14
ATOM     14  C   UNL A   1     -27.990   1.996  28.052  0.00  0.00    +0.066 C 
ATOM     15  C   UNL A   1     -29.058   1.940  27.102  0.00  0.00    -0.009 C 
ATOM     16  C   UNL A   1     -30.117   2.775  27.337  0.00  0.00    +0.032 C 
ENDBRANCH   1  14
TORSDOF 3
