MODEL 361
MODEL 1
REMARK VINA RESULT:    -6.199      0.000      0.000
REMARK INTER + INTRA:          -9.008
REMARK INTER:                  -8.373
REMARK INTRA:                  -0.635
REMARK UNBOUND:                -0.635
REMARK  Name = No_361-gen_results/8p0m/2024-11-26-14-13-15/
REMARK  6 active torsions:
REMARK  status: ('A' for Active; 'I' for Inactive)
REMARK    1  A    between atoms: C_6  and  O_7
REMARK    2  A    between atoms: O_7  and  C_15
REMARK    3  A    between atoms: C_9  and  C_12
REMARK    4  A    between atoms: C_15  and  C_16
REMARK    5  A    between atoms: C_16  and  C_17
REMARK    6  A    between atoms: C_17  and  C_19
REMARK                            x       y       z     vdW  Elec       q    Type
REMARK                         _______ _______ _______ _____ _____    ______ ____
ROOT
ATOM      1  C   UNL A   1     -29.704 -11.574  27.961  0.00  0.00    +0.037 A 
ATOM      2  C   UNL A   1     -28.936 -11.949  28.816  0.00  0.00    +0.003 A 
ATOM      3  C   UNL A   1     -28.935 -11.457  30.121  0.00  0.00    +0.000 A 
ATOM      4  C   UNL A   1     -29.858 -10.396  30.476  0.00  0.00    +0.003 A 
ATOM      5  C   UNL A   1     -30.716 -10.004  29.424  0.00  0.00    +0.037 A 
ATOM      6  C   UNL A   1     -30.638 -10.522  28.225  0.00  0.00    +0.139 A 
ATOM      7  C   UNL A   1     -28.019 -11.872  31.233  0.00  0.00    +0.007 A 
ATOM      8  C   UNL A   1     -28.068 -11.376  32.437  0.00  0.00    +0.080 A 
ATOM      9  C   UNL A   1     -29.001 -10.432  32.795  0.00  0.00    +0.007 A 
ATOM     10  C   UNL A   1     -29.937  -9.895  31.773  0.00  0.00    +0.000 A 
ENDROOT
BRANCH   8  11
ATOM     11  C   UNL A   1     -27.216 -11.918  33.520  0.00  0.00    +0.388 C 
ATOM     12  O   UNL A   1     -26.700 -12.982  33.571  0.00  0.00    -0.241 OA
ATOM     13  O   UNL A   1     -27.100 -11.174  34.678  0.00  0.00    -0.241 OA
ENDBRANCH   8  11
BRANCH   6  14
ATOM     14  O   UNL A   1     -31.483 -10.027  27.272  0.00  0.00    -0.468 OA
BRANCH  14  15
ATOM     15  C   UNL A   1     -32.448  -9.150  27.557  0.00  0.00    +0.269 C 
BRANCH  15  16
ATOM     16  C   UNL A   1     -32.300  -7.999  26.778  0.00  0.00    +0.194 C 
ATOM     17  O   UNL A   1     -33.268  -7.712  25.862  0.00  0.00    -0.292 OA
BRANCH  16  18
ATOM     18  C   UNL A   1     -31.253  -7.193  26.916  0.00  0.00    +0.069 C 
BRANCH  18  19
ATOM     19  C   UNL A   1     -31.227  -6.490  28.156  0.00  0.00    +0.008 C 
ATOM     20  C   UNL A   1     -31.762  -5.245  28.136  0.00  0.00    +0.001 C 
ENDBRANCH  18  19
ENDBRANCH  16  18
ENDBRANCH  15  16
ENDBRANCH  14  15
ENDBRANCH   6  14
TORSDOF 6
ENDMDL
ENDMDL
