REMARK  Name = No_362-gen_results/8p0m/2024-11-26-14-13-15/
REMARK  0 active torsions:
REMARK  status: ('A' for Active; 'I' for Inactive)
REMARK                            x       y       z     vdW  Elec       q    Type
REMARK                         _______ _______ _______ _____ _____    ______ ____
ROOT
ATOM      1  C   UNL A   1     -28.016  -0.814  28.878  0.00  0.00    -0.000 A 
ATOM      2  C   UNL A   1     -27.064  -0.119  28.608  0.00  0.00    -0.004 A 
ATOM      3  C   UNL A   1     -25.765  -0.390  29.036  0.00  0.00    -0.000 A 
ATOM      4  C   UNL A   1     -25.530  -1.530  29.901  0.00  0.00    -0.000 A 
ATOM      5  C   UNL A   1     -26.658  -2.292  30.203  0.00  0.00    -0.000 A 
ATOM      6  C   UNL A   1     -27.855  -1.956  29.763  0.00  0.00    -0.000 A 
ATOM      7  C   UNL A   1     -24.535   0.413  28.743  0.00  0.00    -0.000 A 
ATOM      8  C   UNL A   1     -23.306   0.037  29.039  0.00  0.00    -0.000 A 
ATOM      9  C   UNL A   1     -22.176   0.828  28.684  0.00  0.00    -0.000 A 
ATOM     10  C   UNL A   1     -22.355   1.829  27.688  0.00  0.00    -0.000 A 
ATOM     11  C   UNL A   1     -24.594   1.495  27.768  0.00  0.00    -0.000 A 
ATOM     12  C   UNL A   1     -25.930   1.849  27.261  0.00  0.00    -0.004 A 
ATOM     13  C   UNL A   1     -23.523   2.199  27.300  0.00  0.00    -0.000 A 
ATOM     14  C   UNL A   1     -27.153   1.056  27.643  0.00  0.00    -0.022 A 
ATOM     15  C   UNL A   1     -28.389   1.373  27.058  0.00  0.00    +0.031 C 
ENDROOT
TORSDOF 0
