MODEL 3620
MODEL 1
REMARK VINA RESULT:    -7.014      0.000      0.000
REMARK INTER + INTRA:         -10.230
REMARK INTER:                  -9.064
REMARK INTRA:                  -1.166
REMARK UNBOUND:                -1.166
REMARK  Name = No_3620-gen_results/8p0m/2024-11-26-14-13-15/
REMARK  5 active torsions:
REMARK  status: ('A' for Active; 'I' for Inactive)
REMARK    1  A    between atoms: C_2  and  C_5
REMARK    2  A    between atoms: C_3  and  C_10
REMARK    3  A    between atoms: C_10  and  C_11
REMARK    4  A    between atoms: C_10  and  C_19
REMARK    5  A    between atoms: C_12  and  C_13
REMARK                            x       y       z     vdW  Elec       q    Type
REMARK                         _______ _______ _______ _____ _____    ______ ____
ROOT
ATOM      1  C   UNL A   1     -23.056   0.963  27.702  0.00  0.00    +0.111 C 
ENDROOT
BRANCH   1   4
ATOM      2  C   UNL A   1     -23.784  -1.159  28.672  0.00  0.00    +0.003 A 
ATOM      3  C   UNL A   1     -23.862  -1.784  29.516  0.00  0.00    +0.080 A 
ATOM      4  C   UNL A   1     -23.353   0.207  28.994  0.00  0.00    -0.013 A 
ATOM      5  C   UNL A   1     -23.255   0.651  30.248  0.00  0.00    -0.004 A 
ATOM      6  C   UNL A   1     -23.448  -0.252  31.249  0.00  0.00    -0.000 A 
ATOM      7  C   UNL A   1     -23.768  -1.519  30.905  0.00  0.00    +0.007 A 
BRANCH   3   8
ATOM      8  C   UNL A   1     -24.281  -3.306  29.316  0.00  0.00    +0.388 C 
ATOM      9  O   UNL A   1     -23.654  -3.883  28.550  0.00  0.00    -0.241 OA
ATOM     10  O   UNL A   1     -25.590  -3.598  29.589  0.00  0.00    -0.241 OA
ENDBRANCH   3   8
ENDBRANCH   1   4
BRANCH   1  11
ATOM     11  C   UNL A   1     -21.797   1.543  27.616  0.00  0.00    +0.326 C 
ATOM     12  F   UNL A   1     -21.538   1.951  26.500  0.00  0.00    -0.198 F 
ATOM     13  F   UNL A   1     -20.863   0.592  27.883  0.00  0.00    -0.198 F 
ENDBRANCH   1  11
BRANCH   1  14
ATOM     14  C   UNL A   1     -23.987   1.016  26.646  0.00  0.00    -0.016 C 
ATOM     15  C   UNL A   1     -25.200   1.659  26.699  0.00  0.00    -0.004 C 
BRANCH  15  16
ATOM     16  C   UNL A   1     -26.116   1.682  25.644  0.00  0.00    -0.000 A 
ATOM     17  C   UNL A   1     -26.982   2.807  25.396  0.00  0.00    -0.000 A 
ATOM     18  C   UNL A   1     -27.900   2.791  24.363  0.00  0.00    -0.000 A 
ATOM     19  C   UNL A   1     -28.209   1.595  23.671  0.00  0.00    -0.000 A 
ATOM     20  C   UNL A   1     -27.543   0.427  24.081  0.00  0.00    -0.000 A 
ATOM     21  C   UNL A   1     -26.586   0.451  25.076  0.00  0.00    -0.000 A 
ENDBRANCH  15  16
ENDBRANCH   1  14
TORSDOF 5
ENDMDL
ENDMDL
