REMARK  Name = No_3620-gen_results/8p0m/2024-11-26-14-13-15/
REMARK  5 active torsions:
REMARK  status: ('A' for Active; 'I' for Inactive)
REMARK    1  A    between atoms: C_2  and  C_5
REMARK    2  A    between atoms: C_3  and  C_10
REMARK    3  A    between atoms: C_10  and  C_11
REMARK    4  A    between atoms: C_10  and  C_19
REMARK    5  A    between atoms: C_12  and  C_13
REMARK                            x       y       z     vdW  Elec       q    Type
REMARK                         _______ _______ _______ _____ _____    ______ ____
ROOT
ATOM      1  C   UNL A   1     -27.313   0.372  26.860  0.00  0.00    +0.111 C 
ENDROOT
BRANCH   1   4
ATOM      2  C   UNL A   1     -28.016  -0.814  28.878  0.00  0.00    +0.003 A 
ATOM      3  C   UNL A   1     -28.469  -0.785  29.829  0.00  0.00    +0.080 A 
ATOM      4  C   UNL A   1     -28.182   0.428  28.113  0.00  0.00    -0.013 A 
ATOM      5  C   UNL A   1     -28.984   1.415  28.515  0.00  0.00    -0.004 A 
ATOM      6  C   UNL A   1     -29.561   1.293  29.742  0.00  0.00    -0.000 A 
ATOM      7  C   UNL A   1     -29.320   0.165  30.445  0.00  0.00    +0.007 A 
BRANCH   3   8
ATOM      8  C   UNL A   1     -28.337  -2.048  30.787  0.00  0.00    +0.388 C 
ATOM      9  O   UNL A   1     -27.351  -2.115  31.366  0.00  0.00    -0.241 OA
ATOM     10  O   UNL A   1     -29.070  -3.145  30.421  0.00  0.00    -0.241 OA
ENDBRANCH   3   8
ENDBRANCH   1   4
BRANCH   1  11
ATOM     11  C   UNL A   1     -27.995   0.290  25.653  0.00  0.00    +0.326 C 
ATOM     12  F   UNL A   1     -27.267   0.413  24.687  0.00  0.00    -0.198 F 
ATOM     13  F   UNL A   1     -28.875   1.323  25.582  0.00  0.00    -0.198 F 
ENDBRANCH   1  11
BRANCH   1  14
ATOM     14  C   UNL A   1     -25.908   0.456  26.931  0.00  0.00    -0.016 C 
ATOM     15  C   UNL A   1     -25.150   0.048  28.001  0.00  0.00    -0.004 C 
BRANCH  15  16
ATOM     16  C   UNL A   1     -23.758   0.159  28.056  0.00  0.00    -0.000 A 
ATOM     17  C   UNL A   1     -22.985  -0.348  29.162  0.00  0.00    -0.000 A 
ATOM     18  C   UNL A   1     -21.612  -0.199  29.205  0.00  0.00    -0.000 A 
ATOM     19  C   UNL A   1     -20.937   0.667  28.311  0.00  0.00    -0.000 A 
ATOM     20  C   UNL A   1     -21.723   1.367  27.380  0.00  0.00    -0.000 A 
ATOM     21  C   UNL A   1     -23.089   1.178  27.299  0.00  0.00    -0.000 A 
ENDBRANCH  15  16
ENDBRANCH   1  14
TORSDOF 5
