REMARK  Name = No_3621-gen_results/8p0m/2024-11-26-14-13-15/
REMARK  6 active torsions:
REMARK  status: ('A' for Active; 'I' for Inactive)
REMARK    1  A    between atoms: C_1  and  C_8
REMARK    2  A    between atoms: C_5  and  C_10
REMARK    3  A    between atoms: C_8  and  C_9
REMARK    4  A    between atoms: C_9  and  C_13
REMARK    5  A    between atoms: C_9  and  O_14
REMARK    6  A    between atoms: O_14  and  C_17
REMARK                            x       y       z     vdW  Elec       q    Type
REMARK                         _______ _______ _______ _____ _____    ______ ____
ROOT
ATOM      1  C   UNL A   1     -28.016  -0.814  28.878  0.00  0.00    -0.030 C 
ATOM      2  C   UNL A   1     -27.064  -0.119  28.608  0.00  0.00    -0.048 C 
ATOM      3  C   UNL A   1     -26.972   0.714  27.506  0.00  0.00    +0.022 C 
ATOM      4  C   UNL A   1     -25.821   1.491  27.116  0.00  0.00    +0.016 C 
ATOM      5  C   UNL A   1     -24.656   1.424  27.918  0.00  0.00    +0.104 C 
ATOM      6  C   UNL A   1     -24.685   0.590  29.066  0.00  0.00    +0.016 C 
ATOM      7  C   UNL A   1     -25.810  -0.127  29.334  0.00  0.00    +0.022 C 
ENDROOT
BRANCH   5   8
ATOM      8  C   UNL A   1     -23.468   2.204  27.601  0.00  0.00    +0.364 C 
ATOM      9  O   UNL A   1     -22.560   2.219  28.483  0.00  0.00    -0.246 OA
ATOM     10  O   UNL A   1     -23.275   2.612  26.387  0.00  0.00    -0.246 OA
ENDBRANCH   5   8
BRANCH   1  11
ATOM     11  C   UNL A   1     -29.219  -0.042  29.313  0.00  0.00    +0.081 C 
BRANCH  11  12
ATOM     12  C   UNL A   1     -30.280  -0.807  29.836  0.00  0.00    +0.272 C 
BRANCH  12  13
ATOM     13  C   UNL A   1     -30.464  -0.798  31.162  0.00  0.00    +0.404 C 
ATOM     14  O   UNL A   1     -30.271  -1.908  31.771  0.00  0.00    -0.242 OA
ATOM     15  O   UNL A   1     -31.198   0.073  31.792  0.00  0.00    -0.242 OA
ENDBRANCH  12  13
BRANCH  12  16
ATOM     16  O   UNL A   1     -31.546  -0.415  29.197  0.00  0.00    -0.460 OA
BRANCH  16  17
ATOM     17  C   UNL A   1     -31.826   0.520  28.772  0.00  0.00    +0.234 C 
ATOM     18  C   UNL A   1     -32.826   0.712  27.993  0.00  0.00    +0.315 C 
ATOM     19  F   UNL A   1     -33.653  -0.054  27.992  0.00  0.00    -0.169 F 
ATOM     20  F   UNL A   1     -33.440   1.965  28.183  0.00  0.00    -0.169 F 
ENDBRANCH  16  17
ENDBRANCH  12  16
ENDBRANCH  11  12
ENDBRANCH   1  11
TORSDOF 6
