MODEL 3621
MODEL 1
REMARK VINA RESULT:    -6.275      0.000      0.000
REMARK INTER + INTRA:          -9.073
REMARK INTER:                  -8.475
REMARK INTRA:                  -0.598
REMARK UNBOUND:                -0.598
REMARK  Name = No_3621-gen_results/8p0m/2024-11-26-14-13-15/
REMARK  6 active torsions:
REMARK  status: ('A' for Active; 'I' for Inactive)
REMARK    1  A    between atoms: C_1  and  C_8
REMARK    2  A    between atoms: C_5  and  C_10
REMARK    3  A    between atoms: C_8  and  C_9
REMARK    4  A    between atoms: C_9  and  C_13
REMARK    5  A    between atoms: C_9  and  O_14
REMARK    6  A    between atoms: O_14  and  C_17
REMARK                            x       y       z     vdW  Elec       q    Type
REMARK                         _______ _______ _______ _____ _____    ______ ____
ROOT
ATOM      1  C   UNL A   1     -24.085   0.558  27.384  0.00  0.00    -0.030 C 
ATOM      2  C   UNL A   1     -25.005   0.621  26.602  0.00  0.00    -0.048 C 
ATOM      3  C   UNL A   1     -25.248  -0.283  25.582  0.00  0.00    +0.022 C 
ATOM      4  C   UNL A   1     -26.288  -0.189  24.586  0.00  0.00    +0.016 C 
ATOM      5  C   UNL A   1     -27.168   0.920  24.629  0.00  0.00    +0.104 C 
ATOM      6  C   UNL A   1     -26.976   1.883  25.654  0.00  0.00    +0.016 C 
ATOM      7  C   UNL A   1     -25.947   1.720  26.530  0.00  0.00    +0.022 C 
ENDROOT
BRANCH   5   8
ATOM      8  C   UNL A   1     -28.258   1.064  23.675  0.00  0.00    +0.364 C 
ATOM      9  O   UNL A   1     -28.775  -0.013  23.254  0.00  0.00    -0.246 OA
ATOM     10  O   UNL A   1     -28.810   2.223  23.504  0.00  0.00    -0.246 OA
ENDBRANCH   5   8
BRANCH   1  11
ATOM     11  C   UNL A   1     -24.202  -0.569  28.358  0.00  0.00    +0.081 C 
BRANCH  11  12
ATOM     12  C   UNL A   1     -23.032  -1.329  28.557  0.00  0.00    +0.272 C 
BRANCH  12  13
ATOM     13  C   UNL A   1     -22.059  -0.795  29.305  0.00  0.00    +0.404 C 
ATOM     14  O   UNL A   1     -20.860  -0.975  28.892  0.00  0.00    -0.242 OA
ATOM     15  O   UNL A   1     -22.185  -0.502  30.567  0.00  0.00    -0.242 OA
ENDBRANCH  12  13
BRANCH  12  16
ATOM     16  O   UNL A   1     -23.376  -2.643  29.124  0.00  0.00    -0.460 OA
BRANCH  16  17
ATOM     17  C   UNL A   1     -24.289  -3.186  29.062  0.00  0.00    +0.234 C 
ATOM     18  C   UNL A   1     -24.449  -4.301  28.449  0.00  0.00    +0.315 C 
ATOM     19  F   UNL A   1     -23.534  -4.921  28.226  0.00  0.00    -0.169 F 
ATOM     20  F   UNL A   1     -25.366  -5.156  29.090  0.00  0.00    -0.169 F 
ENDBRANCH  16  17
ENDBRANCH  12  16
ENDBRANCH  11  12
ENDBRANCH   1  11
TORSDOF 6
ENDMDL
ENDMDL
