MODEL 3622
MODEL 1
REMARK VINA RESULT:    -5.114      0.000      0.000
REMARK INTER + INTRA:          -5.811
REMARK INTER:                  -5.712
REMARK INTRA:                  -0.099
REMARK UNBOUND:                -0.099
REMARK  Name = No_3622-gen_results/8p0m/2024-11-26-14-13-15/
REMARK  2 active torsions:
REMARK  status: ('A' for Active; 'I' for Inactive)
REMARK    1  A    between atoms: C_6  and  C_7
REMARK    2  A    between atoms: C_7  and  C_9
REMARK                            x       y       z     vdW  Elec       q    Type
REMARK                         _______ _______ _______ _____ _____    ______ ____
ROOT
ATOM      1  C   UNL A   1     -24.109  -3.936  28.617  0.00  0.00    -0.003 A 
ATOM      2  C   UNL A   1     -24.705  -4.945  28.917  0.00  0.00    -0.000 A 
ATOM      3  C   UNL A   1     -25.944  -4.888  29.545  0.00  0.00    -0.000 A 
ATOM      4  C   UNL A   1     -26.537  -3.624  29.899  0.00  0.00    -0.000 A 
ATOM      5  C   UNL A   1     -25.770  -2.509  29.537  0.00  0.00    -0.003 A 
ATOM      6  C   UNL A   1     -24.596  -2.618  28.959  0.00  0.00    -0.000 A 
ENDROOT
BRANCH   6   7
ATOM      7  C   UNL A   1     -23.860  -1.363  28.677  0.00  0.00    +0.166 C 
ATOM      8 CL   UNL A   1     -24.226  -0.244  27.636  0.00  0.00    -0.102 Cl
BRANCH   7   9
ATOM      9  C   UNL A   1     -22.663  -1.113  29.507  0.00  0.00    +0.228 C 
ATOM     10  O   UNL A   1     -21.587  -1.104  28.916  0.00  0.00    -0.287 OA
ENDBRANCH   7   9
ENDBRANCH   6   7
TORSDOF 2
ENDMDL
ENDMDL
