REMARK  Name = No_3622-gen_results/8p0m/2024-11-26-14-13-15/
REMARK  2 active torsions:
REMARK  status: ('A' for Active; 'I' for Inactive)
REMARK    1  A    between atoms: C_6  and  C_7
REMARK    2  A    between atoms: C_7  and  C_9
REMARK                            x       y       z     vdW  Elec       q    Type
REMARK                         _______ _______ _______ _____ _____    ______ ____
ROOT
ATOM      1  C   UNL A   1     -28.016  -0.814  28.878  0.00  0.00    -0.003 A 
ATOM      2  C   UNL A   1     -27.064  -0.119  28.608  0.00  0.00    -0.000 A 
ATOM      3  C   UNL A   1     -25.792  -0.430  29.076  0.00  0.00    -0.000 A 
ATOM      4  C   UNL A   1     -25.576  -1.565  29.936  0.00  0.00    -0.000 A 
ATOM      5  C   UNL A   1     -26.735  -2.300  30.217  0.00  0.00    -0.003 A 
ATOM      6  C   UNL A   1     -27.918  -1.954  29.763  0.00  0.00    -0.000 A 
ENDROOT
BRANCH   6   7
ATOM      7  C   UNL A   1     -29.073  -2.784  30.178  0.00  0.00    +0.166 C 
ATOM      8 CL   UNL A   1     -29.092  -4.325  30.485  0.00  0.00    -0.102 Cl
BRANCH   7   9
ATOM      9  C   UNL A   1     -30.351  -2.066  30.369  0.00  0.00    +0.228 C 
ATOM     10  O   UNL A   1     -31.302  -2.469  29.707  0.00  0.00    -0.287 OA
ENDBRANCH   7   9
ENDBRANCH   6   7
TORSDOF 2
