MODEL 3623
MODEL 1
REMARK VINA RESULT:    -6.945      0.000      0.000
REMARK INTER + INTRA:         -12.576
REMARK INTER:                  -8.976
REMARK INTRA:                  -3.601
REMARK UNBOUND:                -3.601
REMARK  Name = No_3623-gen_results/8p0m/2024-11-26-14-13-15/
REMARK  5 active torsions:
REMARK  status: ('A' for Active; 'I' for Inactive)
REMARK    1  A    between atoms: C_9  and  C_10
REMARK    2  A    between atoms: C_10  and  C_11
REMARK    3  A    between atoms: N_12  and  C_13
REMARK    4  A    between atoms: C_13  and  C_14
REMARK    5  A    between atoms: C_14  and  C_15
REMARK                            x       y       z     vdW  Elec       q    Type
REMARK                         _______ _______ _______ _____ _____    ______ ____
ROOT
ATOM      1  C   UNL A   1     -26.046  -0.685  26.331  0.00  0.00    -0.002 A 
ATOM      2  C   UNL A   1     -26.023  -0.144  25.428  0.00  0.00    -0.000 A 
ATOM      3  C   UNL A   1     -24.915  -0.402  27.214  0.00  0.00    +0.008 A 
ATOM      4  C   UNL A   1     -24.778  -0.957  28.579  0.00  0.00    +0.155 C 
ATOM      5  C   UNL A   1     -25.120   0.834  24.837  0.00  0.00    -0.000 A 
ATOM      6  C   UNL A   1     -24.031   1.119  25.635  0.00  0.00    -0.001 A 
ATOM      7  C   UNL A   1     -23.930   0.554  26.851  0.00  0.00    -0.005 A 
ATOM      8  C   UNL A   1     -23.487  -0.927  29.130  0.00  0.00    -0.017 C 
ATOM      9  C   UNL A   1     -23.369  -1.032  30.466  0.00  0.00    -0.041 C 
ATOM     10  O   UNL A   1     -25.322  -2.209  28.643  0.00  0.00    -0.347 OA
ATOM     11  C   UNL A   1     -24.663  -3.069  29.453  0.00  0.00    +0.147 C 
ATOM     12  C   UNL A   1     -24.059  -2.390  30.645  0.00  0.00    +0.054 C 
ATOM     13  C   UNL A   1     -22.991   2.124  25.169  0.00  0.00    -0.000 A 
ATOM     14  C   UNL A   1     -22.124   2.490  25.900  0.00  0.00    -0.000 A 
ATOM     15  C   UNL A   1     -21.999   1.846  27.266  0.00  0.00    -0.004 A 
ATOM     16  C   UNL A   1     -22.885   0.963  27.682  0.00  0.00    -0.019 A 
ATOM     17  C   UNL A   1     -22.655   0.150  28.897  0.00  0.00    +0.043 C 
ATOM     18  C   UNL A   1     -21.044  -0.414  28.714  0.00  0.00    +0.009 C 
ENDROOT
BRANCH   9  19
ATOM     19  C   UNL A   1     -23.278  -0.179  31.320  0.00  0.00    +0.068 C 
BRANCH  19  20
ATOM     20  C   UNL A   1     -24.319   0.778  31.623  0.00  0.00    +0.071 C 
ATOM     21  N   UNL A   1     -25.496   0.702  31.357  0.00  0.00    -0.273 NA
BRANCH  21  22
ATOM     22  C   UNL A   1     -26.160   1.737  30.711  0.00  0.00    +0.130 C 
BRANCH  22  23
ATOM     23  C   UNL A   1     -25.399   2.583  29.798  0.00  0.00    +0.053 C 
BRANCH  23  24
ATOM     24  C   UNL A   1     -26.276   2.938  28.678  0.00  0.00    -0.020 A 
ATOM     25  C   UNL A   1     -27.158   2.413  28.263  0.00  0.00    -0.004 A 
ATOM     26  C   UNL A   1     -27.697   2.659  26.925  0.00  0.00    -0.000 A 
ATOM     27  C   UNL A   1     -26.806   3.579  26.213  0.00  0.00    -0.000 A 
ATOM     28  C   UNL A   1     -25.792   4.165  26.705  0.00  0.00    -0.000 A 
ATOM     29  C   UNL A   1     -25.359   3.826  27.847  0.00  0.00    -0.004 A 
ENDBRANCH  23  24
ENDBRANCH  22  23
ENDBRANCH  21  22
ENDBRANCH  19  20
ENDBRANCH   9  19
TORSDOF 5
ENDMDL
ENDMDL
