REMARK  Name = No_3623-gen_results/8p0m/2024-11-26-14-13-15/
REMARK  5 active torsions:
REMARK  status: ('A' for Active; 'I' for Inactive)
REMARK    1  A    between atoms: C_9  and  C_10
REMARK    2  A    between atoms: C_10  and  C_11
REMARK    3  A    between atoms: N_12  and  C_13
REMARK    4  A    between atoms: C_13  and  C_14
REMARK    5  A    between atoms: C_14  and  C_15
REMARK                            x       y       z     vdW  Elec       q    Type
REMARK                         _______ _______ _______ _____ _____    ______ ____
ROOT
ATOM      1  C   UNL A   1     -28.016  -0.814  28.878  0.00  0.00    -0.002 A 
ATOM      2  C   UNL A   1     -28.469  -0.785  29.829  0.00  0.00    -0.000 A 
ATOM      3  C   UNL A   1     -27.087   0.290  28.638  0.00  0.00    +0.008 A 
ATOM      4  C   UNL A   1     -26.252   0.411  27.422  0.00  0.00    +0.155 C 
ATOM      5  C   UNL A   1     -28.391   0.104  30.980  0.00  0.00    -0.000 A 
ATOM      6  C   UNL A   1     -27.533   1.167  30.787  0.00  0.00    -0.001 A 
ATOM      7  C   UNL A   1     -26.828   1.256  29.645  0.00  0.00    -0.005 A 
ATOM      8  C   UNL A   1     -25.733   1.689  27.155  0.00  0.00    -0.017 C 
ATOM      9  C   UNL A   1     -24.674   1.780  26.331  0.00  0.00    -0.041 C 
ATOM     10  O   UNL A   1     -26.908  -0.100  26.338  0.00  0.00    -0.347 OA
ATOM     11  C   UNL A   1     -26.686   0.564  25.180  0.00  0.00    +0.147 C 
ATOM     12  C   UNL A   1     -25.298   1.123  25.093  0.00  0.00    +0.054 C 
ATOM     13  C   UNL A   1     -27.331   2.190  31.893  0.00  0.00    -0.000 A 
ATOM     14  C   UNL A   1     -26.491   3.030  31.802  0.00  0.00    -0.000 A 
ATOM     15  C   UNL A   1     -25.705   3.142  30.512  0.00  0.00    -0.004 A 
ATOM     16  C   UNL A   1     -25.876   2.272  29.537  0.00  0.00    -0.019 A 
ATOM     17  C   UNL A   1     -25.305   2.496  28.190  0.00  0.00    +0.043 C 
ATOM     18  C   UNL A   1     -25.715   4.126  27.838  0.00  0.00    +0.009 C 
ENDROOT
BRANCH   9  19
ATOM     19  C   UNL A   1     -23.489   1.829  26.570  0.00  0.00    +0.068 C 
BRANCH  19  20
ATOM     20  C   UNL A   1     -22.928   1.781  27.902  0.00  0.00    +0.071 C 
ATOM     21  N   UNL A   1     -22.194   0.939  28.367  0.00  0.00    -0.273 NA
BRANCH  21  22
ATOM     22  C   UNL A   1     -22.476   0.323  29.579  0.00  0.00    +0.130 C 
BRANCH  22  23
ATOM     23  C   UNL A   1     -22.293  -1.121  29.679  0.00  0.00    +0.053 C 
BRANCH  23  24
ATOM     24  C   UNL A   1     -23.551  -1.762  29.282  0.00  0.00    -0.020 A 
ATOM     25  C   UNL A   1     -24.599  -1.432  29.419  0.00  0.00    -0.004 A 
ATOM     26  C   UNL A   1     -25.752  -2.328  29.334  0.00  0.00    -0.000 A 
ATOM     27  C   UNL A   1     -25.276  -3.707  29.189  0.00  0.00    -0.000 A 
ATOM     28  C   UNL A   1     -24.067  -4.066  29.042  0.00  0.00    -0.000 A 
ATOM     29  C   UNL A   1     -23.133  -3.225  29.209  0.00  0.00    -0.004 A 
ENDBRANCH  23  24
ENDBRANCH  22  23
ENDBRANCH  21  22
ENDBRANCH  19  20
ENDBRANCH   9  19
TORSDOF 5
