REMARK  Name = No_3624-gen_results/8p0m/2024-11-26-14-13-15/
REMARK  3 active torsions:
REMARK  status: ('A' for Active; 'I' for Inactive)
REMARK    1  A    between atoms: C_2  and  N_7
REMARK    2  A    between atoms: C_9  and  C_19
REMARK    3  A    between atoms: C_13  and  C_15
REMARK                            x       y       z     vdW  Elec       q    Type
REMARK                         _______ _______ _______ _____ _____    ______ ____
ROOT
ATOM      1  N   UNL A   1     -29.965  -0.735  29.890  0.00  0.00    -0.285 N 
ATOM      2  C   UNL A   1     -30.534  -0.031  29.006  0.00  0.00    +0.072 C 
ATOM      3  C   UNL A   1     -31.016   0.955  28.905  0.00  0.00    +0.094 C 
ATOM      4  C   UNL A   1     -31.114   1.783  30.182  0.00  0.00    +0.004 C 
ATOM      5  C   UNL A   1     -31.071   1.291  31.273  0.00  0.00    -0.016 C 
ATOM      6  C   UNL A   1     -30.655  -0.950  31.121  0.00  0.00    +0.108 C 
ATOM      7  C   UNL A   1     -30.806   0.202  31.929  0.00  0.00    +0.137 C 
ENDROOT
BRANCH   1   9
ATOM      8  C   UNL A   1     -28.016  -0.814  28.878  0.00  0.00    +0.026 A 
ATOM      9  C   UNL A   1     -28.469  -0.785  29.829  0.00  0.00    +0.052 A 
ATOM     10  C   UNL A   1     -26.546  -0.876  28.850  0.00  0.00    +0.059 A 
ATOM     11  C   UNL A   1     -25.804  -1.032  30.057  0.00  0.00    +0.011 A 
ATOM     12  C   UNL A   1     -27.944  -0.987  31.207  0.00  0.00    +0.015 A 
ATOM     13  C   UNL A   1     -26.582  -1.039  31.223  0.00  0.00    +0.002 A 
ATOM     14 CL   UNL A   1     -25.554  -0.760  27.414  0.00  0.00    -0.082 Cl
ENDBRANCH   1   9
BRANCH   7  15
ATOM     15  C   UNL A   1     -30.990  -0.125  33.341  0.00  0.00    +0.403 C 
ATOM     16  F   UNL A   1     -30.167   0.411  33.980  0.00  0.00    -0.170 F 
ATOM     17  F   UNL A   1     -32.219   0.318  33.677  0.00  0.00    -0.170 F 
ATOM     18  F   UNL A   1     -30.900  -1.449  33.562  0.00  0.00    -0.170 F 
ENDBRANCH   7  15
BRANCH   3  19
ATOM     19  C   UNL A   1     -31.441   1.677  27.713  0.00  0.00    +0.389 C 
ATOM     20  O   UNL A   1     -31.272   2.750  27.448  0.00  0.00    -0.240 OA
ATOM     21  O   UNL A   1     -32.310   0.931  27.009  0.00  0.00    -0.240 OA
ENDBRANCH   3  19
TORSDOF 3
