REMARK  Name = No_3625-gen_results/8p0m/2024-11-26-14-13-15/
REMARK  1 active torsions:
REMARK  status: ('A' for Active; 'I' for Inactive)
REMARK    1  A    between atoms: C_5  and  N_7
REMARK                            x       y       z     vdW  Elec       q    Type
REMARK                         _______ _______ _______ _____ _____    ______ ____
ROOT
ATOM      1  C   UNL A   1     -28.016  -0.814  28.878  0.00  0.00    +0.002 A 
ATOM      2  C   UNL A   1     -27.064  -0.119  28.608  0.00  0.00    +0.000 A 
ATOM      3  C   UNL A   1     -26.972   0.714  27.506  0.00  0.00    +0.002 A 
ATOM      4  C   UNL A   1     -28.105   0.774  26.642  0.00  0.00    +0.019 A 
ATOM      5  C   UNL A   1     -29.201   0.104  27.053  0.00  0.00    +0.086 A 
ATOM      6  C   UNL A   1     -29.210  -0.603  28.185  0.00  0.00    +0.019 A 
ENDROOT
BRANCH   5   7
ATOM      7  N   UNL A   1     -30.308   0.222  26.222  0.00  0.00    -0.193 NA
ATOM      8  C   UNL A   1     -31.361  -0.404  26.503  0.00  0.00    +0.366 C 
ATOM      9  F   UNL A   1     -32.170  -0.656  25.568  0.00  0.00    -0.150 F 
ATOM     10  F   UNL A   1     -31.360  -1.517  27.243  0.00  0.00    -0.150 F 
ENDBRANCH   5   7
TORSDOF 1
