MODEL 3625
MODEL 1
REMARK VINA RESULT:    -5.106      0.000      0.000
REMARK INTER + INTRA:          -5.666
REMARK INTER:                  -5.405
REMARK INTRA:                  -0.261
REMARK UNBOUND:                -0.261
REMARK  Name = No_3625-gen_results/8p0m/2024-11-26-14-13-15/
REMARK  1 active torsions:
REMARK  status: ('A' for Active; 'I' for Inactive)
REMARK    1  A    between atoms: C_5  and  N_7
REMARK                            x       y       z     vdW  Elec       q    Type
REMARK                         _______ _______ _______ _____ _____    ______ ____
ROOT
ATOM      1  C   UNL A   1     -26.507  -3.775  29.956  0.00  0.00    +0.002 A 
ATOM      2  C   UNL A   1     -26.151  -4.861  29.561  0.00  0.00    +0.000 A 
ATOM      3  C   UNL A   1     -24.941  -5.128  28.943  0.00  0.00    +0.002 A 
ATOM      4  C   UNL A   1     -24.037  -4.035  28.789  0.00  0.00    +0.019 A 
ATOM      5  C   UNL A   1     -24.403  -2.876  29.372  0.00  0.00    +0.086 A 
ATOM      6  C   UNL A   1     -25.560  -2.750  30.024  0.00  0.00    +0.019 A 
ENDROOT
BRANCH   5   7
ATOM      7  N   UNL A   1     -23.481  -1.843  29.254  0.00  0.00    -0.193 NA
ATOM      8  C   UNL A   1     -23.773  -0.829  28.572  0.00  0.00    +0.366 C 
ATOM      9  F   UNL A   1     -22.829  -0.134  28.105  0.00  0.00    -0.150 F 
ATOM     10  F   UNL A   1     -24.673  -0.862  27.584  0.00  0.00    -0.150 F 
ENDBRANCH   5   7
TORSDOF 1
ENDMDL
ENDMDL
