MODEL 3626
MODEL 1
REMARK VINA RESULT:    -4.923      0.000      0.000
REMARK INTER + INTRA:          -5.284
REMARK INTER:                  -5.211
REMARK INTRA:                  -0.073
REMARK UNBOUND:                -0.073
REMARK  Name = No_3626-gen_results/8p0m/2024-11-26-14-13-15/
REMARK  1 active torsions:
REMARK  status: ('A' for Active; 'I' for Inactive)
REMARK    1  A    between atoms: C_2  and  C_7
REMARK                            x       y       z     vdW  Elec       q    Type
REMARK                         _______ _______ _______ _____ _____    ______ ____
ROOT
ATOM      1  C   UNL A   1     -23.895  -3.539  28.588  0.00  0.00    -0.000 A 
ATOM      2  C   UNL A   1     -24.676  -2.689  28.949  0.00  0.00    -0.000 A 
ATOM      3  C   UNL A   1     -25.880  -3.031  29.555  0.00  0.00    -0.000 A 
ATOM      4  C   UNL A   1     -26.256  -4.410  29.729  0.00  0.00    -0.000 A 
ATOM      5  C   UNL A   1     -25.306  -5.327  29.261  0.00  0.00    -0.000 A 
ATOM      6  C   UNL A   1     -24.190  -4.952  28.680  0.00  0.00    -0.000 A 
ENDROOT
BRANCH   2   7
ATOM      7  C   UNL A   1     -24.465  -1.222  28.825  0.00  0.00    -0.005 C 
ATOM      8  C   UNL A   1     -23.644  -0.563  29.564  0.00  0.00    -0.026 C 
ATOM      9  C   UNL A   1     -23.389  -1.083  30.974  0.00  0.00    +0.031 C 
ENDBRANCH   2   7
TORSDOF 1
ENDMDL
ENDMDL
