MODEL 3627
MODEL 1
REMARK VINA RESULT:    -4.503      0.000      0.000
REMARK INTER + INTRA:          -4.503
REMARK INTER:                  -4.503
REMARK INTRA:                   0.000
REMARK UNBOUND:                 0.000
REMARK  Name = No_3627-gen_results/8p0m/2024-11-26-14-13-15/
REMARK  0 active torsions:
REMARK  status: ('A' for Active; 'I' for Inactive)
REMARK                            x       y       z     vdW  Elec       q    Type
REMARK                         _______ _______ _______ _____ _____    ______ ____
ROOT
ATOM      1  C   UNL A   1     -26.519  -3.785  29.914  0.00  0.00    +0.001 A 
ATOM      2  C   UNL A   1     -26.219  -4.755  29.632  0.00  0.00    +0.000 A 
ATOM      3  C   UNL A   1     -25.514  -2.719  29.775  0.00  0.00    +0.011 A 
ATOM      4  C   UNL A   1     -24.258  -2.982  29.156  0.00  0.00    +0.058 A 
ATOM      5  C   UNL A   1     -24.032  -4.284  28.784  0.00  0.00    +0.011 A 
ATOM      6  C   UNL A   1     -24.981  -5.229  28.958  0.00  0.00    +0.001 A 
ATOM      7 CL   UNL A   1     -23.111  -1.785  28.977  0.00  0.00    -0.082 Cl
ENDROOT
TORSDOF 0
ENDMDL
ENDMDL
