MODEL 3628
MODEL 1
REMARK VINA RESULT:    -4.274      0.000      0.000
REMARK INTER + INTRA:          -4.274
REMARK INTER:                  -4.274
REMARK INTRA:                   0.000
REMARK UNBOUND:                 0.000
REMARK  Name = No_3628-gen_results/8p0m/2024-11-26-14-13-15/
REMARK  0 active torsions:
REMARK  status: ('A' for Active; 'I' for Inactive)
REMARK                            x       y       z     vdW  Elec       q    Type
REMARK                         _______ _______ _______ _____ _____    ______ ____
ROOT
ATOM      1  C   UNL A   1     -26.069  -4.859  29.653  0.00  0.00    +0.000 A 
ATOM      2  C   UNL A   1     -26.214  -3.660  29.718  0.00  0.00    +0.000 A 
ATOM      3  C   UNL A   1     -25.253  -2.751  29.321  0.00  0.00    +0.000 A 
ATOM      4  C   UNL A   1     -24.042  -3.258  28.771  0.00  0.00    +0.000 A 
ATOM      5  C   UNL A   1     -23.997  -4.595  28.562  0.00  0.00    +0.000 A 
ATOM      6  C   UNL A   1     -24.984  -5.386  28.936  0.00  0.00    +0.000 A 
ENDROOT
TORSDOF 0
ENDMDL
ENDMDL
