MODEL 362
MODEL 1
REMARK VINA RESULT:    -6.649      0.000      0.000
REMARK INTER + INTRA:          -6.649
REMARK INTER:                  -6.649
REMARK INTRA:                   0.000
REMARK UNBOUND:                 0.000
REMARK  Name = No_362-gen_results/8p0m/2024-11-26-14-13-15/
REMARK  0 active torsions:
REMARK  status: ('A' for Active; 'I' for Inactive)
REMARK                            x       y       z     vdW  Elec       q    Type
REMARK                         _______ _______ _______ _____ _____    ______ ____
ROOT
ATOM      1  C   UNL A   1     -24.859   0.777  30.716  0.00  0.00    -0.000 A 
ATOM      2  C   UNL A   1     -25.179  -0.348  30.409  0.00  0.00    -0.004 A 
ATOM      3  C   UNL A   1     -24.334  -1.236  29.743  0.00  0.00    -0.000 A 
ATOM      4  C   UNL A   1     -23.017  -0.787  29.336  0.00  0.00    -0.000 A 
ATOM      5  C   UNL A   1     -22.697   0.523  29.692  0.00  0.00    -0.000 A 
ATOM      6  C   UNL A   1     -23.563   1.300  30.314  0.00  0.00    -0.000 A 
ATOM      7  C   UNL A   1     -24.650  -2.642  29.333  0.00  0.00    -0.000 A 
ATOM      8  C   UNL A   1     -23.771  -3.495  28.844  0.00  0.00    -0.000 A 
ATOM      9  C   UNL A   1     -24.129  -4.835  28.522  0.00  0.00    -0.000 A 
ATOM     10  C   UNL A   1     -25.333  -5.351  29.080  0.00  0.00    -0.000 A 
ATOM     11  C   UNL A   1     -25.875  -3.275  29.806  0.00  0.00    -0.000 A 
ATOM     12  C   UNL A   1     -26.826  -2.409  30.521  0.00  0.00    -0.004 A 
ATOM     13  C   UNL A   1     -26.205  -4.587  29.634  0.00  0.00    -0.000 A 
ATOM     14  C   UNL A   1     -26.496  -0.976  30.848  0.00  0.00    -0.022 A 
ATOM     15  C   UNL A   1     -27.395  -0.219  31.615  0.00  0.00    +0.031 C 
ENDROOT
TORSDOF 0
ENDMDL
ENDMDL
