REMARK  Name = No_363-gen_results/8p0m/2024-11-26-14-13-15/
REMARK  5 active torsions:
REMARK  status: ('A' for Active; 'I' for Inactive)
REMARK    1  A    between atoms: C_4  and  C_11
REMARK    2  A    between atoms: C_7  and  O_16
REMARK    3  A    between atoms: C_11  and  C_13
REMARK    4  A    between atoms: O_16  and  C_17
REMARK    5  A    between atoms: C_17  and  C_18
REMARK                            x       y       z     vdW  Elec       q    Type
REMARK                         _______ _______ _______ _____ _____    ______ ____
ROOT
ATOM      1  C   UNL A   1     -28.016  -0.814  28.878  0.00  0.00    +0.037 A 
ATOM      2  C   UNL A   1     -27.064  -0.119  28.608  0.00  0.00    +0.003 A 
ATOM      3  C   UNL A   1     -25.765  -0.390  29.036  0.00  0.00    -0.004 A 
ATOM      4  C   UNL A   1     -24.552   0.406  28.765  0.00  0.00    -0.019 A 
ATOM      5  C   UNL A   1     -23.230   0.118  29.258  0.00  0.00    -0.004 A 
ATOM      6  C   UNL A   1     -23.094  -1.131  29.873  0.00  0.00    -0.000 A 
ATOM      7  C   UNL A   1     -27.798  -1.934  29.856  0.00  0.00    +0.139 A 
ATOM      8  C   UNL A   1     -26.542  -2.327  30.258  0.00  0.00    +0.037 A 
ATOM      9  C   UNL A   1     -25.451  -1.552  29.908  0.00  0.00    +0.003 A 
ATOM     10  C   UNL A   1     -24.156  -1.910  30.281  0.00  0.00    +0.000 A 
ENDROOT
BRANCH   4  11
ATOM     11  C   UNL A   1     -24.645   1.658  27.946  0.00  0.00    +0.069 C 
ATOM     12  C   UNL A   1     -25.076   1.579  26.699  0.00  0.00    +0.009 C 
BRANCH  11  13
ATOM     13  C   UNL A   1     -24.331   2.903  28.616  0.00  0.00    +0.234 C 
ATOM     14 CL   UNL A   1     -24.746   4.303  27.692  0.00  0.00    -0.079 Cl
ATOM     15  O   UNL A   1     -24.829   3.075  29.840  0.00  0.00    -0.205 OA
ENDBRANCH  11  13
ENDBRANCH   4  11
BRANCH   7  16
ATOM     16  O   UNL A   1     -28.925  -2.642  30.153  0.00  0.00    -0.471 OA
BRANCH  16  17
ATOM     17  C   UNL A   1     -29.986  -2.025  30.694  0.00  0.00    +0.232 C 
BRANCH  17  18
ATOM     18  C   UNL A   1     -30.547  -2.794  31.703  0.00  0.00    +0.016 C 
ATOM     19  C   UNL A   1     -29.983  -3.917  32.102  0.00  0.00    -0.027 C 
ATOM     20  C   UNL A   1     -29.406  -4.684  31.156  0.00  0.00    +0.030 C 
ENDBRANCH  17  18
ENDBRANCH  16  17
ENDBRANCH   7  16
TORSDOF 5
