MODEL 3630
MODEL 1
REMARK VINA RESULT:    -4.492      0.000      0.000
REMARK INTER + INTRA:          -4.492
REMARK INTER:                  -4.492
REMARK INTRA:                   0.000
REMARK UNBOUND:                 0.000
REMARK  Name = No_3630-gen_results/8p0m/2024-11-26-14-13-15/
REMARK  0 active torsions:
REMARK  status: ('A' for Active; 'I' for Inactive)
REMARK                            x       y       z     vdW  Elec       q    Type
REMARK                         _______ _______ _______ _____ _____    ______ ____
ROOT
ATOM      1  C   UNL A   1      -9.235  -9.231  20.056  0.00  0.00    +0.011 A 
ATOM      2  C   UNL A   1      -8.240  -9.911  19.956  0.00  0.00    +0.058 A 
ATOM      3  C   UNL A   1      -8.034 -10.724  18.846  0.00  0.00    +0.011 A 
ATOM      4  C   UNL A   1      -9.023 -10.816  17.803  0.00  0.00    +0.001 A 
ATOM      5  C   UNL A   1     -10.152 -10.014  18.010  0.00  0.00    +0.000 A 
ATOM      6  C   UNL A   1     -10.306  -9.276  19.086  0.00  0.00    +0.001 A 
ATOM      7 CL   UNL A   1      -6.987  -9.962  21.123  0.00  0.00    -0.082 Cl
ENDROOT
TORSDOF 0
ENDMDL
ENDMDL
