MODEL 3631
MODEL 1
REMARK VINA RESULT:    -5.241      0.000      0.000
REMARK INTER + INTRA:          -5.241
REMARK INTER:                  -5.241
REMARK INTRA:                   0.000
REMARK UNBOUND:                 0.000
REMARK  Name = No_3631-gen_results/8p0m/2024-11-26-14-13-15/
REMARK  0 active torsions:
REMARK  status: ('A' for Active; 'I' for Inactive)
REMARK                            x       y       z     vdW  Elec       q    Type
REMARK                         _______ _______ _______ _____ _____    ______ ____
ROOT
ATOM      1  C   UNL A   1     -26.305  -3.485  29.889  0.00  0.00    +0.019 A 
ATOM      2  C   UNL A   1     -25.521  -2.616  29.581  0.00  0.00    +0.081 A 
ATOM      3  C   UNL A   1     -24.344  -2.918  28.906  0.00  0.00    +0.018 A 
ATOM      4  C   UNL A   1     -23.998  -4.281  28.592  0.00  0.00    +0.002 A 
ATOM      5  C   UNL A   1     -24.949  -5.223  29.005  0.00  0.00    +0.000 A 
ATOM      6  C   UNL A   1     -26.039  -4.887  29.656  0.00  0.00    +0.002 A 
ATOM      7  N   UNL A   1     -25.686  -1.253  29.842  0.00  0.00    -0.244 NA
ATOM      8  C   UNL A   1     -24.920  -0.360  30.123  0.00  0.00    +0.099 A 
ATOM      9  C   UNL A   1     -23.576  -0.582  29.472  0.00  0.00    +0.021 A 
ATOM     10  C   UNL A   1     -23.183  -1.921  29.035  0.00  0.00    +0.003 A 
ENDROOT
TORSDOF 0
ENDMDL
ENDMDL
