MODEL 3632
MODEL 1
REMARK VINA RESULT:    -6.265      0.000      0.000
REMARK INTER + INTRA:          -6.331
REMARK INTER:                  -6.632
REMARK INTRA:                   0.300
REMARK UNBOUND:                 0.300
REMARK  Name = No_3632-gen_results/8p0m/2024-11-26-14-13-15/
REMARK  1 active torsions:
REMARK  status: ('A' for Active; 'I' for Inactive)
REMARK    1  A    between atoms: C_2  and  C_7
REMARK                            x       y       z     vdW  Elec       q    Type
REMARK                         _______ _______ _______ _____ _____    ______ ____
ROOT
ATOM      1  C   UNL A   1     -23.568  -1.556  28.745  0.00  0.00    +0.250 C 
ATOM      2  N   UNL A   1     -24.006  -0.589  28.084  0.00  0.00    -0.261 N 
ATOM      3  C   UNL A   1     -24.943  -0.668  27.266  0.00  0.00    +0.097 C 
ATOM      4  C   UNL A   1     -25.091   0.169  26.453  0.00  0.00    +0.040 C 
ATOM      5  C   UNL A   1     -24.196   1.118  26.153  0.00  0.00    +0.092 C 
ATOM      6  C   UNL A   1     -23.350   0.607  28.183  0.00  0.00    +0.186 C 
ATOM      7  N   UNL A   1     -23.324   1.414  27.137  0.00  0.00    -0.197 NA
ATOM      8  O   UNL A   1     -22.405  -1.703  29.283  0.00  0.00    -0.270 OA
ENDROOT
BRANCH   1  10
ATOM      9  C   UNL A   1     -25.501  -2.390  29.623  0.00  0.00    +0.004 A 
ATOM     10  C   UNL A   1     -24.648  -2.696  29.084  0.00  0.00    +0.054 A 
ATOM     11  C   UNL A   1     -26.495  -3.485  29.941  0.00  0.00    +0.000 A 
ATOM     12  C   UNL A   1     -26.168  -4.824  29.640  0.00  0.00    +0.000 A 
ATOM     13  C   UNL A   1     -24.063  -3.997  28.688  0.00  0.00    +0.004 A 
ATOM     14  C   UNL A   1     -24.947  -5.029  28.971  0.00  0.00    +0.000 A 
ENDBRANCH   1  10
TORSDOF 1
ENDMDL
ENDMDL
