REMARK  Name = No_3632-gen_results/8p0m/2024-11-26-14-13-15/
REMARK  1 active torsions:
REMARK  status: ('A' for Active; 'I' for Inactive)
REMARK    1  A    between atoms: C_2  and  C_7
REMARK                            x       y       z     vdW  Elec       q    Type
REMARK                         _______ _______ _______ _____ _____    ______ ____
ROOT
ATOM      1  C   UNL A   1     -30.074  -0.836  29.861  0.00  0.00    +0.250 C 
ATOM      2  N   UNL A   1     -30.645  -0.184  28.960  0.00  0.00    -0.261 N 
ATOM      3  C   UNL A   1     -30.175   0.845  28.437  0.00  0.00    +0.097 C 
ATOM      4  C   UNL A   1     -30.876   1.585  27.851  0.00  0.00    +0.040 C 
ATOM      5  C   UNL A   1     -32.215   1.560  27.877  0.00  0.00    +0.092 C 
ATOM      6  C   UNL A   1     -31.909  -0.557  28.598  0.00  0.00    +0.186 C 
ATOM      7  N   UNL A   1     -32.759   0.366  28.185  0.00  0.00    -0.197 NA
ATOM      8  O   UNL A   1     -30.595  -1.630  30.734  0.00  0.00    -0.270 OA
ENDROOT
BRANCH   1  10
ATOM      9  C   UNL A   1     -28.016  -0.814  28.878  0.00  0.00    +0.004 A 
ATOM     10  C   UNL A   1     -28.469  -0.785  29.829  0.00  0.00    +0.054 A 
ATOM     11  C   UNL A   1     -26.504  -0.778  28.877  0.00  0.00    +0.000 A 
ATOM     12  C   UNL A   1     -25.810  -0.853  30.103  0.00  0.00    +0.000 A 
ATOM     13  C   UNL A   1     -27.991  -0.892  31.226  0.00  0.00    +0.004 A 
ATOM     14  C   UNL A   1     -26.604  -0.868  31.265  0.00  0.00    +0.000 A 
ENDBRANCH   1  10
TORSDOF 1
