REMARK  Name = No_3633-gen_results/8p0m/2024-11-26-14-13-15/
REMARK  3 active torsions:
REMARK  status: ('A' for Active; 'I' for Inactive)
REMARK    1  A    between atoms: C_2  and  C_7
REMARK    2  A    between atoms: C_4  and  C_10
REMARK    3  A    between atoms: C_10  and  N_11
REMARK                            x       y       z     vdW  Elec       q    Type
REMARK                         _______ _______ _______ _____ _____    ______ ____
ROOT
ATOM      1  C   UNL A   1     -28.016  -0.814  28.878  0.00  0.00    +0.006 A 
ATOM      2  C   UNL A   1     -28.469  -0.785  29.829  0.00  0.00    +0.080 A 
ATOM      3  C   UNL A   1     -26.504  -0.778  28.877  0.00  0.00    -0.002 A 
ATOM      4  C   UNL A   1     -25.810  -0.853  30.103  0.00  0.00    +0.002 A 
ATOM      5  C   UNL A   1     -27.991  -0.892  31.226  0.00  0.00    +0.006 A 
ATOM      6  C   UNL A   1     -26.604  -0.868  31.265  0.00  0.00    -0.002 A 
ENDROOT
BRANCH   2   7
ATOM      7  C   UNL A   1     -30.074  -0.836  29.861  0.00  0.00    +0.388 C 
ATOM      8  O   UNL A   1     -30.683  -0.070  30.692  0.00  0.00    -0.241 OA
ATOM      9  O   UNL A   1     -30.586  -1.199  28.819  0.00  0.00    -0.241 OA
ENDBRANCH   2   7
BRANCH   4  10
ATOM     10  C   UNL A   1     -24.368  -0.801  30.145  0.00  0.00    +0.152 C 
BRANCH  10  11
ATOM     11  N   UNL A   1     -23.850   0.538  30.194  0.00  0.00    -0.263 NA
ATOM     12  C   UNL A   1     -22.692   0.837  29.517  0.00  0.00    +0.114 C 
ENDBRANCH  10  11
ENDBRANCH   4  10
TORSDOF 3
