MODEL 3634
MODEL 1
REMARK VINA RESULT:    -7.797      0.000      0.000
REMARK INTER + INTRA:         -11.896
REMARK INTER:                 -10.532
REMARK INTRA:                  -1.364
REMARK UNBOUND:                -1.364
REMARK  Name = No_3634-gen_results/8p0m/2024-11-26-14-13-15/
REMARK  6 active torsions:
REMARK  status: ('A' for Active; 'I' for Inactive)
REMARK    1  A    between atoms: C_2  and  C_29
REMARK    2  A    between atoms: C_3  and  C_4
REMARK    3  A    between atoms: C_7  and  O_13
REMARK    4  A    between atoms: O_13  and  C_14
REMARK    5  A    between atoms: C_14  and  C_15
REMARK    6  A    between atoms: C_20  and  C_26
REMARK                            x       y       z     vdW  Elec       q    Type
REMARK                         _______ _______ _______ _____ _____    ______ ____
ROOT
ATOM      1  O   UNL A   1     -29.395 -14.017   7.566  0.00  0.00    -0.471 OA
ENDROOT
BRANCH   1   6
ATOM      2  C   UNL A   1     -29.384 -11.844  11.069  0.00  0.00    +0.007 A 
ATOM      3  C   UNL A   1     -29.651 -12.860  10.992  0.00  0.00    +0.083 A 
ATOM      4  C   UNL A   1     -29.178 -11.193   9.769  0.00  0.00    +0.003 A 
ATOM      5  C   UNL A   1     -29.599 -13.795   9.902  0.00  0.00    +0.043 A 
ATOM      6  C   UNL A   1     -29.380 -13.244   8.725  0.00  0.00    +0.139 A 
ATOM      7  C   UNL A   1     -29.202 -11.885   8.598  0.00  0.00    +0.037 A 
BRANCH   4   8
ATOM      8  C   UNL A   1     -28.996  -9.732   9.674  0.00  0.00    +0.000 A 
ATOM      9  C   UNL A   1     -29.993  -8.882   9.639  0.00  0.00    +0.000 A 
ATOM     10  C   UNL A   1     -29.774  -7.517   9.477  0.00  0.00    +0.000 A 
ATOM     11  C   UNL A   1     -28.495  -7.020   9.235  0.00  0.00    +0.000 A 
ATOM     12  C   UNL A   1     -27.425  -7.901   9.271  0.00  0.00    +0.000 A 
ATOM     13  C   UNL A   1     -27.634  -9.223   9.465  0.00  0.00    +0.000 A 
ENDBRANCH   4   8
BRANCH   3  14
ATOM     14  C   UNL A   1     -29.890 -13.660  12.382  0.00  0.00    +0.388 C 
ATOM     15  O   UNL A   1     -30.567 -13.157  13.204  0.00  0.00    -0.241 OA
ATOM     16  O   UNL A   1     -29.384 -14.832  12.490  0.00  0.00    -0.241 OA
ENDBRANCH   3  14
ENDBRANCH   1   6
BRANCH   1  17
ATOM     17  C   UNL A   1     -28.572 -14.935   7.317  0.00  0.00    +0.234 C 
BRANCH  17  18
ATOM     18  C   UNL A   1     -27.373 -14.744   6.996  0.00  0.00    +0.050 A 
ATOM     19  C   UNL A   1     -26.960 -13.674   6.178  0.00  0.00    +0.003 A 
ATOM     20  C   UNL A   1     -25.604 -13.472   5.737  0.00  0.00    +0.018 A 
ATOM     21  C   UNL A   1     -25.259 -12.400   4.879  0.00  0.00    +0.002 A 
ATOM     22  C   UNL A   1     -23.941 -12.182   4.442  0.00  0.00    +0.007 A 
ATOM     23  C   UNL A   1     -22.975 -13.084   4.931  0.00  0.00    +0.081 A 
ATOM     24  C   UNL A   1     -23.300 -14.112   5.770  0.00  0.00    +0.026 A 
ATOM     25  C   UNL A   1     -24.657 -14.364   6.190  0.00  0.00    +0.082 A 
ATOM     26  N   UNL A   1     -24.969 -15.334   6.975  0.00  0.00    -0.234 NA
ATOM     27  C   UNL A   1     -26.276 -15.598   7.377  0.00  0.00    +0.138 A 
ATOM     28 CL   UNL A   1     -26.539 -16.754   8.630  0.00  0.00    -0.062 Cl
BRANCH  23  29
ATOM     29  C   UNL A   1     -21.577 -12.860   4.503  0.00  0.00    +0.388 C 
ATOM     30  O   UNL A   1     -20.912 -12.076   5.080  0.00  0.00    -0.241 OA
ATOM     31  O   UNL A   1     -21.219 -13.428   3.387  0.00  0.00    -0.241 OA
ENDBRANCH  23  29
ENDBRANCH  17  18
ENDBRANCH   1  17
TORSDOF 6
ENDMDL
ENDMDL
