MODEL 3635
MODEL 1
REMARK VINA RESULT:    -4.576      0.000      0.000
REMARK INTER + INTRA:          -4.576
REMARK INTER:                  -4.576
REMARK INTRA:                   0.000
REMARK UNBOUND:                 0.000
REMARK  Name = No_3635-gen_results/8p0m/2024-11-26-14-13-15/
REMARK  0 active torsions:
REMARK  status: ('A' for Active; 'I' for Inactive)
REMARK                            x       y       z     vdW  Elec       q    Type
REMARK                         _______ _______ _______ _____ _____    ______ ____
ROOT
ATOM      1  C   UNL A   1     -26.437  -3.489  29.966  0.00  0.00    -0.000 A 
ATOM      2  C   UNL A   1     -25.636  -2.837  29.754  0.00  0.00    -0.004 A 
ATOM      3  C   UNL A   1     -26.183  -4.875  29.573  0.00  0.00    -0.000 A 
ATOM      4  C   UNL A   1     -24.997  -5.267  29.003  0.00  0.00    -0.000 A 
ATOM      5  C   UNL A   1     -24.298  -2.966  29.177  0.00  0.00    -0.022 A 
ATOM      6  C   UNL A   1     -23.330  -1.960  28.962  0.00  0.00    +0.031 C 
ATOM      7  C   UNL A   1     -24.062  -4.312  28.824  0.00  0.00    -0.004 A 
ENDROOT
TORSDOF 0
ENDMDL
ENDMDL
