MODEL 3636
MODEL 1
REMARK VINA RESULT:    -5.969      0.000      0.000
REMARK INTER + INTRA:          -7.446
REMARK INTER:                  -7.016
REMARK INTRA:                  -0.430
REMARK UNBOUND:                -0.430
REMARK  Name = No_3636-gen_results/8p0m/2024-11-26-14-13-15/
REMARK  3 active torsions:
REMARK  status: ('A' for Active; 'I' for Inactive)
REMARK    1  A    between atoms: C_3  and  O_10
REMARK    2  A    between atoms: O_10  and  C_11
REMARK    3  A    between atoms: C_11  and  C_12
REMARK                            x       y       z     vdW  Elec       q    Type
REMARK                         _______ _______ _______ _____ _____    ______ ____
ROOT
ATOM      1  F   UNL A   1     -23.068  -2.537  28.924  0.00  0.00    -0.200 F 
ATOM      2  C   UNL A   1     -24.113  -2.486  29.389  0.00  0.00    +0.186 A 
ATOM      3  C   UNL A   1     -24.462  -1.339  29.858  0.00  0.00    +0.178 A 
ATOM      4  C   UNL A   1     -25.783  -1.034  30.455  0.00  0.00    +0.105 A 
ATOM      5  C   UNL A   1     -26.703  -2.140  30.472  0.00  0.00    +0.083 A 
ATOM      6  C   UNL A   1     -26.274  -3.325  29.919  0.00  0.00    +0.082 A 
ATOM      7  C   UNL A   1     -25.041  -3.499  29.365  0.00  0.00    +0.100 A 
ATOM      8 CL   UNL A   1     -24.665  -4.985  28.696  0.00  0.00    -0.079 Cl
ATOM      9 CL   UNL A   1     -28.214  -1.859  31.189  0.00  0.00    -0.080 Cl
ATOM     10 CL   UNL A   1     -26.282   0.465  31.155  0.00  0.00    -0.078 Cl
ATOM     11 CL   UNL A   1     -27.300  -4.742  30.097  0.00  0.00    -0.080 Cl
ENDROOT
BRANCH   3  12
ATOM     12  O   UNL A   1     -23.677  -0.213  29.931  0.00  0.00    -0.465 OA
BRANCH  12  13
ATOM     13  C   UNL A   1     -23.627   0.646  28.849  0.00  0.00    +0.266 C 
BRANCH  13  14
ATOM     14  C   UNL A   1     -22.288   0.759  28.227  0.00  0.00    +0.217 C 
ATOM     15  C   UNL A   1     -22.117   1.857  27.392  0.00  0.00    +0.305 C 
ATOM     16  F   UNL A   1     -20.962   1.864  26.902  0.00  0.00    -0.170 F 
ATOM     17  F   UNL A   1     -23.040   2.566  27.008  0.00  0.00    -0.170 F 
ATOM     18  F   UNL A   1     -21.488  -0.103  28.533  0.00  0.00    -0.200 F 
ENDBRANCH  13  14
ENDBRANCH  12  13
ENDBRANCH   3  12
TORSDOF 3
ENDMDL
ENDMDL
