REMARK  Name = No_3636-gen_results/8p0m/2024-11-26-14-13-15/
REMARK  3 active torsions:
REMARK  status: ('A' for Active; 'I' for Inactive)
REMARK    1  A    between atoms: C_3  and  O_10
REMARK    2  A    between atoms: O_10  and  C_11
REMARK    3  A    between atoms: C_11  and  C_12
REMARK                            x       y       z     vdW  Elec       q    Type
REMARK                         _______ _______ _______ _____ _____    ______ ____
ROOT
ATOM      1  F   UNL A   1     -28.073  -1.254  28.532  0.00  0.00    -0.200 F 
ATOM      2  C   UNL A   1     -27.359  -0.379  28.722  0.00  0.00    +0.186 A 
ATOM      3  C   UNL A   1     -26.332  -0.644  29.452  0.00  0.00    +0.178 A 
ATOM      4  C   UNL A   1     -25.256   0.320  29.782  0.00  0.00    +0.105 A 
ATOM      5  C   UNL A   1     -25.424   1.627  29.203  0.00  0.00    +0.083 A 
ATOM      6  C   UNL A   1     -26.526   1.825  28.403  0.00  0.00    +0.082 A 
ATOM      7  C   UNL A   1     -27.451   0.860  28.136  0.00  0.00    +0.100 A 
ATOM      8 CL   UNL A   1     -28.723   1.229  27.116  0.00  0.00    -0.079 Cl
ATOM      9 CL   UNL A   1     -24.245   2.784  29.588  0.00  0.00    -0.080 Cl
ATOM     10 CL   UNL A   1     -23.892   0.040  30.805  0.00  0.00    -0.078 Cl
ATOM     11 CL   UNL A   1     -26.859   3.458  27.841  0.00  0.00    -0.080 Cl
ENDROOT
BRANCH   3  12
ATOM     12  O   UNL A   1     -26.065  -1.833  30.087  0.00  0.00    -0.465 OA
BRANCH  12  13
ATOM     13  C   UNL A   1     -24.882  -2.494  29.811  0.00  0.00    +0.266 C 
BRANCH  13  14
ATOM     14  C   UNL A   1     -25.060  -3.794  29.126  0.00  0.00    +0.217 C 
ATOM     15  C   UNL A   1     -23.895  -4.356  28.616  0.00  0.00    +0.305 C 
ATOM     16  F   UNL A   1     -24.143  -5.444  28.044  0.00  0.00    -0.170 F 
ATOM     17  F   UNL A   1     -22.833  -3.750  28.529  0.00  0.00    -0.170 F 
ATOM     18  F   UNL A   1     -26.193  -4.232  29.108  0.00  0.00    -0.200 F 
ENDBRANCH  13  14
ENDBRANCH  12  13
ENDBRANCH   3  12
TORSDOF 3
