MODEL 3637
MODEL 1
REMARK VINA RESULT:    -7.787      0.000      0.000
REMARK INTER + INTRA:          -9.798
REMARK INTER:                  -8.697
REMARK INTRA:                  -1.101
REMARK UNBOUND:                -1.101
REMARK  Name = No_3637-gen_results/8p0m/2024-11-26-14-13-15/
REMARK  2 active torsions:
REMARK  status: ('A' for Active; 'I' for Inactive)
REMARK    1  A    between atoms: C_13  and  C_15
REMARK    2  A    between atoms: C_14  and  C_21
REMARK                            x       y       z     vdW  Elec       q    Type
REMARK                         _______ _______ _______ _____ _____    ______ ____
ROOT
ATOM      1  C   UNL A   1     -27.286   0.604  26.606  0.00  0.00    +0.003 A 
ATOM      2  C   UNL A   1     -26.777   0.471  25.693  0.00  0.00    +0.000 A 
ATOM      3  C   UNL A   1     -26.560   0.404  27.801  0.00  0.00    +0.035 A 
ATOM      4  C   UNL A   1     -25.230   0.033  27.794  0.00  0.00    -0.008 A 
ATOM      5  C   UNL A   1     -24.636  -0.113  26.551  0.00  0.00    -0.004 A 
ATOM      6  C   UNL A   1     -25.388   0.134  25.417  0.00  0.00    -0.000 A 
ATOM      7  C   UNL A   1     -27.161   0.577  29.169  0.00  0.00    +0.192 C 
ATOM      8  C   UNL A   1     -26.341   0.256  30.291  0.00  0.00    +0.021 C 
ATOM      9  C   UNL A   1     -26.492   0.768  31.444  0.00  0.00    -0.001 C 
ATOM     10  C   UNL A   1     -25.453   0.471  32.533  0.00  0.00    -0.004 C 
ATOM     11  C   UNL A   1     -24.391  -0.406  32.190  0.00  0.00    -0.022 C 
ATOM     12  C   UNL A   1     -24.933  -0.499  30.380  0.00  0.00    +0.052 C 
ATOM     13  C   UNL A   1     -24.119  -1.146  29.581  0.00  0.00    +0.045 C 
ATOM     14  C   UNL A   1     -24.273  -0.373  28.965  0.00  0.00    +0.130 C 
ATOM     15  O   UNL A   1     -28.013   1.389  29.349  0.00  0.00    -0.287 OA
ENDROOT
BRANCH  13  16
ATOM     16  C   UNL A   1     -24.641  -2.443  29.368  0.00  0.00    -0.021 A 
ATOM     17  C   UNL A   1     -25.593  -2.913  29.699  0.00  0.00    -0.004 A 
ATOM     18  C   UNL A   1     -23.749  -3.457  28.668  0.00  0.00    -0.004 A 
ATOM     19  C   UNL A   1     -26.102  -4.248  29.737  0.00  0.00    -0.000 A 
ATOM     20  C   UNL A   1     -24.165  -4.795  28.567  0.00  0.00    -0.000 A 
ATOM     21  C   UNL A   1     -25.343  -5.157  29.053  0.00  0.00    -0.000 A 
ENDBRANCH  13  16
BRANCH  14  22
ATOM     22  C   UNL A   1     -23.016   0.675  28.779  0.00  0.00    +0.369 C 
ATOM     23  O   UNL A   1     -23.105   1.785  28.995  0.00  0.00    -0.245 OA
ATOM     24  O   UNL A   1     -21.893   0.071  28.867  0.00  0.00    -0.245 OA
ENDBRANCH  14  22
TORSDOF 2
ENDMDL
ENDMDL
