MODEL 3638
MODEL 1
REMARK VINA RESULT:    -7.057      0.000      0.000
REMARK INTER + INTRA:         -11.382
REMARK INTER:                  -9.945
REMARK INTRA:                  -1.437
REMARK UNBOUND:                -1.437
REMARK  Name = No_3638-gen_results/8p0m/2024-11-26-14-13-15/
REMARK  7 active torsions:
REMARK  status: ('A' for Active; 'I' for Inactive)
REMARK    1  A    between atoms: C_1  and  C_2
REMARK    2  A    between atoms: C_1  and  C_8
REMARK    3  A    between atoms: C_3  and  C_15
REMARK    4  A    between atoms: C_5  and  C_10
REMARK    5  A    between atoms: C_15  and  O_17
REMARK    6  A    between atoms: O_17  and  C_18
REMARK    7  A    between atoms: C_18  and  C_19
REMARK                            x       y       z     vdW  Elec       q    Type
REMARK                         _______ _______ _______ _____ _____    ______ ____
ROOT
ATOM      1  C   UNL A   1     -25.024   0.266  27.078  0.00  0.00    -0.007 A 
ATOM      2  C   UNL A   1     -26.290   0.272  27.384  0.00  0.00    +0.072 A 
ATOM      3  C   UNL A   1     -27.425   0.283  26.428  0.00  0.00    +0.010 A 
ATOM      4  C   UNL A   1     -27.086   0.338  25.046  0.00  0.00    +0.072 A 
ATOM      5  C   UNL A   1     -25.755   0.392  24.720  0.00  0.00    +0.004 A 
ATOM      6  C   UNL A   1     -24.749   0.396  25.625  0.00  0.00    -0.004 A 
ENDROOT
BRANCH   4   7
ATOM      7  C   UNL A   1     -28.123   0.325  24.035  0.00  0.00    +0.419 C 
ATOM      8  F   UNL A   1     -28.071   0.967  23.179  0.00  0.00    -0.166 F 
ATOM      9  F   UNL A   1     -29.360   0.483  24.711  0.00  0.00    -0.166 F 
ATOM     10  F   UNL A   1     -28.331  -1.012  23.667  0.00  0.00    -0.166 F 
ENDBRANCH   4   7
BRANCH   2  11
ATOM     11  C   UNL A   1     -26.760   0.219  28.795  0.00  0.00    +0.341 C 
ATOM     12  O   UNL A   1     -26.953   1.030  29.386  0.00  0.00    -0.245 OA
BRANCH  11  13
ATOM     13  O   UNL A   1     -27.250  -1.054  29.086  0.00  0.00    -0.440 OA
BRANCH  13  14
ATOM     14  C   UNL A   1     -26.514  -1.683  30.163  0.00  0.00    +0.235 C 
BRANCH  14  15
ATOM     15  C   UNL A   1     -25.890  -2.856  29.670  0.00  0.00    +0.021 A 
ATOM     16  C   UNL A   1     -24.681  -2.674  29.317  0.00  0.00    -0.001 A 
ATOM     17  C   UNL A   1     -23.887  -3.753  28.853  0.00  0.00    -0.000 A 
ATOM     18  C   UNL A   1     -24.502  -5.036  28.856  0.00  0.00    -0.000 A 
ATOM     19  C   UNL A   1     -25.774  -5.207  29.332  0.00  0.00    -0.000 A 
ATOM     20  C   UNL A   1     -26.474  -4.092  29.789  0.00  0.00    -0.001 A 
ENDBRANCH  14  15
ENDBRANCH  13  14
ENDBRANCH  11  13
ENDBRANCH   2  11
BRANCH   1  21
ATOM     21  C   UNL A   1     -24.078   0.262  27.831  0.00  0.00    +0.108 C 
BRANCH  21  22
ATOM     22  C   UNL A   1     -23.235   1.536  27.929  0.00  0.00    +0.235 C 
ATOM     23 CL   UNL A   1     -21.623   1.709  27.371  0.00  0.00    -0.043 Cl
ATOM     24  O   UNL A   1     -23.800   2.653  28.281  0.00  0.00    -0.279 OA
ENDBRANCH  21  22
ENDBRANCH   1  21
TORSDOF 7
ENDMDL
ENDMDL
