REMARK  Name = No_3638-gen_results/8p0m/2024-11-26-14-13-15/
REMARK  7 active torsions:
REMARK  status: ('A' for Active; 'I' for Inactive)
REMARK    1  A    between atoms: C_1  and  C_2
REMARK    2  A    between atoms: C_1  and  C_8
REMARK    3  A    between atoms: C_3  and  C_15
REMARK    4  A    between atoms: C_5  and  C_10
REMARK    5  A    between atoms: C_15  and  O_17
REMARK    6  A    between atoms: O_17  and  C_18
REMARK    7  A    between atoms: C_18  and  C_19
REMARK                            x       y       z     vdW  Elec       q    Type
REMARK                         _______ _______ _______ _____ _____    ______ ____
ROOT
ATOM      1  C   UNL A   1     -27.064  -0.119  28.608  0.00  0.00    -0.007 A 
ATOM      2  C   UNL A   1     -26.876   1.133  28.913  0.00  0.00    +0.072 A 
ATOM      3  C   UNL A   1     -25.688   1.952  28.567  0.00  0.00    +0.010 A 
ATOM      4  C   UNL A   1     -24.639   1.283  27.875  0.00  0.00    +0.072 A 
ATOM      5  C   UNL A   1     -24.807  -0.051  27.604  0.00  0.00    +0.004 A 
ATOM      6  C   UNL A   1     -25.902  -0.767  27.951  0.00  0.00    -0.004 A 
ENDROOT
BRANCH   4   7
ATOM      7  C   UNL A   1     -23.450   2.004  27.469  0.00  0.00    +0.419 C 
ATOM      8  F   UNL A   1     -22.514   1.500  27.338  0.00  0.00    -0.166 F 
ATOM      9  F   UNL A   1     -23.313   3.104  28.354  0.00  0.00    -0.166 F 
ATOM     10  F   UNL A   1     -23.789   2.768  26.343  0.00  0.00    -0.166 F 
ENDBRANCH   4   7
BRANCH   2  11
ATOM     11  C   UNL A   1     -27.903   1.931  29.637  0.00  0.00    +0.341 C 
ATOM     12  O   UNL A   1     -28.085   2.926  29.499  0.00  0.00    -0.245 OA
BRANCH  11  13
ATOM     13  O   UNL A   1     -28.820   1.079  30.253  0.00  0.00    -0.440 OA
BRANCH  13  14
ATOM     14  C   UNL A   1     -29.924   1.808  30.842  0.00  0.00    +0.235 C 
BRANCH  14  15
ATOM     15  C   UNL A   1     -31.076   0.984  30.832  0.00  0.00    +0.021 A 
ATOM     16  C   UNL A   1     -32.153   1.619  31.071  0.00  0.00    -0.001 A 
ATOM     17  C   UNL A   1     -33.409   0.961  31.044  0.00  0.00    -0.000 A 
ATOM     18  C   UNL A   1     -33.392  -0.416  30.689  0.00  0.00    -0.000 A 
ATOM     19  C   UNL A   1     -32.223  -1.042  30.346  0.00  0.00    -0.000 A 
ATOM     20  C   UNL A   1     -31.037  -0.311  30.380  0.00  0.00    -0.001 A 
ENDBRANCH  14  15
ENDBRANCH  13  14
ENDBRANCH  11  13
ENDBRANCH   2  11
BRANCH   1  21
ATOM     21  C   UNL A   1     -28.016  -0.814  28.878  0.00  0.00    +0.108 C 
BRANCH  21  22
ATOM     22  C   UNL A   1     -28.068  -1.448  30.271  0.00  0.00    +0.235 C 
ATOM     23 CL   UNL A   1     -29.355  -2.401  30.883  0.00  0.00    -0.043 Cl
ATOM     24  O   UNL A   1     -27.001  -1.453  31.013  0.00  0.00    -0.279 OA
ENDBRANCH  21  22
ENDBRANCH   1  21
TORSDOF 7
