MODEL 3639
MODEL 1
REMARK VINA RESULT:    -7.387      0.000      0.000
REMARK INTER + INTRA:         -11.228
REMARK INTER:                  -9.978
REMARK INTRA:                  -1.250
REMARK UNBOUND:                -1.250
REMARK  Name = No_3639-gen_results/8p0m/2024-11-26-14-13-15/
REMARK  6 active torsions:
REMARK  status: ('A' for Active; 'I' for Inactive)
REMARK    1  A    between atoms: C_2  and  O_7
REMARK    2  A    between atoms: C_3  and  C_14
REMARK    3  A    between atoms: O_7  and  C_8
REMARK    4  A    between atoms: C_11  and  C_21
REMARK    5  A    between atoms: C_14  and  C_15
REMARK    6  A    between atoms: C_22  and  C_23
REMARK                            x       y       z     vdW  Elec       q    Type
REMARK                         _______ _______ _______ _____ _____    ______ ____
ROOT
ATOM      1  C   UNL A   1     -23.536   0.829  28.789  0.00  0.00    +0.034 A 
ATOM      2  C   UNL A   1     -23.058   1.288  27.970  0.00  0.00    +0.145 A 
ATOM      3  C   UNL A   1     -22.701  -0.176  29.551  0.00  0.00    -0.015 A 
ATOM      4  C   UNL A   1     -21.336  -0.327  29.226  0.00  0.00    -0.004 A 
ATOM      5  C   UNL A   1     -21.672   1.333  27.452  0.00  0.00    +0.037 A 
ATOM      6  C   UNL A   1     -20.872   0.426  28.132  0.00  0.00    +0.003 A 
ENDROOT
BRANCH   2   7
ATOM      7  O   UNL A   1     -23.866   2.265  27.225  0.00  0.00    -0.454 OA
BRANCH   7   8
ATOM      8  C   UNL A   1     -24.766   1.790  26.441  0.00  0.00    +0.145 A 
ATOM      9  C   UNL A   1     -26.046   1.708  26.706  0.00  0.00    +0.037 A 
ATOM     10  C   UNL A   1     -26.794   1.125  26.360  0.00  0.00    +0.003 A 
ATOM     11  C   UNL A   1     -26.596   0.268  25.134  0.00  0.00    +0.000 A 
ATOM     12  C   UNL A   1     -25.310   0.259  24.694  0.00  0.00    +0.003 A 
ATOM     13  C   UNL A   1     -24.325   0.933  25.399  0.00  0.00    +0.037 A 
BRANCH  11  14
ATOM     14  C   UNL A   1     -27.680  -0.440  24.429  0.00  0.00    +0.000 C 
ATOM     15  C   UNL A   1     -28.480   0.152  23.728  0.00  0.00    +0.000 C 
BRANCH  15  16
ATOM     16  C   UNL A   1     -28.352   1.556  23.499  0.00  0.00    +0.000 C 
ATOM     17  C   UNL A   1     -29.406   2.398  23.370  0.00  0.00    +0.000 C 
ENDBRANCH  15  16
ENDBRANCH  11  14
ENDBRANCH   7   8
ENDBRANCH   2   7
BRANCH   3  18
ATOM     18  C   UNL A   1     -23.176  -1.026  30.694  0.00  0.00    +0.053 C 
BRANCH  18  19
ATOM     19  C   UNL A   1     -24.219  -1.975  30.303  0.00  0.00    -0.018 A 
ATOM     20  C   UNL A   1     -23.901  -2.923  29.387  0.00  0.00    -0.004 A 
ATOM     21  C   UNL A   1     -24.883  -3.763  28.948  0.00  0.00    -0.000 A 
ATOM     22  C   UNL A   1     -26.243  -3.642  29.491  0.00  0.00    -0.000 A 
ATOM     23  C   UNL A   1     -26.533  -2.636  30.343  0.00  0.00    -0.000 A 
ATOM     24  C   UNL A   1     -25.533  -1.779  30.763  0.00  0.00    -0.004 A 
ENDBRANCH  18  19
ENDBRANCH   3  18
TORSDOF 6
ENDMDL
ENDMDL
