REMARK  Name = No_3639-gen_results/8p0m/2024-11-26-14-13-15/
REMARK  6 active torsions:
REMARK  status: ('A' for Active; 'I' for Inactive)
REMARK    1  A    between atoms: C_2  and  O_7
REMARK    2  A    between atoms: C_3  and  C_14
REMARK    3  A    between atoms: O_7  and  C_8
REMARK    4  A    between atoms: C_11  and  C_21
REMARK    5  A    between atoms: C_14  and  C_15
REMARK    6  A    between atoms: C_22  and  C_23
REMARK                            x       y       z     vdW  Elec       q    Type
REMARK                         _______ _______ _______ _____ _____    ______ ____
ROOT
ATOM      1  C   UNL A   1     -28.016  -0.814  28.878  0.00  0.00    +0.034 A 
ATOM      2  C   UNL A   1     -28.469  -0.785  29.829  0.00  0.00    +0.145 A 
ATOM      3  C   UNL A   1     -26.504  -0.778  28.877  0.00  0.00    -0.015 A 
ATOM      4  C   UNL A   1     -25.810  -0.853  30.103  0.00  0.00    -0.004 A 
ATOM      5  C   UNL A   1     -27.991  -0.892  31.226  0.00  0.00    +0.037 A 
ATOM      6  C   UNL A   1     -26.604  -0.868  31.265  0.00  0.00    +0.003 A 
ENDROOT
BRANCH   2   7
ATOM      7  O   UNL A   1     -29.939  -0.819  29.836  0.00  0.00    -0.454 OA
BRANCH   7   8
ATOM      8  C   UNL A   1     -30.536  -0.112  28.945  0.00  0.00    +0.145 A 
ATOM      9  C   UNL A   1     -31.450  -0.543  28.111  0.00  0.00    +0.037 A 
ATOM     10  C   UNL A   1     -31.776  -0.228  27.209  0.00  0.00    +0.003 A 
ATOM     11  C   UNL A   1     -31.372   1.125  26.676  0.00  0.00    +0.000 A 
ATOM     12  C   UNL A   1     -30.437   1.742  27.446  0.00  0.00    +0.003 A 
ATOM     13  C   UNL A   1     -29.903   1.096  28.550  0.00  0.00    +0.037 A 
BRANCH  11  14
ATOM     14  C   UNL A   1     -31.965   1.762  25.486  0.00  0.00    +0.000 C 
ATOM     15  C   UNL A   1     -31.963   1.214  24.400  0.00  0.00    +0.000 C 
BRANCH  15  16
ATOM     16  C   UNL A   1     -31.449  -0.110  24.250  0.00  0.00    +0.000 C 
ATOM     17  C   UNL A   1     -31.810  -1.153  25.036  0.00  0.00    +0.000 C 
ENDBRANCH  15  16
ENDBRANCH  11  14
ENDBRANCH   7   8
ENDBRANCH   2   7
BRANCH   3  18
ATOM     18  C   UNL A   1     -25.628  -0.719  27.658  0.00  0.00    +0.053 C 
BRANCH  18  19
ATOM     19  C   UNL A   1     -25.228   0.645  27.310  0.00  0.00    -0.018 A 
ATOM     20  C   UNL A   1     -25.532   1.097  26.069  0.00  0.00    -0.004 A 
ATOM     21  C   UNL A   1     -25.093   2.335  25.698  0.00  0.00    -0.000 A 
ATOM     22  C   UNL A   1     -24.332   3.154  26.652  0.00  0.00    -0.000 A 
ATOM     23  C   UNL A   1     -23.986   2.635  27.849  0.00  0.00    -0.000 A 
ATOM     24  C   UNL A   1     -24.419   1.371  28.202  0.00  0.00    -0.004 A 
ENDBRANCH  18  19
ENDBRANCH   3  18
TORSDOF 6
