MODEL 363
MODEL 1
REMARK VINA RESULT:    -6.322      0.000      0.000
REMARK INTER + INTRA:          -9.108
REMARK INTER:                  -8.170
REMARK INTRA:                  -0.938
REMARK UNBOUND:                -0.938
REMARK  Name = No_363-gen_results/8p0m/2024-11-26-14-13-15/
REMARK  5 active torsions:
REMARK  status: ('A' for Active; 'I' for Inactive)
REMARK    1  A    between atoms: C_4  and  C_11
REMARK    2  A    between atoms: C_7  and  O_16
REMARK    3  A    between atoms: C_11  and  C_13
REMARK    4  A    between atoms: O_16  and  C_17
REMARK    5  A    between atoms: C_17  and  C_18
REMARK                            x       y       z     vdW  Elec       q    Type
REMARK                         _______ _______ _______ _____ _____    ______ ____
ROOT
ATOM      1  C   UNL A   1     -24.732  -1.564  29.199  0.00  0.00    +0.037 A 
ATOM      2  C   UNL A   1     -25.011  -1.004  28.164  0.00  0.00    +0.003 A 
ATOM      3  C   UNL A   1     -24.231   0.004  27.598  0.00  0.00    -0.004 A 
ATOM      4  C   UNL A   1     -24.501   0.746  26.351  0.00  0.00    -0.019 A 
ATOM      5  C   UNL A   1     -23.693   1.812  25.816  0.00  0.00    -0.004 A 
ATOM      6  C   UNL A   1     -22.462   1.990  26.455  0.00  0.00    -0.000 A 
ATOM      7  C   UNL A   1     -23.569  -1.026  29.983  0.00  0.00    +0.139 A 
ATOM      8  C   UNL A   1     -22.695  -0.098  29.463  0.00  0.00    +0.037 A 
ATOM      9  C   UNL A   1     -22.997   0.507  28.256  0.00  0.00    +0.003 A 
ATOM     10  C   UNL A   1     -22.142   1.445  27.680  0.00  0.00    +0.000 A 
ENDROOT
BRANCH   4  11
ATOM     11  C   UNL A   1     -25.728   0.440  25.547  0.00  0.00    +0.069 C 
ATOM     12  C   UNL A   1     -25.664  -0.482  24.602  0.00  0.00    +0.009 C 
BRANCH  11  13
ATOM     13  C   UNL A   1     -26.946   1.128  25.924  0.00  0.00    +0.234 C 
ATOM     14 CL   UNL A   1     -27.264   2.533  24.970  0.00  0.00    -0.079 Cl
ATOM     15  O   UNL A   1     -28.066   0.407  25.951  0.00  0.00    -0.205 OA
ENDBRANCH  11  13
ENDBRANCH   4  11
BRANCH   7  16
ATOM     16  O   UNL A   1     -23.345  -1.672  31.163  0.00  0.00    -0.471 OA
BRANCH  16  17
ATOM     17  C   UNL A   1     -23.075  -0.972  32.275  0.00  0.00    +0.232 C 
BRANCH  17  18
ATOM     18  C   UNL A   1     -24.110  -1.078  33.193  0.00  0.00    +0.016 C 
ATOM     19  C   UNL A   1     -25.197  -0.341  33.087  0.00  0.00    -0.027 C 
ATOM     20  C   UNL A   1     -25.040   0.928  32.662  0.00  0.00    +0.030 C 
ENDBRANCH  17  18
ENDBRANCH  16  17
ENDBRANCH   7  16
TORSDOF 5
ENDMDL
ENDMDL
