REMARK  Name = No_364-gen_results/8p0m/2024-11-26-14-13-15/
REMARK  0 active torsions:
REMARK  status: ('A' for Active; 'I' for Inactive)
REMARK                            x       y       z     vdW  Elec       q    Type
REMARK                         _______ _______ _______ _____ _____    ______ ____
ROOT
ATOM      1  O   UNL A   1     -28.123  -1.335  28.487  0.00  0.00    -0.259 OA
ATOM      2  C   UNL A   1     -27.481  -0.404  28.709  0.00  0.00    +0.309 C 
ATOM      3  C   UNL A   1     -26.380  -0.087  27.939  0.00  0.00    -0.001 C 
ATOM      4  N   UNL A   1     -27.666   0.447  29.899  0.00  0.00    -0.190 NA
ATOM      5  C   UNL A   1     -25.177  -0.439  28.395  0.00  0.00    -0.055 C 
ATOM      6  C   UNL A   1     -24.758   0.223  29.663  0.00  0.00    +0.047 C 
ATOM      7  C   UNL A   1     -25.582   0.386  30.827  0.00  0.00    +0.006 C 
ATOM      8  C   UNL A   1     -26.829   0.639  30.875  0.00  0.00    +0.143 C 
ENDROOT
TORSDOF 0
