MODEL 3640
MODEL 1
REMARK VINA RESULT:    -4.787      0.000      0.000
REMARK INTER + INTRA:          -5.439
REMARK INTER:                  -5.347
REMARK INTRA:                  -0.093
REMARK UNBOUND:                -0.093
REMARK  Name = No_3640-gen_results/8p0m/2024-11-26-14-13-15/
REMARK  2 active torsions:
REMARK  status: ('A' for Active; 'I' for Inactive)
REMARK    1  A    between atoms: C_1  and  C_2
REMARK    2  A    between atoms: C_1  and  C_3
REMARK                            x       y       z     vdW  Elec       q    Type
REMARK                         _______ _______ _______ _____ _____    ______ ____
ROOT
ATOM      1  C   UNL A   1     -24.420  -2.772  28.915  0.00  0.00    -0.021 A 
ATOM      2  C   UNL A   1     -25.622  -2.491  29.467  0.00  0.00    -0.004 A 
ATOM      3  C   UNL A   1     -26.444  -3.484  29.908  0.00  0.00    -0.000 A 
ATOM      4  C   UNL A   1     -26.214  -4.864  29.621  0.00  0.00    -0.000 A 
ATOM      5  C   UNL A   1     -25.002  -5.187  29.073  0.00  0.00    -0.000 A 
ATOM      6  C   UNL A   1     -24.099  -4.155  28.812  0.00  0.00    -0.004 A 
ENDROOT
BRANCH   1   7
ATOM      7  C   UNL A   1     -23.285  -1.852  28.973  0.00  0.00    +0.047 C 
BRANCH   7   8
ATOM      8  C   UNL A   1     -23.336  -1.168  29.773  0.00  0.00    +0.114 C 
ATOM      9  N   UNL A   1     -22.232  -0.468  30.133  0.00  0.00    -0.131 NA
ENDBRANCH   7   8
ENDBRANCH   1   7
TORSDOF 2
ENDMDL
ENDMDL
