MODEL 3641
MODEL 1
REMARK VINA RESULT:    -8.777      0.000      0.000
REMARK INTER + INTRA:         -12.236
REMARK INTER:                 -11.342
REMARK INTRA:                  -0.894
REMARK UNBOUND:                -0.894
REMARK  Name = No_3641-gen_results/8p0m/2024-11-26-14-13-15/
REMARK  5 active torsions:
REMARK  status: ('A' for Active; 'I' for Inactive)
REMARK    1  A    between atoms: C_5  and  S_8
REMARK    2  A    between atoms: S_8  and  N_11
REMARK    3  A    between atoms: N_11  and  C_12
REMARK    4  A    between atoms: C_15  and  C_18
REMARK    5  A    between atoms: N_33  and  C_34
REMARK                            x       y       z     vdW  Elec       q    Type
REMARK                         _______ _______ _______ _____ _____    ______ ____
ROOT
ATOM      1  C   UNL A   1     -27.703   1.153  25.196  0.00  0.00    +0.000 A 
ATOM      2  C   UNL A   1     -27.856   2.108  24.543  0.00  0.00    +0.001 A 
ATOM      3  C   UNL A   1     -28.486   2.455  23.815  0.00  0.00    +0.015 A 
ATOM      4  C   UNL A   1     -29.605   1.457  23.431  0.00  0.00    +0.056 A 
ATOM      5  C   UNL A   1     -29.590   0.305  24.072  0.00  0.00    +0.069 A 
ATOM      6  C   UNL A   1     -28.649   0.042  25.014  0.00  0.00    +0.006 A 
ATOM      7  C   UNL A   1     -30.545  -0.859  23.963  0.00  0.00    +0.270 C 
ATOM      8  N   UNL A   1     -31.519  -0.971  23.271  0.00  0.00    -0.174 NA
ATOM      9  O   UNL A   1     -30.235  -1.988  24.511  0.00  0.00    -0.268 OA
ATOM     10  C   UNL A   1     -32.031   0.173  22.533  0.00  0.00    +0.087 A 
ATOM     11  C   UNL A   1     -33.194  -0.167  21.763  0.00  0.00    +0.018 A 
ATOM     12  C   UNL A   1     -33.810   0.773  21.045  0.00  0.00    +0.001 A 
ATOM     13  C   UNL A   1     -33.267   2.100  21.051  0.00  0.00    +0.001 A 
ATOM     14  C   UNL A   1     -32.164   2.396  21.787  0.00  0.00    +0.016 A 
ATOM     15  C   UNL A   1     -31.562   1.412  22.572  0.00  0.00    +0.067 A 
ATOM     16  N   UNL A   1     -30.456   1.776  23.154  0.00  0.00    -0.286 N 
ENDROOT
BRANCH   1  20
ATOM     17  C   UNL A   1     -24.435   0.289  27.914  0.00  0.00    +0.091 A 
ATOM     18  C   UNL A   1     -24.501   0.002  26.816  0.00  0.00    +0.018 A 
ATOM     19  C   UNL A   1     -25.533   0.186  25.780  0.00  0.00    +0.001 A 
ATOM     20  C   UNL A   1     -26.658   0.907  26.213  0.00  0.00    +0.000 A 
ATOM     21  C   UNL A   1     -26.739   1.331  27.491  0.00  0.00    +0.001 A 
ATOM     22  C   UNL A   1     -25.742   1.114  28.413  0.00  0.00    +0.018 A 
BRANCH  17  23
ATOM     23  N   UNL A   1     -23.751   0.193  28.743  0.00  0.00    -0.097 NA
BRANCH  23  24
ATOM     24  S   UNL A   1     -22.880  -1.026  29.426  0.00  0.00    +0.093 S 
ATOM     25  O   UNL A   1     -21.899  -1.274  28.904  0.00  0.00    -0.148 OA
ATOM     26  O   UNL A   1     -22.785  -0.684  30.879  0.00  0.00    -0.148 OA
BRANCH  24  31
ATOM     27  C   UNL A   1     -26.198  -2.745  30.220  0.00  0.00    +0.031 A 
ATOM     28  C   UNL A   1     -25.356  -2.113  30.168  0.00  0.00    +0.023 A 
ATOM     29  C   UNL A   1     -26.041  -4.058  29.661  0.00  0.00    +0.140 A 
ATOM     30  C   UNL A   1     -24.963  -4.429  28.963  0.00  0.00    +0.031 A 
ATOM     31  C   UNL A   1     -24.103  -2.296  29.450  0.00  0.00    +0.127 A 
ATOM     32  C   UNL A   1     -23.951  -3.497  28.908  0.00  0.00    +0.023 A 
ATOM     33  F   UNL A   1     -27.119  -4.906  29.798  0.00  0.00    -0.204 F 
ENDBRANCH  24  31
ENDBRANCH  23  24
ENDBRANCH  17  23
ENDBRANCH   1  20
BRANCH  16  34
ATOM     34  C   UNL A   1     -30.604   3.344  23.337  0.00  0.00    +0.096 C 
ATOM     35  C   UNL A   1     -31.272   3.742  24.478  0.00  0.00    +0.024 C 
ENDBRANCH  16  34
TORSDOF 5
ENDMDL
ENDMDL
