REMARK  Name = No_3641-gen_results/8p0m/2024-11-26-14-13-15/
REMARK  5 active torsions:
REMARK  status: ('A' for Active; 'I' for Inactive)
REMARK    1  A    between atoms: C_5  and  S_8
REMARK    2  A    between atoms: S_8  and  N_11
REMARK    3  A    between atoms: N_11  and  C_12
REMARK    4  A    between atoms: C_15  and  C_18
REMARK    5  A    between atoms: N_33  and  C_34
REMARK                            x       y       z     vdW  Elec       q    Type
REMARK                         _______ _______ _______ _____ _____    ______ ____
ROOT
ATOM      1  C   UNL A   1     -35.254  -3.456  34.248  0.00  0.00    +0.000 A 
ATOM      2  C   UNL A   1     -35.962  -4.256  33.780  0.00  0.00    +0.001 A 
ATOM      3  C   UNL A   1     -36.693  -4.910  34.073  0.00  0.00    +0.015 A 
ATOM      4  C   UNL A   1     -37.006  -4.856  35.588  0.00  0.00    +0.056 A 
ATOM      5  C   UNL A   1     -36.291  -3.999  36.291  0.00  0.00    +0.069 A 
ATOM      6  C   UNL A   1     -35.356  -3.217  35.696  0.00  0.00    +0.006 A 
ATOM      7  C   UNL A   1     -36.367  -3.677  37.763  0.00  0.00    +0.270 C 
ATOM      8  N   UNL A   1     -37.100  -4.134  38.597  0.00  0.00    -0.174 NA
ATOM      9  O   UNL A   1     -35.432  -2.970  38.308  0.00  0.00    -0.268 OA
ATOM     10  C   UNL A   1     -38.211  -4.988  38.210  0.00  0.00    +0.087 A 
ATOM     11  C   UNL A   1     -38.961  -5.436  39.349  0.00  0.00    +0.018 A 
ATOM     12  C   UNL A   1     -40.034  -6.208  39.172  0.00  0.00    +0.001 A 
ATOM     13  C   UNL A   1     -40.389  -6.586  37.835  0.00  0.00    +0.001 A 
ATOM     14  C   UNL A   1     -39.662  -6.151  36.774  0.00  0.00    +0.016 A 
ATOM     15  C   UNL A   1     -38.572  -5.302  36.974  0.00  0.00    +0.067 A 
ATOM     16  N   UNL A   1     -37.887  -5.029  35.901  0.00  0.00    -0.286 N 
ENDROOT
BRANCH   1  20
ATOM     17  C   UNL A   1     -32.406  -1.161  31.917  0.00  0.00    +0.091 A 
ATOM     18  C   UNL A   1     -33.117  -1.959  31.529  0.00  0.00    +0.018 A 
ATOM     19  C   UNL A   1     -34.105  -2.839  32.178  0.00  0.00    +0.001 A 
ATOM     20  C   UNL A   1     -34.243  -2.625  33.560  0.00  0.00    +0.000 A 
ATOM     21  C   UNL A   1     -33.477  -1.706  34.182  0.00  0.00    +0.001 A 
ATOM     22  C   UNL A   1     -32.562  -0.924  33.516  0.00  0.00    +0.018 A 
BRANCH  17  23
ATOM     23  N   UNL A   1     -31.652  -0.487  31.541  0.00  0.00    -0.097 NA
BRANCH  23  24
ATOM     24  S   UNL A   1     -30.123  -0.058  31.974  0.00  0.00    +0.093 S 
ATOM     25  O   UNL A   1     -30.050   0.817  32.699  0.00  0.00    -0.148 OA
ATOM     26  O   UNL A   1     -29.458  -1.326  32.405  0.00  0.00    -0.148 OA
BRANCH  24  31
ATOM     27  C   UNL A   1     -28.016  -0.814  28.878  0.00  0.00    +0.031 A 
ATOM     28  C   UNL A   1     -28.469  -0.785  29.829  0.00  0.00    +0.023 A 
ATOM     29  C   UNL A   1     -28.196   0.348  28.055  0.00  0.00    +0.140 A 
ATOM     30  C   UNL A   1     -29.019   1.350  28.378  0.00  0.00    +0.031 A 
ATOM     31  C   UNL A   1     -29.411   0.180  30.378  0.00  0.00    +0.127 A 
ATOM     32  C   UNL A   1     -29.606   1.250  29.619  0.00  0.00    +0.023 A 
ATOM     33  F   UNL A   1     -27.540   0.337  26.842  0.00  0.00    -0.204 F 
ENDBRANCH  24  31
ENDBRANCH  23  24
ENDBRANCH  17  23
ENDBRANCH   1  20
BRANCH  16  34
ATOM     34  C   UNL A   1     -38.935  -5.159  34.719  0.00  0.00    +0.096 C 
ATOM     35  C   UNL A   1     -39.514  -3.973  34.314  0.00  0.00    +0.024 C 
ENDBRANCH  16  34
TORSDOF 5
