MODEL 3642
MODEL 1
REMARK VINA RESULT:    -6.989      0.000      0.000
REMARK INTER + INTRA:          -7.764
REMARK INTER:                  -7.397
REMARK INTRA:                  -0.366
REMARK UNBOUND:                -0.366
REMARK  Name = No_3642-gen_results/8p0m/2024-11-26-14-13-15/
REMARK  1 active torsions:
REMARK  status: ('A' for Active; 'I' for Inactive)
REMARK    1  A    between atoms: C_2  and  C_7
REMARK                            x       y       z     vdW  Elec       q    Type
REMARK                         _______ _______ _______ _____ _____    ______ ____
ROOT
ATOM      1  C   UNL A   1     -24.708  -2.507  29.038  0.00  0.00    +0.002 A 
ATOM      2  C   UNL A   1     -25.603  -2.539  29.530  0.00  0.00    +0.000 A 
ATOM      3  C   UNL A   1     -26.387  -3.218  29.967  0.00  0.00    +0.002 A 
ATOM      4  C   UNL A   1     -26.207  -4.680  29.669  0.00  0.00    +0.030 A 
ATOM      5  C   UNL A   1     -25.076  -5.007  29.005  0.00  0.00    +0.140 A 
ATOM      6  C   UNL A   1     -24.221  -3.950  28.674  0.00  0.00    +0.030 A 
ATOM      7  F   UNL A   1     -24.768  -6.228  28.648  0.00  0.00    -0.204 F 
ENDROOT
BRANCH   1   9
ATOM      8  C   UNL A   1     -22.634  -1.319  29.235  0.00  0.00    +0.000 A 
ATOM      9  C   UNL A   1     -23.753  -1.396  28.782  0.00  0.00    +0.000 A 
ATOM     10  C   UNL A   1     -24.252  -0.416  27.931  0.00  0.00    +0.000 A 
ATOM     11  C   UNL A   1     -23.468   0.746  27.599  0.00  0.00    +0.000 A 
ATOM     12  C   UNL A   1     -22.196   0.766  28.185  0.00  0.00    +0.000 A 
ATOM     13  C   UNL A   1     -21.778  -0.178  28.996  0.00  0.00    +0.000 A 
ENDBRANCH   1   9
TORSDOF 1
ENDMDL
ENDMDL
