REMARK  Name = No_3642-gen_results/8p0m/2024-11-26-14-13-15/
REMARK  1 active torsions:
REMARK  status: ('A' for Active; 'I' for Inactive)
REMARK    1  A    between atoms: C_2  and  C_7
REMARK                            x       y       z     vdW  Elec       q    Type
REMARK                         _______ _______ _______ _____ _____    ______ ____
ROOT
ATOM      1  C   UNL A   1     -27.106   1.102  27.759  0.00  0.00    +0.002 A 
ATOM      2  C   UNL A   1     -27.858   1.531  27.216  0.00  0.00    +0.000 A 
ATOM      3  C   UNL A   1     -28.099   2.299  26.430  0.00  0.00    +0.002 A 
ATOM      4  C   UNL A   1     -26.954   3.184  26.025  0.00  0.00    +0.030 A 
ATOM      5  C   UNL A   1     -25.757   2.881  26.576  0.00  0.00    +0.140 A 
ATOM      6  C   UNL A   1     -25.734   1.792  27.454  0.00  0.00    +0.030 A 
ATOM      7  F   UNL A   1     -24.659   3.557  26.350  0.00  0.00    -0.204 F 
ENDROOT
BRANCH   1   9
ATOM      8  C   UNL A   1     -28.016  -0.814  28.878  0.00  0.00    +0.000 A 
ATOM      9  C   UNL A   1     -27.064  -0.119  28.608  0.00  0.00    +0.000 A 
ATOM     10  C   UNL A   1     -25.792  -0.430  29.076  0.00  0.00    +0.000 A 
ATOM     11  C   UNL A   1     -25.576  -1.565  29.936  0.00  0.00    +0.000 A 
ATOM     12  C   UNL A   1     -26.735  -2.300  30.217  0.00  0.00    +0.000 A 
ATOM     13  C   UNL A   1     -27.918  -1.954  29.763  0.00  0.00    +0.000 A 
ENDBRANCH   1   9
TORSDOF 1
