REMARK  Name = No_3643-gen_results/8p0m/2024-11-26-14-13-15/
REMARK  2 active torsions:
REMARK  status: ('A' for Active; 'I' for Inactive)
REMARK    1  A    between atoms: C_2  and  C_10
REMARK    2  A    between atoms: C_4  and  C_7
REMARK                            x       y       z     vdW  Elec       q    Type
REMARK                         _______ _______ _______ _____ _____    ______ ____
ROOT
ATOM      1  C   UNL A   1     -28.016  -0.814  28.878  0.00  0.00    +0.005 A 
ATOM      2  C   UNL A   1     -28.469  -0.785  29.829  0.00  0.00    +0.054 A 
ATOM      3  C   UNL A   1     -26.504  -0.778  28.877  0.00  0.00    +0.004 A 
ATOM      4  C   UNL A   1     -25.810  -0.853  30.103  0.00  0.00    +0.048 A 
ATOM      5  C   UNL A   1     -27.991  -0.892  31.226  0.00  0.00    +0.005 A 
ATOM      6  C   UNL A   1     -26.604  -0.868  31.265  0.00  0.00    +0.004 A 
ENDROOT
BRANCH   2   7
ATOM      7  C   UNL A   1     -30.087  -0.822  29.853  0.00  0.00    +0.249 C 
ATOM      8  O   UNL A   1     -30.686  -0.083  29.137  0.00  0.00    -0.270 OA
ATOM      9  N   UNL A   1     -30.744  -1.684  30.698  0.00  0.00    -0.276 N 
ATOM     10  C   UNL A   1     -31.703  -2.135  30.626  0.00  0.00    +0.094 C 
ATOM     11  C   UNL A   1     -32.176  -2.979  31.436  0.00  0.00    +0.022 C 
ATOM     12  C   UNL A   1     -31.285  -3.299  32.512  0.00  0.00    +0.004 C 
ATOM     13  C   UNL A   1     -30.058  -2.895  32.693  0.00  0.00    +0.022 C 
ATOM     14  C   UNL A   1     -29.693  -2.069  31.733  0.00  0.00    +0.094 C 
ENDBRANCH   2   7
BRANCH   4  15
ATOM     15  C   UNL A   1     -24.389  -0.805  30.164  0.00  0.00    +0.242 C 
ATOM     16  N   UNL A   1     -23.769  -1.134  31.045  0.00  0.00    -0.116 NA
ATOM     17  F   UNL A   1     -23.768  -0.435  29.096  0.00  0.00    -0.181 F 
ENDBRANCH   4  15
TORSDOF 2
