MODEL 3643
MODEL 1
REMARK VINA RESULT:    -6.958      0.000      0.000
REMARK INTER + INTRA:          -7.496
REMARK INTER:                  -7.771
REMARK INTRA:                   0.276
REMARK UNBOUND:                 0.276
REMARK  Name = No_3643-gen_results/8p0m/2024-11-26-14-13-15/
REMARK  2 active torsions:
REMARK  status: ('A' for Active; 'I' for Inactive)
REMARK    1  A    between atoms: C_2  and  C_10
REMARK    2  A    between atoms: C_4  and  C_7
REMARK                            x       y       z     vdW  Elec       q    Type
REMARK                         _______ _______ _______ _____ _____    ______ ____
ROOT
ATOM      1  C   UNL A   1     -23.615  -0.249  29.433  0.00  0.00    +0.005 A 
ATOM      2  C   UNL A   1     -24.510  -0.597  28.999  0.00  0.00    +0.054 A 
ATOM      3  C   UNL A   1     -22.766   0.637  28.548  0.00  0.00    +0.004 A 
ATOM      4  C   UNL A   1     -23.269   1.051  27.297  0.00  0.00    +0.048 A 
ATOM      5  C   UNL A   1     -25.265  -0.298  27.761  0.00  0.00    +0.005 A 
ATOM      6  C   UNL A   1     -24.518   0.520  26.925  0.00  0.00    +0.004 A 
ENDROOT
BRANCH   2   7
ATOM      7  C   UNL A   1     -25.434  -1.547  29.928  0.00  0.00    +0.249 C 
ATOM      8  O   UNL A   1     -26.079  -1.046  30.794  0.00  0.00    -0.270 OA
ATOM      9  N   UNL A   1     -25.453  -2.906  29.719  0.00  0.00    -0.276 N 
ATOM     10  C   UNL A   1     -26.203  -3.631  29.918  0.00  0.00    +0.094 C 
ATOM     11  C   UNL A   1     -26.137  -4.853  29.611  0.00  0.00    +0.022 C 
ATOM     12  C   UNL A   1     -24.918  -5.210  28.947  0.00  0.00    +0.004 C 
ATOM     13  C   UNL A   1     -23.947  -4.428  28.565  0.00  0.00    +0.022 C 
ATOM     14  C   UNL A   1     -24.193  -3.178  28.904  0.00  0.00    +0.094 C 
ENDBRANCH   2   7
BRANCH   4  15
ATOM     15  C   UNL A   1     -22.507   1.869  26.416  0.00  0.00    +0.242 C 
ATOM     16  N   UNL A   1     -22.938   2.514  25.600  0.00  0.00    -0.116 NA
ATOM     17  F   UNL A   1     -21.237   1.936  26.629  0.00  0.00    -0.181 F 
ENDBRANCH   4  15
TORSDOF 2
ENDMDL
ENDMDL
