REMARK  Name = No_3644-gen_results/8p0m/2024-11-26-14-13-15/
REMARK  4 active torsions:
REMARK  status: ('A' for Active; 'I' for Inactive)
REMARK    1  A    between atoms: N_3  and  C_7
REMARK    2  A    between atoms: C_7  and  C_8
REMARK    3  A    between atoms: C_12  and  O_16
REMARK    4  A    between atoms: O_16  and  C_17
REMARK                            x       y       z     vdW  Elec       q    Type
REMARK                         _______ _______ _______ _____ _____    ______ ____
ROOT
ATOM      1  C   UNL A   1     -26.300   1.434  27.225  0.00  0.00    +0.001 A 
ATOM      2  C   UNL A   1     -25.155   1.491  26.459  0.00  0.00    -0.002 A 
ATOM      3  C   UNL A   1     -24.023   2.294  26.847  0.00  0.00    +0.003 A 
ATOM      4  C   UNL A   1     -23.640   2.437  27.867  0.00  0.00    +0.037 A 
ATOM      5  C   UNL A   1     -24.726   2.322  28.914  0.00  0.00    +0.145 A 
ATOM      6  C   UNL A   1     -25.733   1.239  28.746  0.00  0.00    +0.035 A 
ENDROOT
BRANCH   1   7
ATOM      7  C   UNL A   1     -27.341   0.414  26.868  0.00  0.00    +0.122 C 
BRANCH   7  10
ATOM      8  C   UNL A   1     -28.016  -0.814  28.878  0.00  0.00    +0.097 C 
ATOM      9  C   UNL A   1     -28.469  -0.785  29.829  0.00  0.00    +0.043 C 
ATOM     10  N   UNL A   1     -28.303   0.247  28.034  0.00  0.00    -0.260 N 
ATOM     11  C   UNL A   1     -29.567   0.626  27.771  0.00  0.00    +0.307 C 
ATOM     12  C   UNL A   1     -30.017  -0.703  29.903  0.00  0.00    +0.097 C 
ATOM     13  N   UNL A   1     -30.355   0.400  29.014  0.00  0.00    -0.262 N 
ATOM     14  C   UNL A   1     -31.631   1.052  29.149  0.00  0.00    +0.116 C 
ATOM     15  O   UNL A   1     -29.922   1.317  26.941  0.00  0.00    -0.252 OA
ENDBRANCH   7  10
ENDBRANCH   1   7
BRANCH   5  16
ATOM     16  O   UNL A   1     -25.367   3.546  29.112  0.00  0.00    -0.451 OA
BRANCH  16  17
ATOM     17  C   UNL A   1     -25.995   4.224  28.507  0.00  0.00    +0.175 C 
ATOM     18  C   UNL A   1     -25.997   5.446  28.861  0.00  0.00    +0.015 C 
ATOM     19  C   UNL A   1     -26.486   6.502  27.978  0.00  0.00    +0.034 C 
ENDBRANCH  16  17
ENDBRANCH   5  16
TORSDOF 4
