MODEL 3644
MODEL 1
REMARK VINA RESULT:    -6.062      0.000      0.000
REMARK INTER + INTRA:          -8.258
REMARK INTER:                  -7.480
REMARK INTRA:                  -0.778
REMARK UNBOUND:                -0.778
REMARK  Name = No_3644-gen_results/8p0m/2024-11-26-14-13-15/
REMARK  4 active torsions:
REMARK  status: ('A' for Active; 'I' for Inactive)
REMARK    1  A    between atoms: N_3  and  C_7
REMARK    2  A    between atoms: C_7  and  C_8
REMARK    3  A    between atoms: C_12  and  O_16
REMARK    4  A    between atoms: O_16  and  C_17
REMARK                            x       y       z     vdW  Elec       q    Type
REMARK                         _______ _______ _______ _____ _____    ______ ____
ROOT
ATOM      1  C   UNL A   1     -22.828  -0.130  29.025  0.00  0.00    +0.001 A 
ATOM      2  C   UNL A   1     -21.551   0.306  28.742  0.00  0.00    -0.002 A 
ATOM      3  C   UNL A   1     -21.265   1.114  27.583  0.00  0.00    +0.003 A 
ATOM      4  C   UNL A   1     -21.892   1.918  27.174  0.00  0.00    +0.037 A 
ATOM      5  C   UNL A   1     -23.364   1.702  27.451  0.00  0.00    +0.145 A 
ATOM      6  C   UNL A   1     -23.745   1.205  28.801  0.00  0.00    +0.035 A 
ENDROOT
BRANCH   1   7
ATOM      7  C   UNL A   1     -23.076  -0.777  30.356  0.00  0.00    +0.122 C 
BRANCH   7  10
ATOM      8  C   UNL A   1     -23.769  -2.818  29.191  0.00  0.00    +0.097 C 
ATOM      9  C   UNL A   1     -24.269  -3.745  29.239  0.00  0.00    +0.043 C 
ATOM     10  N   UNL A   1     -24.081  -1.906  30.186  0.00  0.00    -0.260 N 
ATOM     11  C   UNL A   1     -25.352  -1.567  30.468  0.00  0.00    +0.307 C 
ATOM     12  C   UNL A   1     -25.821  -3.745  29.224  0.00  0.00    +0.097 C 
ATOM     13  N   UNL A   1     -26.183  -2.783  30.256  0.00  0.00    -0.262 N 
ATOM     14  C   UNL A   1     -27.503  -2.825  30.829  0.00  0.00    +0.116 C 
ATOM     15  O   UNL A   1     -25.709  -0.685  31.092  0.00  0.00    -0.252 OA
ENDBRANCH   7  10
ENDBRANCH   1   7
BRANCH   5  16
ATOM     16  O   UNL A   1     -23.951   0.908  26.465  0.00  0.00    -0.451 OA
BRANCH  16  17
ATOM     17  C   UNL A   1     -24.679   1.059  25.648  0.00  0.00    +0.175 C 
ATOM     18  C   UNL A   1     -25.323   0.027  25.277  0.00  0.00    +0.015 C 
ATOM     19  C   UNL A   1     -26.538   0.126  24.472  0.00  0.00    +0.034 C 
ENDBRANCH  16  17
ENDBRANCH   5  16
TORSDOF 4
ENDMDL
ENDMDL
