REMARK  Name = No_3645-gen_results/8p0m/2024-11-26-14-13-15/
REMARK  3 active torsions:
REMARK  status: ('A' for Active; 'I' for Inactive)
REMARK    1  A    between atoms: C_2  and  N_3
REMARK    2  A    between atoms: N_3  and  C_8
REMARK    3  A    between atoms: C_4  and  C_14
REMARK                            x       y       z     vdW  Elec       q    Type
REMARK                         _______ _______ _______ _____ _____    ______ ____
ROOT
ATOM      1  C   UNL A   1     -28.016  -0.814  28.878  0.00  0.00    +0.023 A 
ATOM      2  C   UNL A   1     -27.064  -0.119  28.608  0.00  0.00    +0.071 A 
ATOM      3  C   UNL A   1     -27.993  -1.576  30.151  0.00  0.00    +0.081 A 
ATOM      4  C   UNL A   1     -26.811  -1.689  30.836  0.00  0.00    +0.007 A 
ATOM      5  C   UNL A   1     -25.668  -1.063  30.430  0.00  0.00    +0.002 A 
ATOM      6  C   UNL A   1     -25.750  -0.243  29.279  0.00  0.00    +0.017 A 
ENDROOT
BRANCH   3   7
ATOM      7  C   UNL A   1     -29.220  -2.296  30.567  0.00  0.00    +0.388 C 
ATOM      8  O   UNL A   1     -29.263  -3.487  30.625  0.00  0.00    -0.241 OA
ATOM      9  O   UNL A   1     -30.263  -1.625  30.850  0.00  0.00    -0.241 OA
ENDBRANCH   3   7
BRANCH   2  10
ATOM     10  N   UNL A   1     -26.985   0.597  27.522  0.00  0.00    -0.213 NA
BRANCH  10  11
ATOM     11  C   UNL A   1     -27.949   1.185  26.988  0.00  0.00    +0.067 A 
ATOM     12  C   UNL A   1     -29.090   1.199  27.518  0.00  0.00    +0.016 A 
ATOM     13  C   UNL A   1     -30.137   1.764  26.787  0.00  0.00    +0.001 A 
ATOM     14  C   UNL A   1     -29.911   2.361  25.547  0.00  0.00    -0.000 A 
ATOM     15  C   UNL A   1     -27.723   1.806  25.670  0.00  0.00    -0.007 A 
ATOM     16  C   UNL A   1     -28.687   2.384  24.963  0.00  0.00    -0.003 A 
ATOM     17  C   UNL A   1     -26.342   1.737  25.140  0.00  0.00    +0.032 C 
ENDBRANCH  10  11
ENDBRANCH   2  10
TORSDOF 3
