MODEL 3645
MODEL 1
REMARK VINA RESULT:    -6.847      0.000      0.000
REMARK INTER + INTRA:          -8.650
REMARK INTER:                  -8.047
REMARK INTRA:                  -0.602
REMARK UNBOUND:                -0.602
REMARK  Name = No_3645-gen_results/8p0m/2024-11-26-14-13-15/
REMARK  3 active torsions:
REMARK  status: ('A' for Active; 'I' for Inactive)
REMARK    1  A    between atoms: C_2  and  N_3
REMARK    2  A    between atoms: N_3  and  C_8
REMARK    3  A    between atoms: C_4  and  C_14
REMARK                            x       y       z     vdW  Elec       q    Type
REMARK                         _______ _______ _______ _____ _____    ______ ____
ROOT
ATOM      1  C   UNL A   1     -24.847  -0.310  27.726  0.00  0.00    +0.023 A 
ATOM      2  C   UNL A   1     -24.129  -0.582  28.660  0.00  0.00    +0.071 A 
ATOM      3  C   UNL A   1     -24.345   0.644  26.707  0.00  0.00    +0.081 A 
ATOM      4  C   UNL A   1     -23.226   1.386  26.986  0.00  0.00    +0.007 A 
ATOM      5  C   UNL A   1     -22.511   1.225  28.138  0.00  0.00    +0.002 A 
ATOM      6  C   UNL A   1     -22.944   0.221  29.037  0.00  0.00    +0.017 A 
ENDROOT
BRANCH   3   7
ATOM      7  C   UNL A   1     -25.147   0.855  25.478  0.00  0.00    +0.388 C 
ATOM      8  O   UNL A   1     -25.925   1.754  25.380  0.00  0.00    -0.241 OA
ATOM      9  O   UNL A   1     -25.016   0.041  24.509  0.00  0.00    -0.241 OA
ENDBRANCH   3   7
BRANCH   2  10
ATOM     10  N   UNL A   1     -24.468  -1.413  29.605  0.00  0.00    -0.213 NA
BRANCH  10  11
ATOM     11  C   UNL A   1     -24.637  -2.640  29.445  0.00  0.00    +0.067 A 
ATOM     12  C   UNL A   1     -23.765  -3.360  28.892  0.00  0.00    +0.016 A 
ATOM     13  C   UNL A   1     -24.094  -4.692  28.633  0.00  0.00    +0.001 A 
ATOM     14  C   UNL A   1     -25.315  -5.226  29.043  0.00  0.00    -0.000 A 
ATOM     15  C   UNL A   1     -25.931  -3.211  29.861  0.00  0.00    -0.007 A 
ATOM     16  C   UNL A   1     -26.263  -4.481  29.664  0.00  0.00    -0.003 A 
ATOM     17  C   UNL A   1     -26.883  -2.277  30.506  0.00  0.00    +0.032 C 
ENDBRANCH  10  11
ENDBRANCH   2  10
TORSDOF 3
ENDMDL
ENDMDL
