MODEL 3646
MODEL 1
REMARK VINA RESULT:    -5.176      0.000      0.000
REMARK INTER + INTRA:          -5.543
REMARK INTER:                  -5.478
REMARK INTRA:                  -0.064
REMARK UNBOUND:                -0.064
REMARK  Name = No_3646-gen_results/8p0m/2024-11-26-14-13-15/
REMARK  1 active torsions:
REMARK  status: ('A' for Active; 'I' for Inactive)
REMARK    1  A    between atoms: C_2  and  C_4
REMARK                            x       y       z     vdW  Elec       q    Type
REMARK                         _______ _______ _______ _____ _____    ______ ____
ROOT
ATOM      1  C   UNL A   1     -22.599   0.379  28.140  0.00  0.00    +0.218 C 
ATOM      2  C   UNL A   1     -22.212   1.404  27.778  0.00  0.00    +0.041 C 
ATOM      3  O   UNL A   1     -23.749  -0.229  27.856  0.00  0.00    -0.345 OA
ATOM      4  C   UNL A   1     -22.759   2.006  26.595  0.00  0.00    +0.003 C 
ATOM      5  C   UNL A   1     -24.002   2.053  26.480  0.00  0.00    +0.003 C 
ATOM      6  C   UNL A   1     -24.571   0.810  26.262  0.00  0.00    +0.030 C 
ATOM      7  C   UNL A   1     -24.802  -0.019  27.336  0.00  0.00    +0.143 C 
ATOM      8  C   UNL A   1     -25.003   0.362  24.941  0.00  0.00    +0.003 C 
ENDROOT
BRANCH   1  10
ATOM      9  O   UNL A   1     -22.313  -0.382  30.224  0.00  0.00    -0.243 OA
ATOM     10  C   UNL A   1     -21.788  -0.347  29.205  0.00  0.00    +0.391 C 
ATOM     11  O   UNL A   1     -20.839  -1.094  28.894  0.00  0.00    -0.243 OA
ENDBRANCH   1  10
TORSDOF 1
ENDMDL
ENDMDL
