REMARK  Name = No_3646-gen_results/8p0m/2024-11-26-14-13-15/
REMARK  1 active torsions:
REMARK  status: ('A' for Active; 'I' for Inactive)
REMARK    1  A    between atoms: C_2  and  C_4
REMARK                            x       y       z     vdW  Elec       q    Type
REMARK                         _______ _______ _______ _____ _____    ______ ____
ROOT
ATOM      1  C   UNL A   1     -29.620   0.321  28.344  0.00  0.00    +0.218 C 
ATOM      2  C   UNL A   1     -29.499   1.463  28.230  0.00  0.00    +0.041 C 
ATOM      3  O   UNL A   1     -30.664  -0.445  28.036  0.00  0.00    -0.345 OA
ATOM      4  C   UNL A   1     -30.338   2.191  27.321  0.00  0.00    +0.003 C 
ATOM      5  C   UNL A   1     -31.569   1.982  27.360  0.00  0.00    +0.003 C 
ATOM      6  C   UNL A   1     -31.920   0.732  26.880  0.00  0.00    +0.030 C 
ATOM      7  C   UNL A   1     -31.809  -0.360  27.711  0.00  0.00    +0.143 C 
ATOM      8  C   UNL A   1     -32.471   0.527  25.544  0.00  0.00    +0.003 C 
ENDROOT
BRANCH   1  10
ATOM      9  O   UNL A   1     -28.123  -1.335  28.487  0.00  0.00    -0.243 OA
ATOM     10  C   UNL A   1     -28.521  -0.436  29.078  0.00  0.00    +0.391 C 
ATOM     11  O   UNL A   1     -27.915   0.078  30.039  0.00  0.00    -0.243 OA
ENDBRANCH   1  10
TORSDOF 1
