MODEL 3647
MODEL 1
REMARK VINA RESULT:    -6.723      0.000      0.000
REMARK INTER + INTRA:         -10.227
REMARK INTER:                  -9.081
REMARK INTRA:                  -1.146
REMARK UNBOUND:                -1.146
REMARK  Name = No_3647-gen_results/8p0m/2024-11-26-14-13-15/
REMARK  6 active torsions:
REMARK  status: ('A' for Active; 'I' for Inactive)
REMARK    1  A    between atoms: C_2  and  C_13
REMARK    2  A    between atoms: C_4  and  C_7
REMARK    3  A    between atoms: C_13  and  N_14
REMARK    4  A    between atoms: N_14  and  C_15
REMARK    5  A    between atoms: C_16  and  C_17
REMARK    6  A    between atoms: C_18  and  C_19
REMARK                            x       y       z     vdW  Elec       q    Type
REMARK                         _______ _______ _______ _____ _____    ______ ____
ROOT
ATOM      1  C   UNL A   1     -25.845   2.722  26.075  0.00  0.00    -0.003 A 
ATOM      2  C   UNL A   1     -25.015   2.094  25.909  0.00  0.00    -0.001 A 
ATOM      3  C   UNL A   1     -27.150   2.247  25.474  0.00  0.00    -0.000 A 
ATOM      4  C   UNL A   1     -27.211   0.971  24.876  0.00  0.00    -0.000 A 
ATOM      5  C   UNL A   1     -24.819   0.732  25.364  0.00  0.00    -0.003 A 
ATOM      6  C   UNL A   1     -25.999   0.260  24.807  0.00  0.00    -0.000 A 
ENDROOT
BRANCH   4   7
ATOM      7  C   UNL A   1     -28.406   0.481  24.278  0.00  0.00    -0.000 A 
ATOM      8  C   UNL A   1     -29.274   1.087  23.954  0.00  0.00    -0.000 A 
ATOM      9  C   UNL A   1     -28.476  -0.978  24.012  0.00  0.00    -0.000 A 
ATOM     10  C   UNL A   1     -29.701  -1.513  23.547  0.00  0.00    +0.000 A 
ATOM     11  C   UNL A   1     -30.628   0.698  23.391  0.00  0.00    +0.000 A 
ATOM     12  C   UNL A   1     -30.733  -0.692  23.237  0.00  0.00    +0.000 A 
ENDBRANCH   4   7
BRANCH   2  13
ATOM     13  C   UNL A   1     -23.603   2.611  26.511  0.00  0.00    +0.139 C 
BRANCH  13  14
ATOM     14  N   UNL A   1     -23.259   2.218  27.701  0.00  0.00    -0.232 NA
BRANCH  14  15
ATOM     15  C   UNL A   1     -22.528   1.373  27.953  0.00  0.00    +0.081 C 
ATOM     16  C   UNL A   1     -22.354   0.284  28.420  0.00  0.00    +0.017 C 
BRANCH  16  17
ATOM     17  C   UNL A   1     -23.570  -0.433  28.834  0.00  0.00    +0.001 C 
ATOM     18  C   UNL A   1     -23.605  -1.718  29.293  0.00  0.00    -0.000 C 
BRANCH  18  19
ATOM     19  C   UNL A   1     -24.808  -2.344  29.643  0.00  0.00    -0.005 C 
ATOM     20  C   UNL A   1     -24.973  -3.675  29.211  0.00  0.00    -0.026 C 
ATOM     21  C   UNL A   1     -24.004  -4.319  28.512  0.00  0.00    +0.031 C 
ENDBRANCH  18  19
ENDBRANCH  16  17
ENDBRANCH  14  15
ENDBRANCH  13  14
ENDBRANCH   2  13
TORSDOF 6
ENDMDL
ENDMDL
