REMARK  Name = No_3647-gen_results/8p0m/2024-11-26-14-13-15/
REMARK  6 active torsions:
REMARK  status: ('A' for Active; 'I' for Inactive)
REMARK    1  A    between atoms: C_2  and  C_13
REMARK    2  A    between atoms: C_4  and  C_7
REMARK    3  A    between atoms: C_13  and  N_14
REMARK    4  A    between atoms: N_14  and  C_15
REMARK    5  A    between atoms: C_16  and  C_17
REMARK    6  A    between atoms: C_18  and  C_19
REMARK                            x       y       z     vdW  Elec       q    Type
REMARK                         _______ _______ _______ _____ _____    ______ ____
ROOT
ATOM      1  C   UNL A   1     -28.016  -0.814  28.878  0.00  0.00    -0.003 A 
ATOM      2  C   UNL A   1     -28.469  -0.785  29.829  0.00  0.00    -0.001 A 
ATOM      3  C   UNL A   1     -26.504  -0.778  28.877  0.00  0.00    -0.000 A 
ATOM      4  C   UNL A   1     -25.810  -0.853  30.103  0.00  0.00    -0.000 A 
ATOM      5  C   UNL A   1     -27.991  -0.892  31.226  0.00  0.00    -0.003 A 
ATOM      6  C   UNL A   1     -26.604  -0.868  31.265  0.00  0.00    -0.000 A 
ENDROOT
BRANCH   4   7
ATOM      7  C   UNL A   1     -24.389  -0.805  30.164  0.00  0.00    -0.000 A 
ATOM      8  C   UNL A   1     -23.766  -0.950  31.068  0.00  0.00    -0.000 A 
ATOM      9  C   UNL A   1     -23.667  -0.595  28.884  0.00  0.00    -0.000 A 
ATOM     10  C   UNL A   1     -22.265  -0.407  28.933  0.00  0.00    +0.000 A 
ATOM     11  C   UNL A   1     -22.270  -0.843  31.296  0.00  0.00    +0.000 A 
ATOM     12  C   UNL A   1     -21.596  -0.541  30.103  0.00  0.00    +0.000 A 
ENDBRANCH   4   7
BRANCH   2  13
ATOM     13  C   UNL A   1     -30.089  -0.780  29.844  0.00  0.00    +0.139 C 
BRANCH  13  14
ATOM     14  N   UNL A   1     -30.698   0.290  30.261  0.00  0.00    -0.232 NA
BRANCH  14  15
ATOM     15  C   UNL A   1     -30.202   1.261  30.611  0.00  0.00    +0.081 C 
ATOM     16  C   UNL A   1     -30.294   2.441  30.794  0.00  0.00    +0.017 C 
BRANCH  16  17
ATOM     17  C   UNL A   1     -31.629   3.018  30.570  0.00  0.00    +0.001 C 
ATOM     18  C   UNL A   1     -31.950   4.336  30.725  0.00  0.00    -0.000 C 
BRANCH  18  19
ATOM     19  C   UNL A   1     -33.252   4.807  30.519  0.00  0.00    -0.005 C 
ATOM     20  C   UNL A   1     -34.203   3.860  30.087  0.00  0.00    -0.026 C 
ATOM     21  C   UNL A   1     -33.872   2.556  29.904  0.00  0.00    +0.031 C 
ENDBRANCH  18  19
ENDBRANCH  16  17
ENDBRANCH  14  15
ENDBRANCH  13  14
ENDBRANCH   2  13
TORSDOF 6
