REMARK  Name = No_3649-gen_results/8p0m/2024-11-26-14-13-15/
REMARK  1 active torsions:
REMARK  status: ('A' for Active; 'I' for Inactive)
REMARK    1  A    between atoms: C_6  and  C_13
REMARK                            x       y       z     vdW  Elec       q    Type
REMARK                         _______ _______ _______ _____ _____    ______ ____
ROOT
ATOM      1  C   UNL A   1     -28.016  -0.814  28.878  0.00  0.00    +0.043 A 
ATOM      2  C   UNL A   1     -27.064  -0.119  28.608  0.00  0.00    +0.139 A 
ATOM      3  C   UNL A   1     -25.792  -0.430  29.076  0.00  0.00    +0.035 A 
ATOM      4  C   UNL A   1     -24.546   0.349  28.823  0.00  0.00    +0.017 A 
ATOM      5  C   UNL A   1     -23.241   0.022  29.332  0.00  0.00    +0.001 A 
ATOM      6  C   UNL A   1     -28.191  -1.258  30.088  0.00  0.00    +0.083 A 
ATOM      7  C   UNL A   1     -26.991  -1.681  30.819  0.00  0.00    +0.007 A 
ATOM      8  C   UNL A   1     -25.698  -1.166  30.367  0.00  0.00    +0.003 A 
ATOM      9  C   UNL A   1     -22.112   0.665  28.831  0.00  0.00    +0.003 A 
ATOM     10  C   UNL A   1     -22.083   1.529  27.773  0.00  0.00    +0.038 A 
ATOM     11  C   UNL A   1     -24.504   1.224  27.643  0.00  0.00    +0.092 A 
ATOM     12  C   UNL A   1     -23.324   1.818  27.205  0.00  0.00    +0.156 A 
ATOM     13  O   UNL A   1     -23.368   2.714  26.183  0.00  0.00    -0.450 OA
ATOM     14  C   UNL A   1     -24.607   3.192  25.919  0.00  0.00    +0.179 C 
ATOM     15  O   UNL A   1     -26.998   0.598  27.397  0.00  0.00    -0.475 OA
ATOM     16  C   UNL A   1     -26.329   1.395  26.877  0.00  0.00    +0.191 C 
ATOM     17 CL   UNL A   1     -24.127   1.145  26.620  0.00  0.00    -0.079 Cl
ATOM     18  C   UNL A   1     -26.140   2.514  26.099  0.00  0.00    +0.057 C 
ATOM     19  C   UNL A   1     -27.139   2.137  27.062  0.00  0.00    +0.052 C 
ENDROOT
BRANCH   6  20
ATOM     20  C   UNL A   1     -29.413  -1.981  30.594  0.00  0.00    +0.388 C 
ATOM     21  O   UNL A   1     -29.717  -1.884  31.817  0.00  0.00    -0.241 OA
ATOM     22  O   UNL A   1     -30.133  -2.594  29.807  0.00  0.00    -0.241 OA
ENDBRANCH   6  20
TORSDOF 1
