MODEL 3649
MODEL 1
REMARK VINA RESULT:    -7.421      0.000      0.000
REMARK INTER + INTRA:          -7.957
REMARK INTER:                  -7.855
REMARK INTRA:                  -0.102
REMARK UNBOUND:                -0.102
REMARK  Name = No_3649-gen_results/8p0m/2024-11-26-14-13-15/
REMARK  1 active torsions:
REMARK  status: ('A' for Active; 'I' for Inactive)
REMARK    1  A    between atoms: C_6  and  C_13
REMARK                            x       y       z     vdW  Elec       q    Type
REMARK                         _______ _______ _______ _____ _____    ______ ____
ROOT
ATOM      1  C   UNL A   1     -28.107 -11.836  31.375  0.00  0.00    +0.043 A 
ATOM      2  C   UNL A   1     -28.953 -11.646  30.532  0.00  0.00    +0.139 A 
ATOM      3  C   UNL A   1     -29.629 -10.433  30.454  0.00  0.00    +0.035 A 
ATOM      4  C   UNL A   1     -30.695 -10.081  29.473  0.00  0.00    +0.017 A 
ATOM      5  C   UNL A   1     -31.397  -8.826  29.420  0.00  0.00    +0.001 A 
ATOM      6  C   UNL A   1     -28.303 -11.470  32.607  0.00  0.00    +0.083 A 
ATOM      7  C   UNL A   1     -28.994 -10.192  32.816  0.00  0.00    +0.007 A 
ATOM      8  C   UNL A   1     -29.802  -9.663  31.717  0.00  0.00    +0.003 A 
ATOM      9  C   UNL A   1     -32.185  -8.510  28.316  0.00  0.00    +0.003 A 
ATOM     10  C   UNL A   1     -32.279  -9.237  27.163  0.00  0.00    +0.038 A 
ATOM     11  C   UNL A   1     -30.744 -10.825  28.207  0.00  0.00    +0.092 A 
ATOM     12  C   UNL A   1     -31.555 -10.429  27.148  0.00  0.00    +0.156 A 
ATOM     13  O   UNL A   1     -31.652 -11.224  26.049  0.00  0.00    -0.450 OA
ATOM     14  C   UNL A   1     -31.211 -12.490  26.240  0.00  0.00    +0.179 C 
ATOM     15  O   UNL A   1     -28.889 -12.273  29.272  0.00  0.00    -0.475 OA
ATOM     16  C   UNL A   1     -29.536 -12.399  28.314  0.00  0.00    +0.191 C 
ATOM     17 CL   UNL A   1     -30.380 -10.667  27.189  0.00  0.00    -0.079 Cl
ATOM     18  C   UNL A   1     -30.030 -13.131  27.259  0.00  0.00    +0.057 C 
ATOM     19  C   UNL A   1     -29.723 -13.451  28.626  0.00  0.00    +0.052 C 
ENDROOT
BRANCH   6  20
ATOM     20  C   UNL A   1     -27.414 -11.800  33.778  0.00  0.00    +0.388 C 
ATOM     21  O   UNL A   1     -26.715 -12.852  33.737  0.00  0.00    -0.241 OA
ATOM     22  O   UNL A   1     -27.325 -11.015  34.722  0.00  0.00    -0.241 OA
ENDBRANCH   6  20
TORSDOF 1
ENDMDL
ENDMDL
