MODEL 364
MODEL 1
REMARK VINA RESULT:    -5.151      0.000      0.000
REMARK INTER + INTRA:          -5.151
REMARK INTER:                  -5.151
REMARK INTRA:                   0.000
REMARK UNBOUND:                 0.000
REMARK  Name = No_364-gen_results/8p0m/2024-11-26-14-13-15/
REMARK  0 active torsions:
REMARK  status: ('A' for Active; 'I' for Inactive)
REMARK                            x       y       z     vdW  Elec       q    Type
REMARK                         _______ _______ _______ _____ _____    ______ ____
ROOT
ATOM      1  O   UNL A   1     -11.092 -10.789  17.291  0.00  0.00    -0.259 OA
ATOM      2  C   UNL A   1     -10.313 -10.063  17.732  0.00  0.00    +0.309 C 
ATOM      3  C   UNL A   1      -8.963 -10.219  17.489  0.00  0.00    -0.001 C 
ATOM      4  N   UNL A   1     -10.646  -9.003  18.702  0.00  0.00    -0.190 NA
ATOM      5  C   UNL A   1      -8.227 -10.824  18.423  0.00  0.00    -0.055 C 
ATOM      6  C   UNL A   1      -8.136 -10.105  19.726  0.00  0.00    +0.047 C 
ATOM      7  C   UNL A   1      -9.239  -9.510  20.426  0.00  0.00    +0.006 C 
ATOM      8  C   UNL A   1     -10.242  -8.899  19.933  0.00  0.00    +0.143 C 
ENDROOT
TORSDOF 0
ENDMDL
ENDMDL
