MODEL 3650
MODEL 1
REMARK VINA RESULT:    -6.311      0.000      0.000
REMARK INTER + INTRA:          -6.985
REMARK INTER:                  -6.680
REMARK INTRA:                  -0.305
REMARK UNBOUND:                -0.305
REMARK  Name = No_3650-gen_results/8p0m/2024-11-26-14-13-15/
REMARK  1 active torsions:
REMARK  status: ('A' for Active; 'I' for Inactive)
REMARK    1  A    between atoms: C_2  and  C_7
REMARK                            x       y       z     vdW  Elec       q    Type
REMARK                         _______ _______ _______ _____ _____    ______ ____
ROOT
ATOM      1  C   UNL A   1     -23.748  -1.166  29.111  0.00  0.00    +0.082 A 
ATOM      2  N   UNL A   1     -24.121  -0.497  28.111  0.00  0.00    -0.234 NA
ATOM      3  C   UNL A   1     -23.855   0.331  27.535  0.00  0.00    +0.138 A 
ATOM      4  C   UNL A   1     -22.597   0.940  27.738  0.00  0.00    +0.031 A 
ATOM      5  C   UNL A   1     -21.956   0.359  28.885  0.00  0.00    +0.004 A 
ATOM      6  C   UNL A   1     -22.371  -0.865  29.531  0.00  0.00    +0.019 A 
ATOM      7 CL   UNL A   1     -24.759   1.143  26.292  0.00  0.00    -0.061 Cl
ENDROOT
BRANCH   1   9
ATOM      8  C   UNL A   1     -23.851  -3.432  28.809  0.00  0.00    +0.002 A 
ATOM      9  C   UNL A   1     -24.391  -2.622  29.211  0.00  0.00    +0.018 A 
ATOM     10  C   UNL A   1     -24.483  -4.758  28.903  0.00  0.00    +0.000 A 
ATOM     11  C   UNL A   1     -25.816  -4.892  29.389  0.00  0.00    +0.000 A 
ATOM     12  C   UNL A   1     -25.787  -2.483  29.708  0.00  0.00    +0.002 A 
ATOM     13  C   UNL A   1     -26.403  -3.694  29.819  0.00  0.00    +0.000 A 
ENDBRANCH   1   9
TORSDOF 1
ENDMDL
ENDMDL
