MODEL 3651
MODEL 1
REMARK VINA RESULT:    -7.388      0.000      0.000
REMARK INTER + INTRA:          -9.937
REMARK INTER:                  -9.116
REMARK INTRA:                  -0.821
REMARK UNBOUND:                -0.821
REMARK  Name = No_3651-gen_results/8p0m/2024-11-26-14-13-15/
REMARK  4 active torsions:
REMARK  status: ('A' for Active; 'I' for Inactive)
REMARK    1  A    between atoms: C_1  and  C_2
REMARK    2  A    between atoms: C_1  and  C_10
REMARK    3  A    between atoms: N_3  and  C_4
REMARK    4  A    between atoms: C_26  and  C_28
REMARK                            x       y       z     vdW  Elec       q    Type
REMARK                         _______ _______ _______ _____ _____    ______ ____
ROOT
ATOM      1  C   UNL A   1     -30.953  -9.084   9.295  0.00  0.00    -0.013 A 
ATOM      2  C   UNL A   1     -31.678  -9.369  10.458  0.00  0.00    -0.004 A 
ATOM      3  C   UNL A   1     -31.304 -10.362  11.331  0.00  0.00    +0.004 A 
ATOM      4  C   UNL A   1     -30.278 -11.243  10.900  0.00  0.00    +0.052 A 
ATOM      5  C   UNL A   1     -29.578 -11.024   9.776  0.00  0.00    +0.013 A 
ATOM      6  C   UNL A   1     -29.856  -9.880   8.956  0.00  0.00    -0.005 A 
ATOM      7  C   UNL A   1     -29.979 -12.420  11.794  0.00  0.00    +0.250 C 
ATOM      8  O   UNL A   1     -29.893 -12.474  12.878  0.00  0.00    -0.270 OA
ATOM      9  N   UNL A   1     -30.126 -13.639  11.011  0.00  0.00    -0.254 N 
ATOM     10  C   UNL A   1     -29.878 -14.882  11.664  0.00  0.00    +0.096 C 
ATOM     11  C   UNL A   1     -29.800 -15.792  10.842  0.00  0.00    +0.022 C 
ATOM     12  C   UNL A   1     -29.943 -15.725   9.421  0.00  0.00    +0.006 C 
ATOM     13  C   UNL A   1     -30.152 -14.432   8.885  0.00  0.00    +0.051 C 
ATOM     14  C   UNL A   1     -30.215 -13.394   9.685  0.00  0.00    +0.195 C 
ATOM     15  C   UNL A   1     -28.416 -11.828   9.607  0.00  0.00    +0.158 C 
ATOM     16  O   UNL A   1     -29.125 -12.630   9.046  0.00  0.00    -0.332 OA
ENDROOT
BRANCH  15  17
ATOM     17  C   UNL A   1     -27.471 -11.209   8.540  0.00  0.00    -0.013 C 
ATOM     18  C   UNL A   1     -27.372 -11.638   7.229  0.00  0.00    -0.006 C 
ATOM     19  C   UNL A   1     -26.522 -10.179   8.963  0.00  0.00    +0.029 C 
ENDBRANCH  15  17
BRANCH   1  20
ATOM     20  C   UNL A   1     -31.150  -7.859   8.578  0.00  0.00    +0.112 C 
BRANCH  20  21
ATOM     21  C   UNL A   1     -31.090  -6.832   9.215  0.00  0.00    +0.234 C 
ATOM     22  N   UNL A   1     -32.120  -5.992   9.388  0.00  0.00    -0.257 N 
ATOM     23  O   UNL A   1     -29.943  -6.353   9.794  0.00  0.00    -0.274 OA
ATOM     24  C   UNL A   1     -33.398  -6.297   8.738  0.00  0.00    +0.120 C 
BRANCH  22  25
ATOM     25  C   UNL A   1     -32.139  -4.826  10.134  0.00  0.00    +0.054 A 
ATOM     26  C   UNL A   1     -32.043  -3.572   9.521  0.00  0.00    +0.015 A 
ATOM     27  C   UNL A   1     -32.094  -2.358  10.213  0.00  0.00    +0.001 A 
ATOM     28  C   UNL A   1     -32.450  -2.340  11.561  0.00  0.00    +0.000 A 
ATOM     29  C   UNL A   1     -32.566  -3.573  12.213  0.00  0.00    +0.001 A 
ATOM     30  C   UNL A   1     -32.499  -4.805  11.500  0.00  0.00    +0.015 A 
ENDBRANCH  22  25
ENDBRANCH  20  21
ENDBRANCH   1  20
TORSDOF 4
ENDMDL
ENDMDL
