REMARK  Name = No_3651-gen_results/8p0m/2024-11-26-14-13-15/
REMARK  4 active torsions:
REMARK  status: ('A' for Active; 'I' for Inactive)
REMARK    1  A    between atoms: C_1  and  C_2
REMARK    2  A    between atoms: C_1  and  C_10
REMARK    3  A    between atoms: N_3  and  C_4
REMARK    4  A    between atoms: C_26  and  C_28
REMARK                            x       y       z     vdW  Elec       q    Type
REMARK                         _______ _______ _______ _____ _____    ______ ____
ROOT
ATOM      1  C   UNL A   1     -29.273  -0.154  29.073  0.00  0.00    -0.013 A 
ATOM      2  C   UNL A   1     -30.354  -0.814  29.670  0.00  0.00    -0.004 A 
ATOM      3  C   UNL A   1     -31.640  -0.337  29.590  0.00  0.00    +0.004 A 
ATOM      4  C   UNL A   1     -31.807   0.972  29.067  0.00  0.00    +0.052 A 
ATOM      5  C   UNL A   1     -30.792   1.652  28.513  0.00  0.00    +0.013 A 
ATOM      6  C   UNL A   1     -29.482   1.073  28.439  0.00  0.00    -0.005 A 
ATOM      7  C   UNL A   1     -33.200   1.548  29.124  0.00  0.00    +0.250 C 
ATOM      8  O   UNL A   1     -34.161   1.085  28.906  0.00  0.00    -0.270 OA
ATOM      9  N   UNL A   1     -33.145   2.808  29.852  0.00  0.00    -0.254 N 
ATOM     10  C   UNL A   1     -34.361   3.534  30.017  0.00  0.00    +0.096 C 
ATOM     11  C   UNL A   1     -34.132   4.670  30.425  0.00  0.00    +0.022 C 
ATOM     12  C   UNL A   1     -32.872   5.268  30.740  0.00  0.00    +0.006 C 
ATOM     13  C   UNL A   1     -31.733   4.462  30.503  0.00  0.00    +0.051 C 
ATOM     14  C   UNL A   1     -31.879   3.245  30.034  0.00  0.00    +0.195 C 
ATOM     15  C   UNL A   1     -31.155   2.828  27.799  0.00  0.00    +0.158 C 
ATOM     16  O   UNL A   1     -31.030   3.428  28.840  0.00  0.00    -0.332 OA
ENDROOT
BRANCH  15  17
ATOM     17  C   UNL A   1     -30.003   3.275  26.857  0.00  0.00    -0.013 C 
ATOM     18  C   UNL A   1     -29.268   4.438  27.005  0.00  0.00    -0.006 C 
ATOM     19  C   UNL A   1     -29.742   2.488  25.652  0.00  0.00    +0.029 C 
ENDBRANCH  15  17
BRANCH   1  20
ATOM     20  C   UNL A   1     -28.016  -0.814  28.878  0.00  0.00    +0.112 C 
BRANCH  20  21
ATOM     21  C   UNL A   1     -27.064  -0.119  28.608  0.00  0.00    +0.234 C 
ATOM     22  N   UNL A   1     -25.818  -0.343  29.049  0.00  0.00    -0.257 N 
ATOM     23  O   UNL A   1     -27.139   1.032  27.865  0.00  0.00    -0.274 OA
ATOM     24  C   UNL A   1     -25.580  -1.473  29.951  0.00  0.00    +0.120 C 
BRANCH  22  25
ATOM     25  C   UNL A   1     -24.676   0.381  28.750  0.00  0.00    +0.054 A 
ATOM     26  C   UNL A   1     -23.428   0.009  29.260  0.00  0.00    +0.015 A 
ATOM     27  C   UNL A   1     -22.234   0.675  28.966  0.00  0.00    +0.001 A 
ATOM     28  C   UNL A   1     -22.207   1.647  27.967  0.00  0.00    +0.000 A 
ATOM     29  C   UNL A   1     -23.433   2.044  27.422  0.00  0.00    +0.001 A 
ATOM     30  C   UNL A   1     -24.647   1.367  27.739  0.00  0.00    +0.015 A 
ENDBRANCH  22  25
ENDBRANCH  20  21
ENDBRANCH   1  20
TORSDOF 4
