MODEL 3652
MODEL 1
REMARK VINA RESULT:    -6.874      0.000      0.000
REMARK INTER + INTRA:          -8.678
REMARK INTER:                  -8.079
REMARK INTRA:                  -0.599
REMARK UNBOUND:                -0.599
REMARK  Name = No_3652-gen_results/8p0m/2024-11-26-14-13-15/
REMARK  3 active torsions:
REMARK  status: ('A' for Active; 'I' for Inactive)
REMARK    1  A    between atoms: C_2  and  C_14
REMARK    2  A    between atoms: C_3  and  C_4
REMARK    3  A    between atoms: C_4  and  C_8
REMARK                            x       y       z     vdW  Elec       q    Type
REMARK                         _______ _______ _______ _____ _____    ______ ____
ROOT
ATOM      1  C   UNL A   1     -24.482  -0.105  27.432  0.00  0.00    +0.003 A 
ATOM      2  C   UNL A   1     -24.238   0.607  26.694  0.00  0.00    +0.080 A 
ATOM      3  C   UNL A   1     -23.442  -0.304  28.512  0.00  0.00    -0.018 A 
ATOM      4  C   UNL A   1     -23.173   1.616  26.621  0.00  0.00    +0.007 A 
ATOM      5  C   UNL A   1     -22.199   1.517  27.590  0.00  0.00    -0.000 A 
ATOM      6  C   UNL A   1     -22.307   0.581  28.587  0.00  0.00    -0.004 A 
ENDROOT
BRANCH   2   7
ATOM      7  C   UNL A   1     -25.307   0.806  25.541  0.00  0.00    +0.388 C 
ATOM      8  O   UNL A   1     -26.351   1.282  25.638  0.00  0.00    -0.241 OA
ATOM      9  O   UNL A   1     -25.054  -0.042  24.549  0.00  0.00    -0.241 OA
ENDBRANCH   2   7
BRANCH   3  10
ATOM     10  C   UNL A   1     -23.464  -1.311  29.543  0.00  0.00    +0.053 C 
BRANCH  10  11
ATOM     11  C   UNL A   1     -24.429  -2.393  29.360  0.00  0.00    -0.018 A 
ATOM     12  C   UNL A   1     -23.830  -3.550  28.941  0.00  0.00    -0.004 A 
ATOM     13  C   UNL A   1     -24.616  -4.779  28.979  0.00  0.00    -0.000 A 
ATOM     14  C   UNL A   1     -25.904  -4.744  29.420  0.00  0.00    -0.000 A 
ATOM     15  C   UNL A   1     -25.693  -2.375  29.939  0.00  0.00    -0.004 A 
ATOM     16  C   UNL A   1     -26.424  -3.544  29.949  0.00  0.00    -0.000 A 
ENDBRANCH  10  11
ENDBRANCH   3  10
TORSDOF 3
ENDMDL
ENDMDL
