MODEL 3653
MODEL 1
REMARK VINA RESULT:    -5.852      0.000      0.000
REMARK INTER + INTRA:          -6.694
REMARK INTER:                  -7.221
REMARK INTRA:                   0.527
REMARK UNBOUND:                 0.527
REMARK  Name = No_3653-gen_results/8p0m/2024-11-26-14-13-15/
REMARK  4 active torsions:
REMARK  status: ('A' for Active; 'I' for Inactive)
REMARK    1  A    between atoms: C_4  and  C_7
REMARK    2  A    between atoms: C_7  and  C_8
REMARK    3  A    between atoms: C_7  and  C_12
REMARK    4  A    between atoms: C_9  and  C_10
REMARK                            x       y       z     vdW  Elec       q    Type
REMARK                         _______ _______ _______ _____ _____    ______ ____
ROOT
ATOM      1  C   UNL A   1     -24.426  -1.146  29.017  0.00  0.00    +0.092 C 
ATOM      2  C   UNL A   1     -23.010  -0.765  28.941  0.00  0.00    +0.017 C 
ENDROOT
BRANCH   1   6
ATOM      3  C   UNL A   1     -24.408  -4.993  28.912  0.00  0.00    -0.000 A 
ATOM      4  C   UNL A   1     -25.393  -5.116  29.266  0.00  0.00    -0.000 A 
ATOM      5  C   UNL A   1     -23.956  -3.561  28.735  0.00  0.00    -0.004 A 
ATOM      6  C   UNL A   1     -24.792  -2.512  29.175  0.00  0.00    -0.012 A 
ATOM      7  C   UNL A   1     -26.434  -4.219  29.817  0.00  0.00    -0.000 A 
ATOM      8  C   UNL A   1     -26.051  -2.892  29.677  0.00  0.00    -0.004 A 
ENDBRANCH   1   6
BRANCH   1   9
ATOM      9  C   UNL A   1     -24.960  -0.763  27.538  0.00  0.00    +0.180 C 
ATOM     10  C   UNL A   1     -25.902   0.005  27.230  0.00  0.00    +0.041 C 
ATOM     11  O   UNL A   1     -23.912   0.163  27.380  0.00  0.00    -0.291 OA
ENDBRANCH   1   9
BRANCH   1  12
ATOM     12  C   UNL A   1     -25.041  -0.247  29.937  0.00  0.00    -0.019 C 
ATOM     13  C   UNL A   1     -24.430  -0.035  31.190  0.00  0.00    -0.013 C 
BRANCH  13  14
ATOM     14  C   UNL A   1     -23.254  -0.752  31.518  0.00  0.00    +0.120 C 
ATOM     15 CL   UNL A   1     -22.749  -1.526  32.618  0.00  0.00    -0.109 Cl
ENDBRANCH  13  14
ENDBRANCH   1  12
TORSDOF 4
ENDMDL
ENDMDL
