REMARK  Name = No_3653-gen_results/8p0m/2024-11-26-14-13-15/
REMARK  4 active torsions:
REMARK  status: ('A' for Active; 'I' for Inactive)
REMARK    1  A    between atoms: C_4  and  C_7
REMARK    2  A    between atoms: C_7  and  C_8
REMARK    3  A    between atoms: C_7  and  C_12
REMARK    4  A    between atoms: C_9  and  C_10
REMARK                            x       y       z     vdW  Elec       q    Type
REMARK                         _______ _______ _______ _____ _____    ______ ____
ROOT
ATOM      1  C   UNL A   1     -24.389  -0.805  30.164  0.00  0.00    +0.092 C 
ATOM      2  C   UNL A   1     -23.681  -1.359  31.325  0.00  0.00    +0.017 C 
ENDROOT
BRANCH   1   6
ATOM      3  C   UNL A   1     -28.016  -0.814  28.878  0.00  0.00    -0.000 A 
ATOM      4  C   UNL A   1     -28.469  -0.785  29.829  0.00  0.00    -0.000 A 
ATOM      5  C   UNL A   1     -26.504  -0.778  28.877  0.00  0.00    -0.004 A 
ATOM      6  C   UNL A   1     -25.810  -0.853  30.103  0.00  0.00    -0.012 A 
ATOM      7  C   UNL A   1     -27.991  -0.892  31.226  0.00  0.00    -0.000 A 
ATOM      8  C   UNL A   1     -26.604  -0.868  31.265  0.00  0.00    -0.004 A 
ENDBRANCH   1   6
BRANCH   1   9
ATOM      9  C   UNL A   1     -23.909  -1.790  28.973  0.00  0.00    +0.180 C 
ATOM     10  C   UNL A   1     -24.590  -2.636  28.346  0.00  0.00    +0.041 C 
ATOM     11  O   UNL A   1     -24.015  -0.743  28.039  0.00  0.00    -0.291 OA
ENDBRANCH   1   9
BRANCH   1  12
ATOM     12  C   UNL A   1     -23.817   0.476  29.912  0.00  0.00    -0.019 C 
ATOM     13  C   UNL A   1     -22.501   0.545  29.410  0.00  0.00    -0.013 C 
BRANCH  13  14
ATOM     14  C   UNL A   1     -21.770  -0.652  29.213  0.00  0.00    +0.120 C 
ATOM     15 CL   UNL A   1     -22.042  -2.055  29.066  0.00  0.00    -0.109 Cl
ENDBRANCH  13  14
ENDBRANCH   1  12
TORSDOF 4
