REMARK  Name = No_3654-gen_results/8p0m/2024-11-26-14-13-15/
REMARK  2 active torsions:
REMARK  status: ('A' for Active; 'I' for Inactive)
REMARK    1  A    between atoms: C_2  and  C_4
REMARK    2  A    between atoms: C_4  and  C_6
REMARK                            x       y       z     vdW  Elec       q    Type
REMARK                         _______ _______ _______ _____ _____    ______ ____
ROOT
ATOM      1  C   UNL A   1     -28.910   2.371  29.954  0.00  0.00    -0.015 A 
ATOM      2  C   UNL A   1     -29.696   3.165  29.895  0.00  0.00    -0.004 A 
ATOM      3  C   UNL A   1     -30.040   4.262  29.697  0.00  0.00    -0.000 A 
ATOM      4  C   UNL A   1     -28.902   5.188  29.370  0.00  0.00    -0.000 A 
ATOM      5  C   UNL A   1     -27.642   4.541  29.314  0.00  0.00    -0.000 A 
ATOM      6  C   UNL A   1     -27.571   3.207  29.595  0.00  0.00    -0.004 A 
ENDROOT
BRANCH   1   7
ATOM      7  C   UNL A   1     -28.632   1.237  30.107  0.00  0.00    +0.110 C 
BRANCH   7   9
ATOM      8 CL   UNL A   1     -28.149  -0.820  28.908  0.00  0.00    -0.047 Cl
ATOM      9  C   UNL A   1     -27.834   0.496  29.060  0.00  0.00    +0.334 C 
ATOM     10  F   UNL A   1     -27.790   1.142  28.045  0.00  0.00    -0.186 F 
ATOM     11  F   UNL A   1     -26.523   0.532  29.543  0.00  0.00    -0.186 F 
ENDBRANCH   7   9
ENDBRANCH   1   7
TORSDOF 2
