MODEL 3654
MODEL 1
REMARK VINA RESULT:    -5.493      0.000      0.000
REMARK INTER + INTRA:          -6.536
REMARK INTER:                  -6.135
REMARK INTRA:                  -0.402
REMARK UNBOUND:                -0.402
REMARK  Name = No_3654-gen_results/8p0m/2024-11-26-14-13-15/
REMARK  2 active torsions:
REMARK  status: ('A' for Active; 'I' for Inactive)
REMARK    1  A    between atoms: C_2  and  C_4
REMARK    2  A    between atoms: C_4  and  C_6
REMARK                            x       y       z     vdW  Elec       q    Type
REMARK                         _______ _______ _______ _____ _____    ______ ____
ROOT
ATOM      1  C   UNL A   1     -24.261  -2.595  28.921  0.00  0.00    -0.015 A 
ATOM      2  C   UNL A   1     -23.941  -3.630  28.640  0.00  0.00    -0.004 A 
ATOM      3  C   UNL A   1     -24.111  -4.783  28.589  0.00  0.00    -0.000 A 
ATOM      4  C   UNL A   1     -25.390  -5.221  29.246  0.00  0.00    -0.000 A 
ATOM      5  C   UNL A   1     -26.165  -4.148  29.751  0.00  0.00    -0.000 A 
ATOM      6  C   UNL A   1     -25.682  -2.876  29.644  0.00  0.00    -0.004 A 
ENDROOT
BRANCH   1   7
ATOM      7  C   UNL A   1     -24.062  -1.435  28.889  0.00  0.00    +0.110 C 
BRANCH   7   9
ATOM      8 CL   UNL A   1     -23.070   0.550  29.879  0.00  0.00    -0.047 Cl
ATOM      9  C   UNL A   1     -23.031  -0.809  29.798  0.00  0.00    +0.334 C 
ATOM     10  F   UNL A   1     -23.004  -1.393  30.850  0.00  0.00    -0.186 F 
ATOM     11  F   UNL A   1     -21.810  -1.131  29.199  0.00  0.00    -0.186 F 
ENDBRANCH   7   9
ENDBRANCH   1   7
TORSDOF 2
ENDMDL
ENDMDL
