MODEL 3655
MODEL 1
REMARK VINA RESULT:    -6.248      0.000      0.000
REMARK INTER + INTRA:          -6.978
REMARK INTER:                  -6.613
REMARK INTRA:                  -0.365
REMARK UNBOUND:                -0.365
REMARK  Name = No_3655-gen_results/8p0m/2024-11-26-14-13-15/
REMARK  1 active torsions:
REMARK  status: ('A' for Active; 'I' for Inactive)
REMARK    1  A    between atoms: C_7  and  C_8
REMARK                            x       y       z     vdW  Elec       q    Type
REMARK                         _______ _______ _______ _____ _____    ______ ____
ROOT
ATOM      1  C   UNL A   1     -24.607  -4.205  29.215  0.00  0.00    +0.030 A 
ATOM      2  C   UNL A   1     -25.755  -4.030  29.553  0.00  0.00    +0.140 A 
ATOM      3  F   UNL A   1     -26.514  -4.999  29.824  0.00  0.00    -0.204 F 
ATOM      4  C   UNL A   1     -26.373  -2.744  29.878  0.00  0.00    +0.030 A 
ATOM      5  C   UNL A   1     -23.853  -3.030  28.760  0.00  0.00    +0.002 A 
ATOM      6  C   UNL A   1     -25.605  -1.621  29.572  0.00  0.00    +0.002 A 
ATOM      7  C   UNL A   1     -24.352  -1.793  29.042  0.00  0.00    +0.000 A 
ENDROOT
BRANCH   7   8
ATOM      8  C   UNL A   1     -23.556  -0.596  28.729  0.00  0.00    +0.000 A 
ATOM      9  C   UNL A   1     -22.327  -0.564  28.961  0.00  0.00    +0.000 A 
ATOM     10  C   UNL A   1     -21.425  -0.004  28.821  0.00  0.00    +0.000 A 
ATOM     11  C   UNL A   1     -21.492   1.145  27.858  0.00  0.00    +0.000 A 
ATOM     12  C   UNL A   1     -22.845   1.343  27.412  0.00  0.00    +0.000 A 
ATOM     13  C   UNL A   1     -23.917   0.375  27.681  0.00  0.00    +0.000 A 
ENDBRANCH   7   8
TORSDOF 1
ENDMDL
ENDMDL
