REMARK  Name = No_3655-gen_results/8p0m/2024-11-26-14-13-15/
REMARK  1 active torsions:
REMARK  status: ('A' for Active; 'I' for Inactive)
REMARK    1  A    between atoms: C_7  and  C_8
REMARK                            x       y       z     vdW  Elec       q    Type
REMARK                         _______ _______ _______ _____ _____    ______ ____
ROOT
ATOM      1  C   UNL A   1     -28.016  -0.814  28.878  0.00  0.00    +0.030 A 
ATOM      2  C   UNL A   1     -27.064  -0.119  28.608  0.00  0.00    +0.140 A 
ATOM      3  F   UNL A   1     -25.884  -0.525  28.784  0.00  0.00    -0.204 F 
ATOM      4  C   UNL A   1     -27.101   1.156  27.891  0.00  0.00    +0.030 A 
ATOM      5  C   UNL A   1     -29.345  -0.195  28.797  0.00  0.00    +0.002 A 
ATOM      6  C   UNL A   1     -28.375   1.688  27.689  0.00  0.00    +0.002 A 
ATOM      7  C   UNL A   1     -29.469   0.986  28.127  0.00  0.00    +0.000 A 
ENDROOT
BRANCH   7   8
ATOM      8  C   UNL A   1     -30.804   1.562  27.902  0.00  0.00    +0.000 A 
ATOM      9  C   UNL A   1     -31.706   1.445  28.761  0.00  0.00    +0.000 A 
ATOM     10  C   UNL A   1     -32.692   1.754  29.040  0.00  0.00    +0.000 A 
ATOM     11  C   UNL A   1     -33.288   2.886  28.255  0.00  0.00    +0.000 A 
ATOM     12  C   UNL A   1     -32.426   3.240  27.160  0.00  0.00    +0.000 A 
ATOM     13  C   UNL A   1     -31.057   2.722  27.029  0.00  0.00    +0.000 A 
ENDBRANCH   7   8
TORSDOF 1
