MODEL 3656
MODEL 1
REMARK VINA RESULT:    -5.874      0.000      0.000
REMARK INTER + INTRA:          -8.473
REMARK INTER:                  -7.592
REMARK INTRA:                  -0.882
REMARK UNBOUND:                -0.882
REMARK  Name = No_3656-gen_results/8p0m/2024-11-26-14-13-15/
REMARK  5 active torsions:
REMARK  status: ('A' for Active; 'I' for Inactive)
REMARK    1  A    between atoms: C_2  and  O_7
REMARK    2  A    between atoms: O_7  and  C_8
REMARK    3  A    between atoms: C_8  and  C_9
REMARK    4  A    between atoms: C_10  and  C_11
REMARK    5  A    between atoms: C_11  and  C_12
REMARK                            x       y       z     vdW  Elec       q    Type
REMARK                         _______ _______ _______ _____ _____    ______ ____
ROOT
ATOM      1  C   UNL A   1     -22.302   0.224  28.955  0.00  0.00    +0.017 C 
ATOM      2  C   UNL A   1     -22.157  -1.006  29.044  0.00  0.00    -0.019 C 
ENDROOT
BRANCH   1   3
ATOM      3  C   UNL A   1     -23.321   0.913  29.037  0.00  0.00    +0.232 C 
BRANCH   3   4
ATOM      4  O   UNL A   1     -23.704   1.783  27.977  0.00  0.00    -0.471 OA
BRANCH   4   6
ATOM      5  C   UNL A   1     -23.945   1.220  25.788  0.00  0.00    +0.037 A 
ATOM      6  C   UNL A   1     -24.414   1.167  26.901  0.00  0.00    +0.139 A 
ATOM      7  C   UNL A   1     -25.521   0.593  27.277  0.00  0.00    +0.037 A 
ATOM      8  C   UNL A   1     -26.313  -0.053  26.280  0.00  0.00    +0.003 A 
ATOM      9  C   UNL A   1     -24.635   0.488  24.742  0.00  0.00    +0.003 A 
ATOM     10  C   UNL A   1     -25.787  -0.113  25.038  0.00  0.00    +0.000 A 
ENDBRANCH   4   6
ENDBRANCH   3   4
ENDBRANCH   1   3
BRANCH   2  11
ATOM     11  C   UNL A   1     -23.365  -1.866  28.937  0.00  0.00    +0.091 C 
BRANCH  11  12
ATOM     12  C   UNL A   1     -24.040  -2.675  29.324  0.00  0.00    +0.143 A 
ATOM     13  N   UNL A   1     -25.257  -2.643  29.790  0.00  0.00    -0.229 NA
ATOM     14  N   UNL A   1     -23.690  -4.038  28.844  0.00  0.00    -0.229 NA
ATOM     15  C   UNL A   1     -24.594  -5.066  29.029  0.00  0.00    +0.102 A 
ATOM     16  C   UNL A   1     -25.853  -4.805  29.378  0.00  0.00    +0.041 A 
ATOM     17  C   UNL A   1     -26.155  -3.565  29.886  0.00  0.00    +0.102 A 
ENDBRANCH  11  12
ENDBRANCH   2  11
TORSDOF 5
ENDMDL
ENDMDL
