REMARK  Name = No_3656-gen_results/8p0m/2024-11-26-14-13-15/
REMARK  5 active torsions:
REMARK  status: ('A' for Active; 'I' for Inactive)
REMARK    1  A    between atoms: C_2  and  O_7
REMARK    2  A    between atoms: O_7  and  C_8
REMARK    3  A    between atoms: C_8  and  C_9
REMARK    4  A    between atoms: C_10  and  C_11
REMARK    5  A    between atoms: C_11  and  C_12
REMARK                            x       y       z     vdW  Elec       q    Type
REMARK                         _______ _______ _______ _____ _____    ______ ____
ROOT
ATOM      1  C   UNL A   1     -24.731  -0.860  29.816  0.00  0.00    +0.017 C 
ATOM      2  C   UNL A   1     -23.709  -0.376  30.330  0.00  0.00    -0.019 C 
ENDROOT
BRANCH   1   3
ATOM      3  C   UNL A   1     -24.934  -1.250  28.664  0.00  0.00    +0.232 C 
BRANCH   3   4
ATOM      4  O   UNL A   1     -25.980  -0.691  27.875  0.00  0.00    -0.471 OA
BRANCH   4   6
ATOM      5  C   UNL A   1     -28.016  -0.814  28.878  0.00  0.00    +0.037 A 
ATOM      6  C   UNL A   1     -27.064  -0.119  28.608  0.00  0.00    +0.139 A 
ATOM      7  C   UNL A   1     -26.876   1.133  28.913  0.00  0.00    +0.037 A 
ATOM      8  C   UNL A   1     -27.901   1.807  29.644  0.00  0.00    +0.003 A 
ATOM      9  C   UNL A   1     -29.046  -0.232  29.718  0.00  0.00    +0.003 A 
ATOM     10  C   UNL A   1     -28.940   1.052  30.060  0.00  0.00    +0.000 A 
ENDBRANCH   4   6
ENDBRANCH   3   4
ENDBRANCH   1   3
BRANCH   2  11
ATOM     11  C   UNL A   1     -22.631   0.110  29.428  0.00  0.00    +0.091 C 
BRANCH  11  12
ATOM     12  C   UNL A   1     -22.223   0.841  28.680  0.00  0.00    +0.143 A 
ATOM     13  N   UNL A   1     -21.141   0.828  27.953  0.00  0.00    -0.229 NA
ATOM     14  N   UNL A   1     -23.249   1.742  28.091  0.00  0.00    -0.229 NA
ATOM     15  C   UNL A   1     -22.923   2.490  26.977  0.00  0.00    +0.102 A 
ATOM     16  C   UNL A   1     -21.821   2.219  26.279  0.00  0.00    +0.041 A 
ATOM     17  C   UNL A   1     -20.847   1.442  26.857  0.00  0.00    +0.102 A 
ENDBRANCH  11  12
ENDBRANCH   2  11
TORSDOF 5
