REMARK  Name = No_3657-gen_results/8p0m/2024-11-26-14-13-15/
REMARK  7 active torsions:
REMARK  status: ('A' for Active; 'I' for Inactive)
REMARK    1  A    between atoms: C_3  and  C_4
REMARK    2  A    between atoms: C_10  and  O_16
REMARK    3  A    between atoms: O_16  and  C_17
REMARK    4  A    between atoms: C_22  and  O_23
REMARK    5  A    between atoms: O_23  and  C_24
REMARK    6  A    between atoms: C_29  and  C_30
REMARK    7  A    between atoms: C_30  and  C_31
REMARK                            x       y       z     vdW  Elec       q    Type
REMARK                         _______ _______ _______ _____ _____    ______ ____
ROOT
ATOM      1  C   UNL A   1     -26.708   5.435  29.560  0.00  0.00    +0.179 A 
ATOM      2  C   UNL A   1     -27.552   6.020  28.770  0.00  0.00    +0.041 A 
ATOM      3  C   UNL A   1     -27.363   7.309  28.449  0.00  0.00    +0.003 A 
ATOM      4  C   UNL A   1     -26.514   8.209  29.209  0.00  0.00    +0.003 A 
ATOM      5  C   UNL A   1     -25.664   7.547  30.168  0.00  0.00    +0.041 A 
ATOM      6  C   UNL A   1     -25.704   6.166  30.269  0.00  0.00    +0.179 A 
ENDROOT
BRANCH   1   7
ATOM      7  O   UNL A   1     -26.696   4.010  29.543  0.00  0.00    -0.450 OA
BRANCH   7  11
ATOM      8  C   UNL A   1     -25.770   2.034  28.688  0.00  0.00    +0.039 A 
ATOM      9  C   UNL A   1     -24.714   1.443  27.919  0.00  0.00    +0.033 A 
ATOM     10  C   UNL A   1     -23.557   2.167  27.593  0.00  0.00    +0.140 A 
ATOM     11  C   UNL A   1     -25.718   3.420  28.887  0.00  0.00    +0.146 A 
ATOM     12  C   UNL A   1     -24.685   4.231  28.306  0.00  0.00    +0.040 A 
ATOM     13  C   UNL A   1     -23.597   3.559  27.686  0.00  0.00    +0.033 A 
ATOM     14  F   UNL A   1     -22.570   1.680  26.903  0.00  0.00    -0.204 F 
BRANCH   8  17
ATOM     15  C   UNL A   1     -28.016  -0.814  28.878  0.00  0.00    +0.041 A 
ATOM     16  C   UNL A   1     -27.064  -0.119  28.608  0.00  0.00    +0.141 A 
ATOM     17  C   UNL A   1     -26.929   1.171  29.008  0.00  0.00    +0.030 A 
ATOM     18  C   UNL A   1     -28.675  -0.668  29.872  0.00  0.00    +0.060 A 
ATOM     19  C   UNL A   1     -28.714   0.615  30.558  0.00  0.00    +0.011 A 
ATOM     20  C   UNL A   1     -27.733   1.522  30.166  0.00  0.00    +0.003 A 
ATOM     21  F   UNL A   1     -26.197  -0.447  27.538  0.00  0.00    -0.204 F 
ATOM     22 CL   UNL A   1     -29.966  -1.783  30.391  0.00  0.00    -0.082 Cl
ENDBRANCH   8  17
ENDBRANCH   7  11
ENDBRANCH   1   7
BRANCH   6  23
ATOM     23  O   UNL A   1     -25.057   5.468  31.181  0.00  0.00    -0.451 OA
BRANCH  23  24
ATOM     24  C   UNL A   1     -25.408   5.591  32.481  0.00  0.00    +0.142 A 
ATOM     25  C   UNL A   1     -26.536   4.826  32.953  0.00  0.00    +0.037 A 
ATOM     26  C   UNL A   1     -26.665   4.734  34.276  0.00  0.00    +0.003 A 
ATOM     27  C   UNL A   1     -25.965   5.564  35.181  0.00  0.00    -0.000 A 
ATOM     28  C   UNL A   1     -24.904   6.327  34.697  0.00  0.00    -0.001 A 
ATOM     29  C   UNL A   1     -24.582   6.321  33.364  0.00  0.00    +0.024 A 
BRANCH  29  30
ATOM     30  C   UNL A   1     -23.689   7.232  32.861  0.00  0.00    +0.143 C 
BRANCH  30  31
ATOM     31  C   UNL A   1     -22.244   6.907  33.208  0.00  0.00    +0.369 C 
ATOM     32  O   UNL A   1     -21.787   7.643  34.136  0.00  0.00    -0.245 OA
ATOM     33  O   UNL A   1     -21.726   5.804  32.898  0.00  0.00    -0.245 OA
ENDBRANCH  30  31
ENDBRANCH  29  30
ENDBRANCH  23  24
ENDBRANCH   6  23
TORSDOF 7
