REMARK  Name = No_3658-gen_results/8p0m/2024-11-26-14-13-15/
REMARK  2 active torsions:
REMARK  status: ('A' for Active; 'I' for Inactive)
REMARK    1  A    between atoms: C_3  and  O_7
REMARK    2  A    between atoms: O_7  and  C_8
REMARK                            x       y       z     vdW  Elec       q    Type
REMARK                         _______ _______ _______ _____ _____    ______ ____
ROOT
ATOM      1  O   UNL A   1     -25.800  -0.826  27.711  0.00  0.00    -0.454 OA
ENDROOT
BRANCH   1   4
ATOM      2  C   UNL A   1     -28.016  -0.814  28.878  0.00  0.00    +0.037 A 
ATOM      3  C   UNL A   1     -28.469  -0.785  29.829  0.00  0.00    +0.003 A 
ATOM      4  C   UNL A   1     -26.546  -0.876  28.850  0.00  0.00    +0.145 A 
ATOM      5  C   UNL A   1     -25.804  -1.032  30.057  0.00  0.00    +0.037 A 
ATOM      6  C   UNL A   1     -26.537  -1.039  31.217  0.00  0.00    +0.003 A 
ATOM      7  C   UNL A   1     -27.893  -0.960  31.174  0.00  0.00    +0.000 A 
ENDBRANCH   1   4
BRANCH   1   8
ATOM      8  C   UNL A   1     -25.784   0.363  27.042  0.00  0.00    +0.145 A 
ATOM      9  C   UNL A   1     -24.559   0.879  26.982  0.00  0.00    +0.037 A 
ATOM     10  C   UNL A   1     -24.330   2.088  26.206  0.00  0.00    +0.003 A 
ATOM     11  C   UNL A   1     -26.736   0.635  26.115  0.00  0.00    +0.037 A 
ATOM     12  C   UNL A   1     -26.624   1.768  25.347  0.00  0.00    +0.003 A 
ATOM     13  C   UNL A   1     -25.375   2.531  25.387  0.00  0.00    +0.000 A 
ENDBRANCH   1   8
TORSDOF 2
