MODEL 3658
MODEL 1
REMARK VINA RESULT:    -6.068      0.000      0.000
REMARK INTER + INTRA:          -7.243
REMARK INTER:                  -6.778
REMARK INTRA:                  -0.465
REMARK UNBOUND:                -0.465
REMARK  Name = No_3658-gen_results/8p0m/2024-11-26-14-13-15/
REMARK  2 active torsions:
REMARK  status: ('A' for Active; 'I' for Inactive)
REMARK    1  A    between atoms: C_3  and  O_7
REMARK    2  A    between atoms: O_7  and  C_8
REMARK                            x       y       z     vdW  Elec       q    Type
REMARK                         _______ _______ _______ _____ _____    ______ ____
ROOT
ATOM      1  O   UNL A   1     -25.064  -1.357  29.310  0.00  0.00    -0.454 OA
ENDROOT
BRANCH   1   4
ATOM      2  C   UNL A   1     -23.891  -3.469  28.650  0.00  0.00    +0.037 A 
ATOM      3  C   UNL A   1     -24.014  -4.512  28.566  0.00  0.00    +0.003 A 
ATOM      4  C   UNL A   1     -25.020  -2.716  29.218  0.00  0.00    +0.145 A 
ATOM      5  C   UNL A   1     -26.152  -3.399  29.752  0.00  0.00    +0.037 A 
ATOM      6  C   UNL A   1     -26.144  -4.765  29.626  0.00  0.00    +0.003 A 
ATOM      7  C   UNL A   1     -25.076  -5.399  29.074  0.00  0.00    +0.000 A 
ENDBRANCH   1   4
BRANCH   1   8
ATOM      8  C   UNL A   1     -24.613  -0.656  28.230  0.00  0.00    +0.145 A 
ATOM      9  C   UNL A   1     -25.543  -0.554  27.284  0.00  0.00    +0.037 A 
ATOM     10  C   UNL A   1     -25.279   0.260  26.107  0.00  0.00    +0.003 A 
ATOM     11  C   UNL A   1     -23.620   0.256  28.378  0.00  0.00    +0.037 A 
ATOM     12  C   UNL A   1     -23.277   1.057  27.316  0.00  0.00    +0.003 A 
ATOM     13  C   UNL A   1     -24.135   1.066  26.130  0.00  0.00    +0.000 A 
ENDBRANCH   1   8
TORSDOF 2
ENDMDL
ENDMDL
