REMARK  Name = No_3659-gen_results/8p0m/2024-11-26-14-13-15/
REMARK  0 active torsions:
REMARK  status: ('A' for Active; 'I' for Inactive)
REMARK                            x       y       z     vdW  Elec       q    Type
REMARK                         _______ _______ _______ _____ _____    ______ ____
ROOT
ATOM      1  N   UNL A   1     -28.054  -1.050  28.725  0.00  0.00    -0.225 NA
ATOM      2  C   UNL A   1     -26.966  -0.472  28.771  0.00  0.00    +0.162 A 
ATOM      3  C   UNL A   1     -26.549   0.388  27.831  0.00  0.00    +0.036 A 
ATOM      4  C   UNL A   1     -27.466   0.739  26.831  0.00  0.00    +0.005 A 
ATOM      5  C   UNL A   1     -28.699   0.217  26.892  0.00  0.00    +0.021 A 
ATOM      6  C   UNL A   1     -29.013  -0.559  27.937  0.00  0.00    +0.101 A 
ATOM      7  N   UNL A   1     -25.957  -0.849  29.713  0.00  0.00    -0.225 NA
ATOM      8  C   UNL A   1     -24.675  -0.466  29.602  0.00  0.00    +0.101 A 
ATOM      9  C   UNL A   1     -24.330   0.555  28.674  0.00  0.00    +0.021 A 
ATOM     10  C   UNL A   1     -25.155   0.936  27.724  0.00  0.00    +0.005 A 
ENDROOT
TORSDOF 0
