MODEL 3659
MODEL 1
REMARK VINA RESULT:    -4.791      0.000      0.000
REMARK INTER + INTRA:          -4.791
REMARK INTER:                  -4.791
REMARK INTRA:                   0.000
REMARK UNBOUND:                 0.000
REMARK  Name = No_3659-gen_results/8p0m/2024-11-26-14-13-15/
REMARK  0 active torsions:
REMARK  status: ('A' for Active; 'I' for Inactive)
REMARK                            x       y       z     vdW  Elec       q    Type
REMARK                         _______ _______ _______ _____ _____    ______ ____
ROOT
ATOM      1  N   UNL A   1     -25.566  -1.149  29.960  0.00  0.00    -0.225 NA
ATOM      2  C   UNL A   1     -25.404  -2.365  29.837  0.00  0.00    +0.162 A 
ATOM      3  C   UNL A   1     -24.310  -2.910  29.286  0.00  0.00    +0.036 A 
ATOM      4  C   UNL A   1     -23.253  -2.046  28.969  0.00  0.00    +0.005 A 
ATOM      5  C   UNL A   1     -23.391  -0.745  29.259  0.00  0.00    +0.021 A 
ATOM      6  C   UNL A   1     -24.501  -0.346  29.893  0.00  0.00    +0.101 A 
ATOM      7  N   UNL A   1     -26.474  -3.289  30.059  0.00  0.00    -0.225 NA
ATOM      8  C   UNL A   1     -26.432  -4.567  29.650  0.00  0.00    +0.101 A 
ATOM      9  C   UNL A   1     -25.198  -5.117  29.206  0.00  0.00    +0.021 A 
ATOM     10  C   UNL A   1     -24.167  -4.357  28.909  0.00  0.00    +0.005 A 
ENDROOT
TORSDOF 0
ENDMDL
ENDMDL
