MODEL 365
MODEL 1
REMARK VINA RESULT:    -6.384      0.000      0.000
REMARK INTER + INTRA:          -7.666
REMARK INTER:                  -7.130
REMARK INTRA:                  -0.536
REMARK UNBOUND:                -0.536
REMARK  Name = No_365-gen_results/8p0m/2024-11-26-14-13-15/
REMARK  2 active torsions:
REMARK  status: ('A' for Active; 'I' for Inactive)
REMARK    1  A    between atoms: C_3  and  C_4
REMARK    2  A    between atoms: C_4  and  C_8
REMARK                            x       y       z     vdW  Elec       q    Type
REMARK                         _______ _______ _______ _____ _____    ______ ____
ROOT
ATOM      1  C   UNL A   1     -24.364  -1.150  29.396  0.00  0.00    +0.053 C 
ENDROOT
BRANCH   1   4
ATOM      2  C   UNL A   1     -25.146  -0.358  27.084  0.00  0.00    -0.004 A 
ATOM      3  C   UNL A   1     -25.001   0.330  26.299  0.00  0.00    -0.000 A 
ATOM      4  C   UNL A   1     -24.238  -0.327  28.164  0.00  0.00    -0.018 A 
ATOM      5  C   UNL A   1     -23.972   1.365  26.091  0.00  0.00    -0.000 A 
ATOM      6  C   UNL A   1     -23.036   1.452  27.121  0.00  0.00    -0.000 A 
ATOM      7  C   UNL A   1     -23.167   0.645  28.206  0.00  0.00    -0.004 A 
ENDBRANCH   1   4
BRANCH   1   8
ATOM      8  C   UNL A   1     -24.788  -2.505  29.240  0.00  0.00    -0.018 A 
ATOM      9  C   UNL A   1     -25.907  -2.912  29.715  0.00  0.00    -0.004 A 
ATOM     10  C   UNL A   1     -26.189  -4.433  29.679  0.00  0.00    -0.000 A 
ATOM     11  C   UNL A   1     -25.222  -5.276  29.102  0.00  0.00    -0.000 A 
ATOM     12  C   UNL A   1     -24.098  -4.736  28.557  0.00  0.00    -0.000 A 
ATOM     13  C   UNL A   1     -23.784  -3.378  28.714  0.00  0.00    -0.004 A 
ENDBRANCH   1   8
TORSDOF 2
ENDMDL
ENDMDL
