REMARK  Name = No_366-gen_results/8p0m/2024-11-26-14-13-15/
REMARK  3 active torsions:
REMARK  status: ('A' for Active; 'I' for Inactive)
REMARK    1  A    between atoms: C_4  and  C_11
REMARK    2  A    between atoms: C_20  and  C_28
REMARK    3  A    between atoms: C_21  and  O_27
REMARK                            x       y       z     vdW  Elec       q    Type
REMARK                         _______ _______ _______ _____ _____    ______ ____
ROOT
ATOM      1  C   UNL A   1     -28.016  -0.814  28.878  0.00  0.00    +0.082 A 
ATOM      2  C   UNL A   1     -27.064  -0.119  28.608  0.00  0.00    -0.005 A 
ATOM      3  C   UNL A   1     -25.765  -0.390  29.036  0.00  0.00    -0.003 A 
ATOM      4  C   UNL A   1     -24.552   0.406  28.765  0.00  0.00    -0.000 A 
ATOM      5  C   UNL A   1     -23.230   0.118  29.258  0.00  0.00    -0.000 A 
ATOM      6  C   UNL A   1     -27.828  -1.908  29.866  0.00  0.00    +0.152 A 
ATOM      7  C   UNL A   1     -26.573  -2.316  30.264  0.00  0.00    +0.038 A 
ATOM      8  C   UNL A   1     -25.430  -1.520  29.923  0.00  0.00    +0.003 A 
ATOM      9  C   UNL A   1     -23.152  -1.109  29.967  0.00  0.00    +0.000 A 
ATOM     10  C   UNL A   1     -24.186  -1.886  30.327  0.00  0.00    +0.000 A 
ATOM     11  O   UNL A   1     -28.921  -2.670  30.184  0.00  0.00    -0.469 OA
ATOM     12  C   UNL A   1     -29.259  -2.830  31.534  0.00  0.00    +0.232 C 
ATOM     13  C   UNL A   1     -29.784  -1.772  32.143  0.00  0.00    +0.024 C 
ATOM     14  C   UNL A   1     -30.113  -0.756  31.511  0.00  0.00    +0.035 C 
ATOM     15  C   UNL A   1     -30.357  -0.637  30.221  0.00  0.00    +0.153 C 
ATOM     16  C   UNL A   1     -30.153  -0.836  29.176  0.00  0.00    +0.103 C 
ATOM     17  N   UNL A   1     -29.233  -0.342  28.690  0.00  0.00    -0.281 N 
ATOM     18  C   UNL A   1     -29.253   0.714  27.759  0.00  0.00    +0.096 C 
ATOM     19  C   UNL A   1     -28.107   0.988  27.288  0.00  0.00    +0.026 C 
ATOM     20  C   UNL A   1     -27.036   0.909  27.622  0.00  0.00    +0.029 C 
ENDROOT
BRANCH   4  21
ATOM     21  C   UNL A   1     -24.642   1.613  27.885  0.00  0.00    -0.000 A 
ATOM     22  C   UNL A   1     -24.876   2.734  28.477  0.00  0.00    -0.000 A 
ATOM     23  C   UNL A   1     -25.063   3.929  27.702  0.00  0.00    -0.000 A 
ATOM     24  C   UNL A   1     -24.863   3.824  26.290  0.00  0.00    +0.000 A 
ATOM     25  C   UNL A   1     -24.611   1.689  26.502  0.00  0.00    -0.000 A 
ATOM     26  C   UNL A   1     -24.625   2.679  25.738  0.00  0.00    -0.000 A 
ENDBRANCH   4  21
BRANCH  14  27
ATOM     27  C   UNL A   1     -29.500   0.572  32.083  0.00  0.00    +0.003 A 
ATOM     28  C   UNL A   1     -29.012   0.582  33.313  0.00  0.00    +0.000 A 
ATOM     29  C   UNL A   1     -28.652   1.780  33.959  0.00  0.00    +0.000 A 
ATOM     30  C   UNL A   1     -28.651   2.965  33.256  0.00  0.00    +0.000 A 
ATOM     31  C   UNL A   1     -29.184   2.986  31.960  0.00  0.00    +0.000 A 
ATOM     32  C   UNL A   1     -29.628   1.823  31.425  0.00  0.00    +0.000 A 
ENDBRANCH  14  27
BRANCH  15  33
ATOM     33  O   UNL A   1     -31.408   0.113  30.569  0.00  0.00    -0.470 OA
ATOM     34  C   UNL A   1     -32.536  -0.157  30.581  0.00  0.00    +0.253 C 
ENDBRANCH  15  33
TORSDOF 3
