MODEL 3660
MODEL 1
REMARK VINA RESULT:    -6.780      0.000      0.000
REMARK INTER + INTRA:          -7.378
REMARK INTER:                  -7.176
REMARK INTRA:                  -0.201
REMARK UNBOUND:                -0.201
REMARK  Name = No_3660-gen_results/8p0m/2024-11-26-14-13-15/
REMARK  1 active torsions:
REMARK  status: ('A' for Active; 'I' for Inactive)
REMARK    1  A    between atoms: C_11  and  C_13
REMARK                            x       y       z     vdW  Elec       q    Type
REMARK                         _______ _______ _______ _____ _____    ______ ____
ROOT
ATOM      1  C   UNL A   1     -23.127  -1.742  29.239  0.00  0.00    -0.000 A 
ATOM      2  C   UNL A   1     -22.758  -0.719  28.712  0.00  0.00    -0.001 A 
ATOM      3  C   UNL A   1     -23.638   0.070  27.979  0.00  0.00    -0.008 A 
ATOM      4  C   UNL A   1     -25.008  -0.332  27.786  0.00  0.00    -0.022 A 
ATOM      5  C   UNL A   1     -25.344  -1.540  28.410  0.00  0.00    -0.004 A 
ATOM      6  C   UNL A   1     -24.470  -2.257  29.078  0.00  0.00    -0.000 A 
ATOM      7  C   UNL A   1     -21.339  -0.384  28.835  0.00  0.00    -0.000 A 
ATOM      8  C   UNL A   1     -20.903   0.732  28.185  0.00  0.00    -0.000 A 
ATOM      9  C   UNL A   1     -21.864   1.606  27.431  0.00  0.00    -0.004 A 
ATOM     10  C   UNL A   1     -23.174   1.264  27.292  0.00  0.00    -0.023 A 
ATOM     11  C   UNL A   1     -24.054   2.149  26.522  0.00  0.00    +0.022 C 
ATOM     12  C   UNL A   1     -24.779   1.723  25.534  0.00  0.00    +0.005 C 
ATOM     13  C   UNL A   1     -24.867   0.296  25.167  0.00  0.00    +0.005 C 
ATOM     14  C   UNL A   1     -25.723  -0.379  26.246  0.00  0.00    +0.026 C 
ENDROOT
BRANCH  11  15
ATOM     15  C   UNL A   1     -24.007   3.569  26.758  0.00  0.00    +0.004 C 
ATOM     16  C   UNL A   1     -25.194   4.249  27.027  0.00  0.00    +0.000 C 
ENDBRANCH  11  15
TORSDOF 1
ENDMDL
ENDMDL
