REMARK  Name = No_3660-gen_results/8p0m/2024-11-26-14-13-15/
REMARK  1 active torsions:
REMARK  status: ('A' for Active; 'I' for Inactive)
REMARK    1  A    between atoms: C_11  and  C_13
REMARK                            x       y       z     vdW  Elec       q    Type
REMARK                         _______ _______ _______ _____ _____    ______ ____
ROOT
ATOM      1  C   UNL A   1     -28.016  -0.814  28.878  0.00  0.00    -0.000 A 
ATOM      2  C   UNL A   1     -27.064  -0.119  28.608  0.00  0.00    -0.001 A 
ATOM      3  C   UNL A   1     -25.792  -0.430  29.076  0.00  0.00    -0.008 A 
ATOM      4  C   UNL A   1     -25.576  -1.565  29.936  0.00  0.00    -0.022 A 
ATOM      5  C   UNL A   1     -26.735  -2.300  30.217  0.00  0.00    -0.004 A 
ATOM      6  C   UNL A   1     -27.918  -1.954  29.763  0.00  0.00    -0.000 A 
ATOM      7  C   UNL A   1     -27.324   1.085  27.819  0.00  0.00    -0.000 A 
ATOM      8  C   UNL A   1     -26.267   1.909  27.570  0.00  0.00    -0.000 A 
ATOM      9  C   UNL A   1     -24.887   1.548  28.039  0.00  0.00    -0.004 A 
ATOM     10  C   UNL A   1     -24.663   0.445  28.804  0.00  0.00    -0.023 A 
ATOM     11  C   UNL A   1     -23.295   0.164  29.250  0.00  0.00    +0.022 C 
ATOM     12  C   UNL A   1     -22.994  -0.027  30.498  0.00  0.00    +0.005 C 
ATOM     13  C   UNL A   1     -24.013  -0.087  31.564  0.00  0.00    +0.005 C 
ATOM     14  C   UNL A   1     -24.732  -1.433  31.404  0.00  0.00    +0.026 C 
ENDROOT
BRANCH  11  15
ATOM     15  C   UNL A   1     -22.213   0.252  28.304  0.00  0.00    +0.004 C 
ATOM     16  C   UNL A   1     -20.916  -0.031  28.732  0.00  0.00    +0.000 C 
ENDBRANCH  11  15
TORSDOF 1
