REMARK  Name = No_3661-gen_results/8p0m/2024-11-26-14-13-15/
REMARK  3 active torsions:
REMARK  status: ('A' for Active; 'I' for Inactive)
REMARK    1  A    between atoms: C_1  and  N_12
REMARK    2  A    between atoms: C_13  and  C_14
REMARK    3  A    between atoms: C_15  and  C_16
REMARK                            x       y       z     vdW  Elec       q    Type
REMARK                         _______ _______ _______ _____ _____    ______ ____
ROOT
ATOM      1  C   UNL A   1     -28.016  -0.814  28.878  0.00  0.00    +0.091 C 
ATOM      2  C   UNL A   1     -27.064  -0.119  28.608  0.00  0.00    -0.020 C 
ATOM      3  C   UNL A   1     -26.972   0.714  27.506  0.00  0.00    +0.029 C 
ATOM      4  C   UNL A   1     -25.821   1.491  27.116  0.00  0.00    +0.030 C 
ATOM      5  C   UNL A   1     -24.656   1.424  27.918  0.00  0.00    -0.025 A 
ATOM      6  C   UNL A   1     -23.460   2.116  27.616  0.00  0.00    -0.005 A 
ATOM      7  C   UNL A   1     -22.345   1.994  28.441  0.00  0.00    -0.000 A 
ATOM      8  C   UNL A   1     -22.366   0.991  29.443  0.00  0.00    -0.000 A 
ATOM      9  C   UNL A   1     -23.479   0.305  29.792  0.00  0.00    -0.004 A 
ATOM     10  C   UNL A   1     -24.634   0.467  29.006  0.00  0.00    -0.022 A 
ATOM     11  C   UNL A   1     -25.770  -0.258  29.334  0.00  0.00    +0.050 C 
ENDROOT
BRANCH   1  12
ATOM     12  N   UNL A   1     -28.711  -0.573  30.009  0.00  0.00    -0.243 NA
ATOM     13  C   UNL A   1     -28.549   0.408  30.677  0.00  0.00    +0.099 C 
BRANCH  13  14
ATOM     14  C   UNL A   1     -28.860   1.004  31.633  0.00  0.00    +0.021 C 
ATOM     15  C   UNL A   1     -28.788   1.822  32.279  0.00  0.00    +0.002 C 
BRANCH  15  16
ATOM     16  C   UNL A   1     -27.753   2.840  31.930  0.00  0.00    +0.000 C 
ATOM     17  C   UNL A   1     -27.040   2.461  30.779  0.00  0.00    +0.000 C 
ENDBRANCH  15  16
ENDBRANCH  13  14
ENDBRANCH   1  12
TORSDOF 3
