MODEL 3661
MODEL 1
REMARK VINA RESULT:    -7.104      0.000      0.000
REMARK INTER + INTRA:          -8.789
REMARK INTER:                  -8.350
REMARK INTRA:                  -0.440
REMARK UNBOUND:                -0.440
REMARK  Name = No_3661-gen_results/8p0m/2024-11-26-14-13-15/
REMARK  3 active torsions:
REMARK  status: ('A' for Active; 'I' for Inactive)
REMARK    1  A    between atoms: C_1  and  N_12
REMARK    2  A    between atoms: C_13  and  C_14
REMARK    3  A    between atoms: C_15  and  C_16
REMARK                            x       y       z     vdW  Elec       q    Type
REMARK                         _______ _______ _______ _____ _____    ______ ____
ROOT
ATOM      1  C   UNL A   1     -22.367   0.122  29.476  0.00  0.00    +0.091 C 
ATOM      2  C   UNL A   1     -23.291  -0.647  29.602  0.00  0.00    -0.020 C 
ATOM      3  C   UNL A   1     -24.422  -0.418  30.369  0.00  0.00    +0.029 C 
ATOM      4  C   UNL A   1     -25.499  -1.348  30.602  0.00  0.00    +0.030 C 
ATOM      5  C   UNL A   1     -25.431  -2.627  30.000  0.00  0.00    -0.025 A 
ATOM      6  C   UNL A   1     -26.412  -3.629  30.184  0.00  0.00    -0.005 A 
ATOM      7  C   UNL A   1     -26.275  -4.873  29.573  0.00  0.00    -0.000 A 
ATOM      8  C   UNL A   1     -25.032  -5.182  28.965  0.00  0.00    -0.000 A 
ATOM      9  C   UNL A   1     -24.059  -4.268  28.744  0.00  0.00    -0.004 A 
ATOM     10  C   UNL A   1     -24.213  -2.985  29.300  0.00  0.00    -0.022 A 
ATOM     11  C   UNL A   1     -23.206  -2.051  29.110  0.00  0.00    +0.050 C 
ENDROOT
BRANCH   1  12
ATOM     12  N   UNL A   1     -22.103   0.645  28.261  0.00  0.00    -0.243 NA
ATOM     13  C   UNL A   1     -22.920   1.237  27.614  0.00  0.00    +0.099 C 
BRANCH  13  14
ATOM     14  C   UNL A   1     -23.158   1.805  26.621  0.00  0.00    +0.021 C 
ATOM     15  C   UNL A   1     -23.627   1.889  25.691  0.00  0.00    +0.002 C 
BRANCH  15  16
ATOM     16  C   UNL A   1     -24.437   0.711  25.261  0.00  0.00    +0.000 C 
ATOM     17  C   UNL A   1     -25.808   1.024  25.232  0.00  0.00    +0.000 C 
ENDBRANCH  15  16
ENDBRANCH  13  14
ENDBRANCH   1  12
TORSDOF 3
ENDMDL
ENDMDL
