REMARK  Name = No_3662-gen_results/8p0m/2024-11-26-14-13-15/
REMARK  4 active torsions:
REMARK  status: ('A' for Active; 'I' for Inactive)
REMARK    1  A    between atoms: C_1  and  C_2
REMARK    2  A    between atoms: C_1  and  C_8
REMARK    3  A    between atoms: C_5  and  C_10
REMARK    4  A    between atoms: C_8  and  N_9
REMARK                            x       y       z     vdW  Elec       q    Type
REMARK                         _______ _______ _______ _____ _____    ______ ____
ROOT
ATOM      1  C   UNL A   1     -27.064  -0.119  28.608  0.00  0.00    -0.021 A 
ATOM      2  C   UNL A   1     -26.876   1.133  28.913  0.00  0.00    -0.004 A 
ATOM      3  C   UNL A   1     -25.688   1.952  28.567  0.00  0.00    +0.004 A 
ATOM      4  C   UNL A   1     -24.639   1.283  27.875  0.00  0.00    +0.071 A 
ATOM      5  C   UNL A   1     -24.818  -0.080  27.617  0.00  0.00    +0.004 A 
ATOM      6  C   UNL A   1     -25.931  -0.772  27.970  0.00  0.00    -0.004 A 
ENDROOT
BRANCH   4   7
ATOM      7  C   UNL A   1     -23.442   1.962  27.478  0.00  0.00    +0.419 C 
ATOM      8  F   UNL A   1     -22.458   1.494  27.619  0.00  0.00    -0.166 F 
ATOM      9  F   UNL A   1     -23.460   3.236  28.103  0.00  0.00    -0.166 F 
ATOM     10  F   UNL A   1     -23.628   2.397  26.169  0.00  0.00    -0.166 F 
ENDBRANCH   4   7
BRANCH   1  11
ATOM     11  C   UNL A   1     -28.016  -0.814  28.878  0.00  0.00    +0.042 C 
BRANCH  11  12
ATOM     12  C   UNL A   1     -28.090  -1.494  30.234  0.00  0.00    +0.062 C 
ATOM     13  C   UNL A   1     -27.012  -1.314  31.178  0.00  0.00    +0.018 C 
BRANCH  12  14
ATOM     14  N   UNL A   1     -29.180  -2.268  30.599  0.00  0.00    -0.274 NA
ATOM     15  C   UNL A   1     -29.083  -3.545  30.886  0.00  0.00    +0.072 C 
ATOM     16  C   UNL A   1     -30.447  -1.690  30.705  0.00  0.00    +0.072 C 
ATOM     17  C   UNL A   1     -31.485  -2.478  30.701  0.00  0.00    +0.017 C 
ATOM     18  C   UNL A   1     -30.143  -4.470  30.832  0.00  0.00    +0.017 C 
ATOM     19  C   UNL A   1     -31.387  -3.864  30.936  0.00  0.00    +0.003 C 
ENDBRANCH  12  14
ENDBRANCH  11  12
ENDBRANCH   1  11
TORSDOF 4
