MODEL 3662
MODEL 1
REMARK VINA RESULT:    -6.922      0.000      0.000
REMARK INTER + INTRA:          -9.234
REMARK INTER:                  -8.540
REMARK INTRA:                  -0.694
REMARK UNBOUND:                -0.694
REMARK  Name = No_3662-gen_results/8p0m/2024-11-26-14-13-15/
REMARK  4 active torsions:
REMARK  status: ('A' for Active; 'I' for Inactive)
REMARK    1  A    between atoms: C_1  and  C_2
REMARK    2  A    between atoms: C_1  and  C_8
REMARK    3  A    between atoms: C_5  and  C_10
REMARK    4  A    between atoms: C_8  and  N_9
REMARK                            x       y       z     vdW  Elec       q    Type
REMARK                         _______ _______ _______ _____ _____    ______ ____
ROOT
ATOM      1  C   UNL A   1     -23.255   0.091  28.260  0.00  0.00    -0.021 A 
ATOM      2  C   UNL A   1     -24.516   0.327  28.035  0.00  0.00    -0.004 A 
ATOM      3  C   UNL A   1     -25.071   1.468  27.266  0.00  0.00    +0.004 A 
ATOM      4  C   UNL A   1     -24.130   2.414  26.770  0.00  0.00    +0.071 A 
ATOM      5  C   UNL A   1     -22.784   2.192  27.080  0.00  0.00    +0.004 A 
ATOM      6  C   UNL A   1     -22.345   1.127  27.798  0.00  0.00    -0.004 A 
ENDROOT
BRANCH   4   7
ATOM      7  C   UNL A   1     -24.536   3.556  26.007  0.00  0.00    +0.419 C 
ATOM      8  F   UNL A   1     -25.474   3.545  25.436  0.00  0.00    -0.166 F 
ATOM      9  F   UNL A   1     -23.456   3.888  25.148  0.00  0.00    -0.166 F 
ATOM     10  F   UNL A   1     -24.451   4.665  26.845  0.00  0.00    -0.166 F 
ENDBRANCH   4   7
BRANCH   1  11
ATOM     11  C   UNL A   1     -22.772  -0.825  28.885  0.00  0.00    +0.042 C 
BRANCH  11  12
ATOM     12  C   UNL A   1     -23.602  -1.537  29.938  0.00  0.00    +0.062 C 
ATOM     13  C   UNL A   1     -23.559  -1.077  31.307  0.00  0.00    +0.018 C 
BRANCH  12  14
ATOM     14  N   UNL A   1     -24.420  -2.609  29.616  0.00  0.00    -0.274 NA
ATOM     15  C   UNL A   1     -25.699  -2.642  29.907  0.00  0.00    +0.072 C 
ATOM     16  C   UNL A   1     -23.900  -3.705  28.923  0.00  0.00    +0.072 C 
ATOM     17  C   UNL A   1     -24.574  -4.820  28.942  0.00  0.00    +0.017 C 
ATOM     18  C   UNL A   1     -26.474  -3.812  30.018  0.00  0.00    +0.017 C 
ATOM     19  C   UNL A   1     -25.929  -4.882  29.323  0.00  0.00    +0.003 C 
ENDBRANCH  12  14
ENDBRANCH  11  12
ENDBRANCH   1  11
TORSDOF 4
ENDMDL
ENDMDL
