MODEL 3663
MODEL 1
REMARK VINA RESULT:    -5.168      0.000      0.000
REMARK INTER + INTRA:          -5.168
REMARK INTER:                  -5.168
REMARK INTRA:                   0.000
REMARK UNBOUND:                 0.000
REMARK  Name = No_3663-gen_results/8p0m/2024-11-26-14-13-15/
REMARK  0 active torsions:
REMARK  status: ('A' for Active; 'I' for Inactive)
REMARK                            x       y       z     vdW  Elec       q    Type
REMARK                         _______ _______ _______ _____ _____    ______ ____
ROOT
ATOM      1  C   UNL A   1      -9.846 -10.736  17.020  0.00  0.00    +0.125 C 
ATOM      2  C   UNL A   1      -9.462 -10.281  18.073  0.00  0.00    +0.030 C 
ATOM      3  C   UNL A   1     -10.283  -9.577  18.953  0.00  0.00    +0.033 C 
ATOM      4  C   UNL A   1      -9.898  -8.980  20.247  0.00  0.00    +0.005 C 
ATOM      5  C   UNL A   1      -8.603  -9.335  20.734  0.00  0.00    +0.001 C 
ATOM      6  C   UNL A   1      -7.762 -10.080  19.901  0.00  0.00    +0.005 C 
ATOM      7  C   UNL A   1      -8.138 -10.535  18.685  0.00  0.00    +0.033 C 
ATOM      8  O   UNL A   1     -11.065 -10.500  16.549  0.00  0.00    -0.232 OA
ENDROOT
TORSDOF 0
ENDMDL
ENDMDL
