REMARK  Name = No_3663-gen_results/8p0m/2024-11-26-14-13-15/
REMARK  0 active torsions:
REMARK  status: ('A' for Active; 'I' for Inactive)
REMARK                            x       y       z     vdW  Elec       q    Type
REMARK                         _______ _______ _______ _____ _____    ______ ____
ROOT
ATOM      1  C   UNL A   1     -28.016  -0.814  28.878  0.00  0.00    +0.125 C 
ATOM      2  C   UNL A   1     -27.064  -0.119  28.608  0.00  0.00    +0.030 C 
ATOM      3  C   UNL A   1     -25.765  -0.390  29.036  0.00  0.00    +0.033 C 
ATOM      4  C   UNL A   1     -24.552   0.406  28.765  0.00  0.00    +0.005 C 
ATOM      5  C   UNL A   1     -24.696   1.448  27.799  0.00  0.00    +0.001 C 
ATOM      6  C   UNL A   1     -25.976   1.725  27.308  0.00  0.00    +0.005 C 
ATOM      7  C   UNL A   1     -27.072   1.013  27.654  0.00  0.00    +0.033 C 
ATOM      8  O   UNL A   1     -27.927  -1.842  29.714  0.00  0.00    -0.232 OA
ENDROOT
TORSDOF 0
